MODEL 1
REMARK VINA RESULT:      -4.5      0.000      0.000
REMARK  7 active torsions:
REMARK  status: ('A' for Active; 'I' for Inactive)
REMARK    1  A    between atoms: C_2  and  C_3 
REMARK    2  A    between atoms: C_3  and  O_6 
REMARK    3  A    between atoms: C_3  and  C_4 
REMARK    4  A    between atoms: C_7  and  O_6 
REMARK    5  A    between atoms: C_9  and  C_10 
REMARK    6  A    between atoms: N_15  and  C_14 
REMARK    7  A    between atoms: N_20  and  C_19 
REMARK       I    between atoms: C_22  and  N_20 
ROOT
ATOM      1  C   LIG d   1       3.715  89.259 115.648  0.00  0.00     0.161 C 
ATOM      2  C   LIG d   1       2.688  89.017 114.720  0.00  0.00     0.016 C 
ATOM      3  C   LIG d   1       2.924  88.724 113.357  0.00  0.00     0.038 C 
ATOM      4  C   LIG d   1       4.216  88.503 112.859  0.00  0.00     0.028 C 
ATOM      5  C   LIG d   1       5.301  89.233 113.644  0.00  0.00    -0.047 C 
ATOM      6  C   LIG d   1       5.133  88.913 115.147  0.00  0.00     0.091 C 
ENDROOT
BRANCH   1   7
ATOM      7  O   LIG d   1       3.435  88.564 116.879  0.00  0.00    -0.368 OA
BRANCH   7   8
ATOM      8  C   LIG d   1       3.275  89.393 118.057  0.00  0.00     0.119 C 
BRANCH   8   9
ATOM      9  C   LIG d   1       1.881  89.101 118.643  0.00  0.00     0.028 C 
ATOM     10  C   LIG d   1       0.755  89.788 117.851  0.00  0.00     0.006 C 
ENDBRANCH   8   9
BRANCH   8  11
ATOM     11  C   LIG d   1       3.259  90.881 117.693  0.00  0.00     0.028 C 
ATOM     12  C   LIG d   1       4.297  91.698 118.478  0.00  0.00     0.006 C 
ENDBRANCH   8  11
ENDBRANCH   7   8
ENDBRANCH   1   7
BRANCH   6  13
ATOM     13  N   LIG d   1       6.102  89.653 115.996  0.00  0.00    -0.311 N 
ATOM     14  C   LIG d   1       6.843  89.074 116.940  0.00  0.00     0.210 C 
ATOM     15  C   LIG d   1       7.763  90.023 117.713  0.00  0.00     0.109 C 
ATOM     16  O   LIG d   1       6.848  87.859 117.188  0.00  0.00    -0.276 OA
ATOM     17  H   LIG d   1       6.185  90.639 115.841  0.00  0.00     0.149 HD
ENDBRANCH   6  13
BRANCH   5  18
ATOM     18  N   LIG d   1       6.606  88.806 113.105  0.00  0.00     0.381 N 
ATOM     19  H   LIG d   1       6.497  87.955 112.589  0.00  0.00    -0.090 HD
ATOM     20  H   LIG d   1       7.233  88.632 113.870  0.00  0.00    -0.090 HD
ATOM     21  H   LIG d   1       6.979  89.516 112.514  0.00  0.00    -0.090 HD
ENDBRANCH   5  18
BRANCH   3  22
ATOM     22  C   LIG d   1       1.860  88.689 112.468  0.00  0.00     0.382 C 
ATOM     23  O   LIG d   1       1.933  87.986 111.431  0.00  0.00    -0.241 OA
ATOM     24  O   LIG d   1       0.847  89.386 112.667  0.00  0.00    -0.241 OA
ENDBRANCH   3  22
TORSDOF 7
ENDMDL
MODEL 2
REMARK VINA RESULT:      -4.5      1.336      2.141
REMARK  7 active torsions:
REMARK  status: ('A' for Active; 'I' for Inactive)
REMARK    1  A    between atoms: C_2  and  C_3 
REMARK    2  A    between atoms: C_3  and  O_6 
REMARK    3  A    between atoms: C_3  and  C_4 
REMARK    4  A    between atoms: C_7  and  O_6 
REMARK    5  A    between atoms: C_9  and  C_10 
REMARK    6  A    between atoms: N_15  and  C_14 
REMARK    7  A    between atoms: N_20  and  C_19 
REMARK       I    between atoms: C_22  and  N_20 
ROOT
ATOM      1  C   LIG d   1       3.431  89.228 115.241  0.00  0.00     0.161 C 
ATOM      2  C   LIG d   1       2.527  88.730 114.289  0.00  0.00     0.016 C 
ATOM      3  C   LIG d   1       2.920  88.253 113.017  0.00  0.00     0.038 C 
ATOM      4  C   LIG d   1       4.269  88.101 112.667  0.00  0.00     0.028 C 
ATOM      5  C   LIG d   1       5.198  89.062 113.402  0.00  0.00    -0.047 C 
ATOM      6  C   LIG d   1       4.918  88.967 114.920  0.00  0.00     0.091 C 
ENDROOT
BRANCH   1   7
ATOM      7  O   LIG d   1       3.102  88.710 116.545  0.00  0.00    -0.368 OA
BRANCH   7   8
ATOM      8  C   LIG d   1       1.733  88.275 116.732  0.00  0.00     0.119 C 
BRANCH   8   9
ATOM      9  C   LIG d   1       1.088  89.209 117.774  0.00  0.00     0.028 C 
ATOM     10  C   LIG d   1      -0.259  89.779 117.299  0.00  0.00     0.006 C 
ENDBRANCH   8   9
BRANCH   8  11
ATOM     11  C   LIG d   1       1.672  86.875 117.349  0.00  0.00     0.028 C 
ATOM     12  C   LIG d   1       0.849  85.887 116.506  0.00  0.00     0.006 C 
ENDBRANCH   8  11
ENDBRANCH   7   8
ENDBRANCH   1   7
BRANCH   6  13
ATOM     13  N   LIG d   1       5.725  89.935 115.707  0.00  0.00    -0.311 N 
ATOM     14  C   LIG d   1       6.374  89.611 116.823  0.00  0.00     0.210 C 
ATOM     15  C   LIG d   1       7.130  90.765 117.490  0.00  0.00     0.109 C 
ATOM     16  O   LIG d   1       6.423  88.470 117.308  0.00  0.00    -0.276 OA
ATOM     17  H   LIG d   1       5.765  90.877 115.368  0.00  0.00     0.149 HD
ENDBRANCH   6  13
BRANCH   5  18
ATOM     18  N   LIG d   1       6.584  88.702 113.047  0.00  0.00     0.381 N 
ATOM     19  H   LIG d   1       7.186  88.860 113.830  0.00  0.00    -0.090 HD
ATOM     20  H   LIG d   1       6.888  89.291 112.291  0.00  0.00    -0.090 HD
ATOM     21  H   LIG d   1       6.628  87.746 112.771  0.00  0.00    -0.090 HD
ENDBRANCH   5  18
BRANCH   3  22
ATOM     22  C   LIG d   1       1.955  87.960 112.065  0.00  0.00     0.382 C 
ATOM     23  O   LIG d   1       1.006  88.757 111.868  0.00  0.00    -0.241 OA
ATOM     24  O   LIG d   1       1.998  86.889 111.431  0.00  0.00    -0.241 OA
ENDBRANCH   3  22
TORSDOF 7
ENDMDL
MODEL 3
REMARK VINA RESULT:      -4.3      2.156      4.775
REMARK  7 active torsions:
REMARK  status: ('A' for Active; 'I' for Inactive)
REMARK    1  A    between atoms: C_2  and  C_3 
REMARK    2  A    between atoms: C_3  and  O_6 
REMARK    3  A    between atoms: C_3  and  C_4 
REMARK    4  A    between atoms: C_7  and  O_6 
REMARK    5  A    between atoms: C_9  and  C_10 
REMARK    6  A    between atoms: N_15  and  C_14 
REMARK    7  A    between atoms: N_20  and  C_19 
REMARK       I    between atoms: C_22  and  N_20 
ROOT
ATOM      1  C   LIG d   1       2.721  88.202 115.367  0.00  0.00     0.161 C 
ATOM      2  C   LIG d   1       1.340  88.432 115.480  0.00  0.00     0.016 C 
ATOM      3  C   LIG d   1       0.747  89.074 116.592  0.00  0.00     0.038 C 
ATOM      4  C   LIG d   1       1.517  89.669 117.602  0.00  0.00     0.028 C 
ATOM      5  C   LIG d   1       2.886  89.021 117.782  0.00  0.00    -0.047 C 
ATOM      6  C   LIG d   1       3.588  88.943 116.407  0.00  0.00     0.091 C 
ENDROOT
BRANCH   1   7
ATOM      7  O   LIG d   1       3.161  88.520 114.031  0.00  0.00    -0.368 OA
BRANCH   7   8
ATOM      8  C   LIG d   1       3.724  87.424 113.268  0.00  0.00     0.119 C 
BRANCH   8   9
ATOM      9  C   LIG d   1       5.144  87.841 112.838  0.00  0.00     0.028 C 
ATOM     10  C   LIG d   1       5.415  89.335 113.078  0.00  0.00     0.006 C 
ENDBRANCH   8   9
BRANCH   8  11
ATOM     11  C   LIG d   1       2.954  87.202 111.963  0.00  0.00     0.028 C 
ATOM     12  C   LIG d   1       1.733  88.124 111.826  0.00  0.00     0.006 C 
ENDBRANCH   8  11
ENDBRANCH   7   8
ENDBRANCH   1   7
BRANCH   6  13
ATOM     13  N   LIG d   1       4.898  88.246 116.478  0.00  0.00    -0.311 N 
ATOM     14  C   LIG d   1       6.062  88.883 116.593  0.00  0.00     0.210 C 
ATOM     15  C   LIG d   1       7.296  87.975 116.630  0.00  0.00     0.109 C 
ATOM     16  O   LIG d   1       6.188  90.112 116.700  0.00  0.00    -0.276 OA
ATOM     17  H   LIG d   1       4.886  87.246 116.430  0.00  0.00     0.149 HD
ENDBRANCH   6  13
BRANCH   5  18
ATOM     18  N   LIG d   1       3.633  89.823 118.768  0.00  0.00     0.381 N 
ATOM     19  H   LIG d   1       4.329  89.256 119.209  0.00  0.00    -0.090 HD
ATOM     20  H   LIG d   1       2.996  90.146 119.474  0.00  0.00    -0.090 HD
ATOM     21  H   LIG d   1       4.064  90.601 118.318  0.00  0.00    -0.090 HD
ENDBRANCH   5  18
BRANCH   3  22
ATOM     22  C   LIG d   1      -0.634  89.091 116.720  0.00  0.00     0.382 C 
ATOM     23  O   LIG d   1      -1.338  88.329 116.014  0.00  0.00    -0.241 OA
ATOM     24  O   LIG d   1      -1.186  89.889 117.500  0.00  0.00    -0.241 OA
ENDBRANCH   3  22
TORSDOF 7
ENDMDL
MODEL 4
REMARK VINA RESULT:      -4.2      2.093      3.431
REMARK  7 active torsions:
REMARK  status: ('A' for Active; 'I' for Inactive)
REMARK    1  A    between atoms: C_2  and  C_3 
REMARK    2  A    between atoms: C_3  and  O_6 
REMARK    3  A    between atoms: C_3  and  C_4 
REMARK    4  A    between atoms: C_7  and  O_6 
REMARK    5  A    between atoms: C_9  and  C_10 
REMARK    6  A    between atoms: N_15  and  C_14 
REMARK    7  A    between atoms: N_20  and  C_19 
REMARK       I    between atoms: C_22  and  N_20 
ROOT
ATOM      1  C   LIG d   1       3.131  89.216 115.924  0.00  0.00     0.161 C 
ATOM      2  C   LIG d   1       3.318  88.610 114.671  0.00  0.00     0.016 C 
ATOM      3  C   LIG d   1       4.592  88.336 114.121  0.00  0.00     0.038 C 
ATOM      4  C   LIG d   1       5.772  88.513 114.860  0.00  0.00     0.028 C 
ATOM      5  C   LIG d   1       5.658  89.591 115.933  0.00  0.00    -0.047 C 
ATOM      6  C   LIG d   1       4.403  89.315 116.792  0.00  0.00     0.091 C 
ENDROOT
BRANCH   1   7
ATOM      7  O   LIG d   1       2.085  88.535 116.644  0.00  0.00    -0.368 OA
BRANCH   7   8
ATOM      8  C   LIG d   1       0.788  88.495 115.999  0.00  0.00     0.119 C 
BRANCH   8   9
ATOM      9  C   LIG d   1      -0.181  89.333 116.857  0.00  0.00     0.028 C 
ATOM     10  C   LIG d   1       0.495  89.910 118.111  0.00  0.00     0.006 C 
ENDBRANCH   8   9
BRANCH   8  11
ATOM     11  C   LIG d   1       0.208  87.078 116.000  0.00  0.00     0.028 C 
ATOM     12  C   LIG d   1       1.070  86.082 116.792  0.00  0.00     0.006 C 
ENDBRANCH   8  11
ENDBRANCH   7   8
ENDBRANCH   1   7
BRANCH   6  13
ATOM     13  N   LIG d   1       4.171  90.370 117.812  0.00  0.00    -0.311 N 
ATOM     14  C   LIG d   1       3.976  91.652 117.510  0.00  0.00     0.210 C 
ATOM     15  C   LIG d   1       3.776  92.577 118.714  0.00  0.00     0.109 C 
ATOM     16  O   LIG d   1       3.919  92.106 116.357  0.00  0.00    -0.276 OA
ATOM     17  H   LIG d   1       4.170  90.084 118.772  0.00  0.00     0.149 HD
ENDBRANCH   6  13
BRANCH   5  18
ATOM     18  N   LIG d   1       6.909  89.575 116.715  0.00  0.00     0.381 N 
ATOM     19  H   LIG d   1       7.695  89.613 116.098  0.00  0.00    -0.090 HD
ATOM     20  H   LIG d   1       6.957  88.715 117.233  0.00  0.00    -0.090 HD
ATOM     21  H   LIG d   1       6.930  90.350 117.340  0.00  0.00    -0.090 HD
ENDBRANCH   5  18
BRANCH   3  22
ATOM     22  C   LIG d   1       4.697  87.917 112.804  0.00  0.00     0.382 C 
ATOM     23  O   LIG d   1       5.780  88.056 112.186  0.00  0.00    -0.241 OA
ATOM     24  O   LIG d   1       3.709  87.441 112.212  0.00  0.00    -0.241 OA
ENDBRANCH   3  22
TORSDOF 7
ENDMDL
MODEL 5
REMARK VINA RESULT:      -4.2      2.527      4.492
REMARK  7 active torsions:
REMARK  status: ('A' for Active; 'I' for Inactive)
REMARK    1  A    between atoms: C_2  and  C_3 
REMARK    2  A    between atoms: C_3  and  O_6 
REMARK    3  A    between atoms: C_3  and  C_4 
REMARK    4  A    between atoms: C_7  and  O_6 
REMARK    5  A    between atoms: C_9  and  C_10 
REMARK    6  A    between atoms: N_15  and  C_14 
REMARK    7  A    between atoms: N_20  and  C_19 
REMARK       I    between atoms: C_22  and  N_20 
ROOT
ATOM      1  C   LIG d   1       3.075  86.684 115.298  0.00  0.00     0.161 C 
ATOM      2  C   LIG d   1       1.812  87.296 115.250  0.00  0.00     0.016 C 
ATOM      3  C   LIG d   1       1.468  88.433 116.017  0.00  0.00     0.038 C 
ATOM      4  C   LIG d   1       2.420  89.130 116.777  0.00  0.00     0.028 C 
ATOM      5  C   LIG d   1       3.576  88.255 117.250  0.00  0.00    -0.047 C 
ATOM      6  C   LIG d   1       4.160  87.496 116.037  0.00  0.00     0.091 C 
ENDROOT
BRANCH   1   7
ATOM      7  O   LIG d   1       3.513  86.361 113.963  0.00  0.00    -0.368 OA
BRANCH   7   8
ATOM      8  C   LIG d   1       3.607  87.472 113.037  0.00  0.00     0.119 C 
BRANCH   8   9
ATOM      9  C   LIG d   1       2.908  87.047 111.731  0.00  0.00     0.028 C 
ATOM     10  C   LIG d   1       1.587  87.799 111.501  0.00  0.00     0.006 C 
ENDBRANCH   8   9
BRANCH   8  11
ATOM     11  C   LIG d   1       5.062  87.751 112.647  0.00  0.00     0.028 C 
ATOM     12  C   LIG d   1       5.529  89.157 113.054  0.00  0.00     0.006 C 
ENDBRANCH   8  11
ENDBRANCH   7   8
ENDBRANCH   1   7
BRANCH   6  13
ATOM     13  N   LIG d   1       5.241  86.553 116.424  0.00  0.00    -0.311 N 
ATOM     14  C   LIG d   1       6.537  86.850 116.341  0.00  0.00     0.210 C 
ATOM     15  C   LIG d   1       7.486  85.728 116.773  0.00  0.00     0.109 C 
ATOM     16  O   LIG d   1       6.990  87.947 115.982  0.00  0.00    -0.276 OA
ATOM     17  H   LIG d   1       4.962  85.651 116.757  0.00  0.00     0.149 HD
ENDBRANCH   6  13
BRANCH   5  18
ATOM     18  N   LIG d   1       4.560  89.134 117.910  0.00  0.00     0.381 N 
ATOM     19  H   LIG d   1       4.117  89.642 118.650  0.00  0.00    -0.090 HD
ATOM     20  H   LIG d   1       4.906  89.796 117.237  0.00  0.00    -0.090 HD
ATOM     21  H   LIG d   1       5.313  88.592 118.272  0.00  0.00    -0.090 HD
ENDBRANCH   5  18
BRANCH   3  22
ATOM     22  C   LIG d   1       0.150  88.860 116.061  0.00  0.00     0.382 C 
ATOM     23  O   LIG d   1      -0.111  90.066 116.287  0.00  0.00    -0.241 OA
ATOM     24  O   LIG d   1      -0.783  88.046 115.921  0.00  0.00    -0.241 OA
ENDBRANCH   3  22
TORSDOF 7
ENDMDL
MODEL 6
REMARK VINA RESULT:      -3.9      2.025      2.935
REMARK  7 active torsions:
REMARK  status: ('A' for Active; 'I' for Inactive)
REMARK    1  A    between atoms: C_2  and  C_3 
REMARK    2  A    between atoms: C_3  and  O_6 
REMARK    3  A    between atoms: C_3  and  C_4 
REMARK    4  A    between atoms: C_7  and  O_6 
REMARK    5  A    between atoms: C_9  and  C_10 
REMARK    6  A    between atoms: N_15  and  C_14 
REMARK    7  A    between atoms: N_20  and  C_19 
REMARK       I    between atoms: C_22  and  N_20 
ROOT
ATOM      1  C   LIG d   1       2.051  88.949 115.626  0.00  0.00     0.161 C 
ATOM      2  C   LIG d   1       1.685  88.491 114.349  0.00  0.00     0.016 C 
ATOM      3  C   LIG d   1       2.577  87.831 113.474  0.00  0.00     0.038 C 
ATOM      4  C   LIG d   1       3.864  87.446 113.879  0.00  0.00     0.028 C 
ATOM      5  C   LIG d   1       4.444  88.332 114.976  0.00  0.00    -0.047 C 
ATOM      6  C   LIG d   1       3.418  88.440 116.128  0.00  0.00     0.091 C 
ENDROOT
BRANCH   1   7
ATOM      7  O   LIG d   1       1.016  88.626 116.576  0.00  0.00    -0.368 OA
BRANCH   7   8
ATOM      8  C   LIG d   1       0.092  89.694 116.899  0.00  0.00     0.119 C 
BRANCH   8   9
ATOM      9  C   LIG d   1       0.306  90.059 118.381  0.00  0.00     0.028 C 
ATOM     10  C   LIG d   1       0.903  91.465 118.558  0.00  0.00     0.006 C 
ENDBRANCH   8   9
BRANCH   8  11
ATOM     11  C   LIG d   1      -1.362  89.220 116.804  0.00  0.00     0.028 C 
ATOM     12  C   LIG d   1      -2.298  89.976 117.760  0.00  0.00     0.006 C 
ENDBRANCH   8  11
ENDBRANCH   7   8
ENDBRANCH   1   7
BRANCH   6  13
ATOM     13  N   LIG d   1       3.871  89.357 117.206  0.00  0.00    -0.311 N 
ATOM     14  C   LIG d   1       4.218  90.626 116.992  0.00  0.00     0.210 C 
ATOM     15  C   LIG d   1       4.674  91.390 118.239  0.00  0.00     0.109 C 
ATOM     16  O   LIG d   1       4.159  91.199 115.894  0.00  0.00    -0.276 OA
ATOM     17  H   LIG d   1       3.918  88.983 118.133  0.00  0.00     0.149 HD
ENDBRANCH   6  13
BRANCH   5  18
ATOM     18  N   LIG d   1       5.726  87.737 115.398  0.00  0.00     0.381 N 
ATOM     19  H   LIG d   1       5.831  87.826 116.389  0.00  0.00    -0.090 HD
ATOM     20  H   LIG d   1       6.477  88.237 114.956  0.00  0.00    -0.090 HD
ATOM     21  H   LIG d   1       5.758  86.776 115.138  0.00  0.00    -0.090 HD
ENDBRANCH   5  18
BRANCH   3  22
ATOM     22  C   LIG d   1       2.198  87.583 112.163  0.00  0.00     0.382 C 
ATOM     23  O   LIG d   1       2.911  86.856 111.431  0.00  0.00    -0.241 OA
ATOM     24  O   LIG d   1       1.175  88.114 111.691  0.00  0.00    -0.241 OA
ENDBRANCH   3  22
TORSDOF 7
ENDMDL
MODEL 7
REMARK VINA RESULT:      -3.9      1.873      2.448
REMARK  7 active torsions:
REMARK  status: ('A' for Active; 'I' for Inactive)
REMARK    1  A    between atoms: C_2  and  C_3 
REMARK    2  A    between atoms: C_3  and  O_6 
REMARK    3  A    between atoms: C_3  and  C_4 
REMARK    4  A    between atoms: C_7  and  O_6 
REMARK    5  A    between atoms: C_9  and  C_10 
REMARK    6  A    between atoms: N_15  and  C_14 
REMARK    7  A    between atoms: N_20  and  C_19 
REMARK       I    between atoms: C_22  and  N_20 
ROOT
ATOM      1  C   LIG d   1       3.576  87.720 115.372  0.00  0.00     0.161 C 
ATOM      2  C   LIG d   1       2.773  87.223 114.333  0.00  0.00     0.016 C 
ATOM      3  C   LIG d   1       3.054  87.433 112.963  0.00  0.00     0.038 C 
ATOM      4  C   LIG d   1       4.249  88.030 112.535  0.00  0.00     0.028 C 
ATOM      5  C   LIG d   1       4.845  88.993 113.556  0.00  0.00    -0.047 C 
ATOM      6  C   LIG d   1       4.943  88.278 114.923  0.00  0.00     0.091 C 
ENDROOT
BRANCH   1   7
ATOM      7  O   LIG d   1       3.756  86.704 116.379  0.00  0.00    -0.368 OA
BRANCH   7   8
ATOM      8  C   LIG d   1       3.134  86.961 117.662  0.00  0.00     0.119 C 
BRANCH   8   9
ATOM      9  C   LIG d   1       2.285  85.726 118.020  0.00  0.00     0.028 C 
ATOM     10  C   LIG d   1       1.049  85.581 117.116  0.00  0.00     0.006 C 
ENDBRANCH   8   9
BRANCH   8  11
ATOM     11  C   LIG d   1       2.142  88.124 117.577  0.00  0.00     0.028 C 
ATOM     12  C   LIG d   1       2.328  89.150 118.707  0.00  0.00     0.006 C 
ENDBRANCH   8  11
ENDBRANCH   7   8
ENDBRANCH   1   7
BRANCH   6  13
ATOM     13  N   LIG d   1       5.438  89.176 115.999  0.00  0.00    -0.311 N 
ATOM     14  C   LIG d   1       4.900  90.365 116.266  0.00  0.00     0.210 C 
ATOM     15  C   LIG d   1       5.575  91.139 117.403  0.00  0.00     0.109 C 
ATOM     16  O   LIG d   1       3.907  90.838 115.692  0.00  0.00    -0.276 OA
ATOM     17  H   LIG d   1       6.220  88.857 116.535  0.00  0.00     0.149 HD
ENDBRANCH   6  13
BRANCH   5  18
ATOM     18  N   LIG d   1       6.154  89.436 113.040  0.00  0.00     0.381 N 
ATOM     19  H   LIG d   1       6.153  89.402 112.040  0.00  0.00    -0.090 HD
ATOM     20  H   LIG d   1       6.864  88.810 113.376  0.00  0.00    -0.090 HD
ATOM     21  H   LIG d   1       6.345  90.364 113.348  0.00  0.00    -0.090 HD
ENDBRANCH   5  18
BRANCH   3  22
ATOM     22  C   LIG d   1       2.115  87.079 112.007  0.00  0.00     0.382 C 
ATOM     23  O   LIG d   1       1.161  87.852 111.749  0.00  0.00    -0.241 OA
ATOM     24  O   LIG d   1       2.185  85.977 111.430  0.00  0.00    -0.241 OA
ENDBRANCH   3  22
TORSDOF 7
ENDMDL
MODEL 8
REMARK VINA RESULT:      -3.9      2.473      3.528
REMARK  7 active torsions:
REMARK  status: ('A' for Active; 'I' for Inactive)
REMARK    1  A    between atoms: C_2  and  C_3 
REMARK    2  A    between atoms: C_3  and  O_6 
REMARK    3  A    between atoms: C_3  and  C_4 
REMARK    4  A    between atoms: C_7  and  O_6 
REMARK    5  A    between atoms: C_9  and  C_10 
REMARK    6  A    between atoms: N_15  and  C_14 
REMARK    7  A    between atoms: N_20  and  C_19 
REMARK       I    between atoms: C_22  and  N_20 
ROOT
ATOM      1  C   LIG d   1       2.343  88.509 114.924  0.00  0.00     0.161 C 
ATOM      2  C   LIG d   1       2.649  87.710 113.809  0.00  0.00     0.016 C 
ATOM      3  C   LIG d   1       3.948  87.605 113.260  0.00  0.00     0.038 C 
ATOM      4  C   LIG d   1       5.065  88.177 113.885  0.00  0.00     0.028 C 
ATOM      5  C   LIG d   1       4.728  89.405 114.724  0.00  0.00    -0.047 C 
ATOM      6  C   LIG d   1       3.570  89.054 115.685  0.00  0.00     0.091 C 
ENDROOT
BRANCH   1   7
ATOM      7  O   LIG d   1       1.476  87.787 115.820  0.00  0.00    -0.368 OA
BRANCH   7   8
ATOM      8  C   LIG d   1       1.761  86.375 115.982  0.00  0.00     0.119 C 
BRANCH   8   9
ATOM      9  C   LIG d   1       0.427  85.665 116.280  0.00  0.00     0.028 C 
ATOM     10  C   LIG d   1      -0.410  85.431 115.012  0.00  0.00     0.006 C 
ENDBRANCH   8   9
BRANCH   8  11
ATOM     11  C   LIG d   1       2.639  86.122 117.211  0.00  0.00     0.028 C 
ATOM     12  C   LIG d   1       4.045  85.620 116.845  0.00  0.00     0.006 C 
ENDBRANCH   8  11
ENDBRANCH   7   8
ENDBRANCH   1   7
BRANCH   6  13
ATOM     13  N   LIG d   1       3.120  90.224 116.484  0.00  0.00    -0.311 N 
ATOM     14  C   LIG d   1       3.596  90.511 117.695  0.00  0.00     0.210 C 
ATOM     15  C   LIG d   1       2.982  91.751 118.352  0.00  0.00     0.109 C 
ATOM     16  O   LIG d   1       4.490  89.875 118.273  0.00  0.00    -0.276 OA
ATOM     17  H   LIG d   1       2.419  90.811 116.077  0.00  0.00     0.149 HD
ENDBRANCH   6  13
BRANCH   5  18
ATOM     18  N   LIG d   1       5.958  89.817 115.427  0.00  0.00     0.381 N 
ATOM     19  H   LIG d   1       5.722  90.368 116.228  0.00  0.00    -0.090 HD
ATOM     20  H   LIG d   1       6.512  90.382 114.807  0.00  0.00    -0.090 HD
ATOM     21  H   LIG d   1       6.475  89.014 115.708  0.00  0.00    -0.090 HD
ENDBRANCH   5  18
BRANCH   3  22
ATOM     22  C   LIG d   1       4.131  86.953 112.051  0.00  0.00     0.382 C 
ATOM     23  O   LIG d   1       5.247  86.995 111.479  0.00  0.00    -0.241 OA
ATOM     24  O   LIG d   1       3.183  86.360 111.502  0.00  0.00    -0.241 OA
ENDBRANCH   3  22
TORSDOF 7
ENDMDL
MODEL 9
REMARK VINA RESULT:      -3.8      2.200      3.376
REMARK  7 active torsions:
REMARK  status: ('A' for Active; 'I' for Inactive)
REMARK    1  A    between atoms: C_2  and  C_3 
REMARK    2  A    between atoms: C_3  and  O_6 
REMARK    3  A    between atoms: C_3  and  C_4 
REMARK    4  A    between atoms: C_7  and  O_6 
REMARK    5  A    between atoms: C_9  and  C_10 
REMARK    6  A    between atoms: N_15  and  C_14 
REMARK    7  A    between atoms: N_20  and  C_19 
REMARK       I    between atoms: C_22  and  N_20 
ROOT
ATOM      1  C   LIG d   1       2.871  88.020 115.412  0.00  0.00     0.161 C 
ATOM      2  C   LIG d   1       3.039  87.508 114.115  0.00  0.00     0.016 C 
ATOM      3  C   LIG d   1       4.270  87.540 113.419  0.00  0.00     0.038 C 
ATOM      4  C   LIG d   1       5.460  87.952 114.036  0.00  0.00     0.028 C 
ATOM      5  C   LIG d   1       5.241  88.947 115.171  0.00  0.00    -0.047 C 
ATOM      6  C   LIG d   1       4.184  88.374 116.143  0.00  0.00     0.091 C 
ENDROOT
BRANCH   1   7
ATOM      7  O   LIG d   1       2.089  87.103 116.202  0.00  0.00    -0.368 OA
BRANCH   7   8
ATOM      8  C   LIG d   1       0.774  87.565 116.599  0.00  0.00     0.119 C 
BRANCH   8   9
ATOM      9  C   LIG d   1      -0.261  86.628 115.948  0.00  0.00     0.028 C 
ATOM     10  C   LIG d   1       0.395  85.430 115.240  0.00  0.00     0.006 C 
ENDBRANCH   8   9
BRANCH   8  11
ATOM     11  C   LIG d   1       0.477  88.955 116.030  0.00  0.00     0.028 C 
ATOM     12  C   LIG d   1      -0.576  89.721 116.848  0.00  0.00     0.006 C 
ENDBRANCH   8  11
ENDBRANCH   7   8
ENDBRANCH   1   7
BRANCH   6  13
ATOM     13  N   LIG d   1       3.848  89.321 117.238  0.00  0.00    -0.311 N 
ATOM     14  C   LIG d   1       3.778  90.640 117.070  0.00  0.00     0.210 C 
ATOM     15  C   LIG d   1       3.436  91.435 118.334  0.00  0.00     0.109 C 
ATOM     16  O   LIG d   1       3.934  91.225 115.988  0.00  0.00    -0.276 OA
ATOM     17  H   LIG d   1       3.675  88.929 118.143  0.00  0.00     0.149 HD
ENDBRANCH   6  13
BRANCH   5  18
ATOM     18  N   LIG d   1       6.547  89.185 115.813  0.00  0.00     0.381 N 
ATOM     19  H   LIG d   1       6.651  90.159 116.017  0.00  0.00    -0.090 HD
ATOM     20  H   LIG d   1       7.276  88.917 115.176  0.00  0.00    -0.090 HD
ATOM     21  H   LIG d   1       6.617  88.653 116.653  0.00  0.00    -0.090 HD
ENDBRANCH   5  18
BRANCH   3  22
ATOM     22  C   LIG d   1       4.310  87.192 112.077  0.00  0.00     0.382 C 
ATOM     23  O   LIG d   1       3.242  87.067 111.430  0.00  0.00    -0.241 OA
ATOM     24  O   LIG d   1       5.397  86.959 111.517  0.00  0.00    -0.241 OA
ENDBRANCH   3  22
TORSDOF 7
ENDMDL
