MODEL 1
REMARK VINA RESULT:      -5.0      0.000      0.000
REMARK  7 active torsions:
REMARK  status: ('A' for Active; 'I' for Inactive)
REMARK    1  A    between atoms: C_2  and  C_3 
REMARK    2  A    between atoms: C_3  and  O_6 
REMARK    3  A    between atoms: C_3  and  C_4 
REMARK    4  A    between atoms: C_7  and  O_6 
REMARK    5  A    between atoms: C_9  and  C_10 
REMARK    6  A    between atoms: N_15  and  C_14 
REMARK    7  A    between atoms: N_20  and  C_19 
REMARK       I    between atoms: C_22  and  N_20 
ROOT
ATOM      1  C   LIG d   1       0.644  89.428 116.833  0.00  0.00     0.161 C 
ATOM      2  C   LIG d   1      -0.739  89.182 116.854  0.00  0.00     0.016 C 
ATOM      3  C   LIG d   1      -1.671  90.031 117.493  0.00  0.00     0.038 C 
ATOM      4  C   LIG d   1      -1.297  91.272 118.030  0.00  0.00     0.028 C 
ATOM      5  C   LIG d   1       0.161  91.324 118.476  0.00  0.00    -0.047 C 
ATOM      6  C   LIG d   1       1.058  90.833 117.317  0.00  0.00     0.091 C 
ENDROOT
BRANCH   1   7
ATOM      7  O   LIG d   1       1.164  89.179 115.512  0.00  0.00    -0.368 OA
BRANCH   7   8
ATOM      8  C   LIG d   1       2.194  88.164 115.413  0.00  0.00     0.119 C 
BRANCH   8   9
ATOM      9  C   LIG d   1       3.036  88.479 114.162  0.00  0.00     0.028 C 
ATOM     10  C   LIG d   1       4.111  89.546 114.432  0.00  0.00     0.006 C 
ENDBRANCH   8   9
BRANCH   8  11
ATOM     11  C   LIG d   1       1.589  86.780 115.157  0.00  0.00     0.028 C 
ATOM     12  C   LIG d   1       1.874  86.259 113.740  0.00  0.00     0.006 C 
ENDBRANCH   8  11
ENDBRANCH   7   8
ENDBRANCH   1   7
BRANCH   6  13
ATOM     13  N   LIG d   1       2.493  90.772 117.698  0.00  0.00    -0.311 N 
ATOM     14  C   LIG d   1       3.339  91.788 117.533  0.00  0.00     0.210 C 
ATOM     15  C   LIG d   1       4.779  91.508 117.974  0.00  0.00     0.109 C 
ATOM     16  O   LIG d   1       3.026  92.905 117.093  0.00  0.00    -0.276 OA
ATOM     17  H   LIG d   1       2.825  89.914 118.091  0.00  0.00     0.149 HD
ENDBRANCH   6  13
BRANCH   5  18
ATOM     18  N   LIG d   1       0.452  92.711 118.885  0.00  0.00     0.381 N 
ATOM     19  H   LIG d   1       0.641  92.742 119.867  0.00  0.00    -0.090 HD
ATOM     20  H   LIG d   1      -0.355  93.281 118.701  0.00  0.00    -0.090 HD
ATOM     21  H   LIG d   1       1.236  93.059 118.378  0.00  0.00    -0.090 HD
ENDBRANCH   5  18
BRANCH   3  22
ATOM     22  C   LIG d   1      -2.988  89.623 117.636  0.00  0.00     0.382 C 
ATOM     23  O   LIG d   1      -3.324  88.920 118.619  0.00  0.00    -0.241 OA
ATOM     24  O   LIG d   1      -3.836  89.911 116.770  0.00  0.00    -0.241 OA
ENDBRANCH   3  22
TORSDOF 7
ENDMDL
MODEL 2
REMARK VINA RESULT:      -5.0      1.656      2.022
REMARK  7 active torsions:
REMARK  status: ('A' for Active; 'I' for Inactive)
REMARK    1  A    between atoms: C_2  and  C_3 
REMARK    2  A    between atoms: C_3  and  O_6 
REMARK    3  A    between atoms: C_3  and  C_4 
REMARK    4  A    between atoms: C_7  and  O_6 
REMARK    5  A    between atoms: C_9  and  C_10 
REMARK    6  A    between atoms: N_15  and  C_14 
REMARK    7  A    between atoms: N_20  and  C_19 
REMARK       I    between atoms: C_22  and  N_20 
ROOT
ATOM      1  C   LIG d   1       0.904  88.737 116.506  0.00  0.00     0.161 C 
ATOM      2  C   LIG d   1      -0.471  88.848 116.769  0.00  0.00     0.016 C 
ATOM      3  C   LIG d   1      -1.081  90.037 117.232  0.00  0.00     0.038 C 
ATOM      4  C   LIG d   1      -0.376  91.246 117.320  0.00  0.00     0.028 C 
ATOM      5  C   LIG d   1       1.120  91.060 117.547  0.00  0.00    -0.047 C 
ATOM      6  C   LIG d   1       1.670  90.077 116.489  0.00  0.00     0.091 C 
ENDROOT
BRANCH   1   7
ATOM      7  O   LIG d   1       1.109  88.028 115.268  0.00  0.00    -0.368 OA
BRANCH   7   8
ATOM      8  C   LIG d   1       1.297  86.595 115.377  0.00  0.00     0.119 C 
BRANCH   8   9
ATOM      9  C   LIG d   1       2.811  86.333 115.484  0.00  0.00     0.028 C 
ATOM     10  C   LIG d   1       3.531  86.493 114.134  0.00  0.00     0.006 C 
ENDBRANCH   8   9
BRANCH   8  11
ATOM     11  C   LIG d   1       0.849  85.876 114.102  0.00  0.00     0.028 C 
ATOM     12  C   LIG d   1      -0.638  85.489 114.126  0.00  0.00     0.006 C 
ENDBRANCH   8  11
ENDBRANCH   7   8
ENDBRANCH   1   7
BRANCH   6  13
ATOM     13  N   LIG d   1       3.111  89.774 116.692  0.00  0.00    -0.311 N 
ATOM     14  C   LIG d   1       4.012  89.806 115.711  0.00  0.00     0.210 C 
ATOM     15  C   LIG d   1       5.439  89.441 116.132  0.00  0.00     0.109 C 
ATOM     16  O   LIG d   1       3.770  90.134 114.540  0.00  0.00    -0.276 OA
ATOM     17  H   LIG d   1       3.399  89.529 117.619  0.00  0.00     0.149 HD
ENDBRANCH   6  13
BRANCH   5  18
ATOM     18  N   LIG d   1       1.750  92.393 117.481  0.00  0.00     0.381 N 
ATOM     19  H   LIG d   1       1.124  93.082 117.847  0.00  0.00    -0.090 HD
ATOM     20  H   LIG d   1       1.937  92.616 116.519  0.00  0.00    -0.090 HD
ATOM     21  H   LIG d   1       2.599  92.395 118.001  0.00  0.00    -0.090 HD
ENDBRANCH   5  18
BRANCH   3  22
ATOM     22  C   LIG d   1      -2.403  90.012 117.651  0.00  0.00     0.382 C 
ATOM     23  O   LIG d   1      -3.005  91.087 117.888  0.00  0.00    -0.241 OA
ATOM     24  O   LIG d   1      -2.986  88.928 117.838  0.00  0.00    -0.241 OA
ENDBRANCH   3  22
TORSDOF 7
ENDMDL
MODEL 3
REMARK VINA RESULT:      -4.6      3.311      5.939
REMARK  7 active torsions:
REMARK  status: ('A' for Active; 'I' for Inactive)
REMARK    1  A    between atoms: C_2  and  C_3 
REMARK    2  A    between atoms: C_3  and  O_6 
REMARK    3  A    between atoms: C_3  and  C_4 
REMARK    4  A    between atoms: C_7  and  O_6 
REMARK    5  A    between atoms: C_9  and  C_10 
REMARK    6  A    between atoms: N_15  and  C_14 
REMARK    7  A    between atoms: N_20  and  C_19 
REMARK       I    between atoms: C_22  and  N_20 
ROOT
ATOM      1  C   LIG d   1       4.353  90.430 116.399  0.00  0.00     0.161 C 
ATOM      2  C   LIG d   1       3.343  89.794 115.658  0.00  0.00     0.016 C 
ATOM      3  C   LIG d   1       3.492  88.512 115.080  0.00  0.00     0.038 C 
ATOM      4  C   LIG d   1       4.615  87.710 115.334  0.00  0.00     0.028 C 
ATOM      5  C   LIG d   1       5.871  88.512 115.658  0.00  0.00    -0.047 C 
ATOM      6  C   LIG d   1       5.544  89.525 116.779  0.00  0.00     0.091 C 
ENDROOT
BRANCH   1   7
ATOM      7  O   LIG d   1       3.787  91.035 117.578  0.00  0.00    -0.368 OA
BRANCH   7   8
ATOM      8  C   LIG d   1       3.053  92.267 117.372  0.00  0.00     0.119 C 
BRANCH   8   9
ATOM      9  C   LIG d   1       3.918  93.418 117.922  0.00  0.00     0.028 C 
ATOM     10  C   LIG d   1       4.975  92.930 118.927  0.00  0.00     0.006 C 
ENDBRANCH   8   9
BRANCH   8  11
ATOM     11  C   LIG d   1       1.766  92.295 118.202  0.00  0.00     0.028 C 
ATOM     12  C   LIG d   1       0.634  91.467 117.574  0.00  0.00     0.006 C 
ENDBRANCH   8  11
ENDBRANCH   7   8
ENDBRANCH   1   7
BRANCH   6  13
ATOM     13  N   LIG d   1       6.696  90.408 117.099  0.00  0.00    -0.311 N 
ATOM     14  C   LIG d   1       7.574  90.146 118.066  0.00  0.00     0.210 C 
ATOM     15  C   LIG d   1       8.674  91.197 118.242  0.00  0.00     0.109 C 
ATOM     16  O   LIG d   1       7.564  89.127 118.773  0.00  0.00    -0.276 OA
ATOM     17  H   LIG d   1       6.797  91.241 116.554  0.00  0.00     0.149 HD
ENDBRANCH   6  13
BRANCH   5  18
ATOM     18  N   LIG d   1       6.927  87.554 116.035  0.00  0.00     0.381 N 
ATOM     19  H   LIG d   1       6.689  86.640 115.703  0.00  0.00    -0.090 HD
ATOM     20  H   LIG d   1       6.991  87.518 117.037  0.00  0.00    -0.090 HD
ATOM     21  H   LIG d   1       7.800  87.838 115.648  0.00  0.00    -0.090 HD
ENDBRANCH   5  18
BRANCH   3  22
ATOM     22  C   LIG d   1       2.527  88.036 114.206  0.00  0.00     0.382 C 
ATOM     23  O   LIG d   1       2.444  88.508 113.046  0.00  0.00    -0.241 OA
ATOM     24  O   LIG d   1       1.709  87.173 114.577  0.00  0.00    -0.241 OA
ENDBRANCH   3  22
TORSDOF 7
ENDMDL
MODEL 4
REMARK VINA RESULT:      -4.3      3.154      6.360
REMARK  7 active torsions:
REMARK  status: ('A' for Active; 'I' for Inactive)
REMARK    1  A    between atoms: C_2  and  C_3 
REMARK    2  A    between atoms: C_3  and  O_6 
REMARK    3  A    between atoms: C_3  and  C_4 
REMARK    4  A    between atoms: C_7  and  O_6 
REMARK    5  A    between atoms: C_9  and  C_10 
REMARK    6  A    between atoms: N_15  and  C_14 
REMARK    7  A    between atoms: N_20  and  C_19 
REMARK       I    between atoms: C_22  and  N_20 
ROOT
ATOM      1  C   LIG d   1       3.619  88.124 117.003  0.00  0.00     0.161 C 
ATOM      2  C   LIG d   1       4.396  88.856 117.916  0.00  0.00     0.016 C 
ATOM      3  C   LIG d   1       5.451  89.714 117.528  0.00  0.00     0.038 C 
ATOM      4  C   LIG d   1       5.703  90.016 116.181  0.00  0.00     0.028 C 
ATOM      5  C   LIG d   1       5.272  88.912 115.222  0.00  0.00    -0.047 C 
ATOM      6  C   LIG d   1       3.807  88.526 115.526  0.00  0.00     0.091 C 
ENDROOT
BRANCH   1   7
ATOM      7  O   LIG d   1       2.228  88.204 117.372  0.00  0.00    -0.368 OA
BRANCH   7   8
ATOM      8  C   LIG d   1       1.457  89.246 116.726  0.00  0.00     0.119 C 
BRANCH   8   9
ATOM      9  C   LIG d   1       1.274  90.387 117.747  0.00  0.00     0.028 C 
ATOM     10  C   LIG d   1       2.024  91.666 117.338  0.00  0.00     0.006 C 
ENDBRANCH   8   9
BRANCH   8  11
ATOM     11  C   LIG d   1       0.040  88.768 116.396  0.00  0.00     0.028 C 
ATOM     12  C   LIG d   1      -1.043  89.524 117.182  0.00  0.00     0.006 C 
ENDBRANCH   8  11
ENDBRANCH   7   8
ENDBRANCH   1   7
BRANCH   6  13
ATOM     13  N   LIG d   1       3.333  87.394 114.688  0.00  0.00    -0.311 N 
ATOM     14  C   LIG d   1       2.668  87.555 113.545  0.00  0.00     0.210 C 
ATOM     15  C   LIG d   1       2.255  86.255 112.848  0.00  0.00     0.109 C 
ATOM     16  O   LIG d   1       2.410  88.651 113.026  0.00  0.00    -0.276 OA
ATOM     17  H   LIG d   1       3.528  86.469 115.018  0.00  0.00     0.149 HD
ENDBRANCH   6  13
BRANCH   5  18
ATOM     18  N   LIG d   1       5.465  89.415 113.848  0.00  0.00     0.381 N 
ATOM     19  H   LIG d   1       4.727  90.049 113.613  0.00  0.00    -0.090 HD
ATOM     20  H   LIG d   1       5.429  88.639 113.210  0.00  0.00    -0.090 HD
ATOM     21  H   LIG d   1       6.345  89.875 113.774  0.00  0.00    -0.090 HD
ENDBRANCH   5  18
BRANCH   3  22
ATOM     22  C   LIG d   1       6.292  90.249 118.491  0.00  0.00     0.382 C 
ATOM     23  O   LIG d   1       6.116  91.424 118.895  0.00  0.00    -0.241 OA
ATOM     24  O   LIG d   1       7.252  89.587 118.930  0.00  0.00    -0.241 OA
ENDBRANCH   3  22
TORSDOF 7
ENDMDL
MODEL 5
REMARK VINA RESULT:      -4.3      1.946      5.041
REMARK  7 active torsions:
REMARK  status: ('A' for Active; 'I' for Inactive)
REMARK    1  A    between atoms: C_2  and  C_3 
REMARK    2  A    between atoms: C_3  and  O_6 
REMARK    3  A    between atoms: C_3  and  C_4 
REMARK    4  A    between atoms: C_7  and  O_6 
REMARK    5  A    between atoms: C_9  and  C_10 
REMARK    6  A    between atoms: N_15  and  C_14 
REMARK    7  A    between atoms: N_20  and  C_19 
REMARK       I    between atoms: C_22  and  N_20 
ROOT
ATOM      1  C   LIG d   1       0.945  88.910 115.773  0.00  0.00     0.161 C 
ATOM      2  C   LIG d   1       2.334  89.103 115.691  0.00  0.00     0.016 C 
ATOM      3  C   LIG d   1       3.039  90.033 116.489  0.00  0.00     0.038 C 
ATOM      4  C   LIG d   1       2.420  90.731 117.537  0.00  0.00     0.028 C 
ATOM      5  C   LIG d   1       0.925  90.941 117.323  0.00  0.00    -0.047 C 
ATOM      6  C   LIG d   1       0.270  89.582 116.987  0.00  0.00     0.091 C 
ENDROOT
BRANCH   1   7
ATOM      7  O   LIG d   1       0.645  87.501 115.750  0.00  0.00    -0.368 OA
BRANCH   7   8
ATOM      8  C   LIG d   1       1.654  86.644 115.160  0.00  0.00     0.119 C 
BRANCH   8   9
ATOM      9  C   LIG d   1       1.039  86.006 113.899  0.00  0.00     0.028 C 
ATOM     10  C   LIG d   1      -0.364  85.430 114.157  0.00  0.00     0.006 C 
ENDBRANCH   8   9
BRANCH   8  11
ATOM     11  C   LIG d   1       1.997  85.471 116.082  0.00  0.00     0.028 C 
ATOM     12  C   LIG d   1       2.722  85.913 117.364  0.00  0.00     0.006 C 
ENDBRANCH   8  11
ENDBRANCH   7   8
ENDBRANCH   1   7
BRANCH   6  13
ATOM     13  N   LIG d   1      -1.179  89.712 116.681  0.00  0.00    -0.311 N 
ATOM     14  C   LIG d   1      -2.138  89.545 117.589  0.00  0.00     0.210 C 
ATOM     15  C   LIG d   1      -3.566  89.703 117.059  0.00  0.00     0.109 C 
ATOM     16  O   LIG d   1      -1.941  89.312 118.791  0.00  0.00    -0.276 OA
ATOM     17  H   LIG d   1      -1.428  89.930 115.736  0.00  0.00     0.149 HD
ENDBRANCH   6  13
BRANCH   5  18
ATOM     18  N   LIG d   1       0.382  91.557 118.549  0.00  0.00     0.381 N 
ATOM     19  H   LIG d   1       1.042  91.465 119.295  0.00  0.00    -0.090 HD
ATOM     20  H   LIG d   1      -0.459  91.073 118.811  0.00  0.00    -0.090 HD
ATOM     21  H   LIG d   1       0.184  92.520 118.388  0.00  0.00    -0.090 HD
ENDBRANCH   5  18
BRANCH   3  22
ATOM     22  C   LIG d   1       4.372  90.302 116.216  0.00  0.00     0.382 C 
ATOM     23  O   LIG d   1       4.853  90.011 115.095  0.00  0.00    -0.241 OA
ATOM     24  O   LIG d   1       5.110  90.792 117.092  0.00  0.00    -0.241 OA
ENDBRANCH   3  22
TORSDOF 7
ENDMDL
MODEL 6
REMARK VINA RESULT:      -4.3      2.573      6.309
REMARK  7 active torsions:
REMARK  status: ('A' for Active; 'I' for Inactive)
REMARK    1  A    between atoms: C_2  and  C_3 
REMARK    2  A    between atoms: C_3  and  O_6 
REMARK    3  A    between atoms: C_3  and  C_4 
REMARK    4  A    between atoms: C_7  and  O_6 
REMARK    5  A    between atoms: C_9  and  C_10 
REMARK    6  A    between atoms: N_15  and  C_14 
REMARK    7  A    between atoms: N_20  and  C_19 
REMARK       I    between atoms: C_22  and  N_20 
ROOT
ATOM      1  C   LIG d   1       1.887  89.003 116.364  0.00  0.00     0.161 C 
ATOM      2  C   LIG d   1       2.557  90.007 117.084  0.00  0.00     0.016 C 
ATOM      3  C   LIG d   1       3.872  90.432 116.786  0.00  0.00     0.038 C 
ATOM      4  C   LIG d   1       4.556  89.984 115.646  0.00  0.00     0.028 C 
ATOM      5  C   LIG d   1       4.116  88.600 115.181  0.00  0.00    -0.047 C 
ATOM      6  C   LIG d   1       2.575  88.582 115.049  0.00  0.00     0.091 C 
ENDROOT
BRANCH   1   7
ATOM      7  O   LIG d   1       0.527  89.408 116.111  0.00  0.00    -0.368 OA
BRANCH   7   8
ATOM      8  C   LIG d   1      -0.232  89.847 117.263  0.00  0.00     0.119 C 
BRANCH   8   9
ATOM      9  C   LIG d   1      -1.652  89.261 117.133  0.00  0.00     0.028 C 
ATOM     10  C   LIG d   1      -2.409  89.256 118.472  0.00  0.00     0.006 C 
ENDBRANCH   8   9
BRANCH   8  11
ATOM     11  C   LIG d   1      -0.420  91.367 117.261  0.00  0.00     0.028 C 
ATOM     12  C   LIG d   1       0.025  92.025 118.576  0.00  0.00     0.006 C 
ENDBRANCH   8  11
ENDBRANCH   7   8
ENDBRANCH   1   7
BRANCH   6  13
ATOM     13  N   LIG d   1       2.054  87.240 114.679  0.00  0.00    -0.311 N 
ATOM     14  C   LIG d   1       1.877  86.844 113.420  0.00  0.00     0.210 C 
ATOM     15  C   LIG d   1       1.310  85.430 113.260  0.00  0.00     0.109 C 
ATOM     16  O   LIG d   1       2.164  87.519 112.419  0.00  0.00    -0.276 OA
ATOM     17  H   LIG d   1       1.825  86.617 115.428  0.00  0.00     0.149 HD
ENDBRANCH   6  13
BRANCH   5  18
ATOM     18  N   LIG d   1       4.808  88.317 113.909  0.00  0.00     0.381 N 
ATOM     19  H   LIG d   1       5.177  89.165 113.528  0.00  0.00    -0.090 HD
ATOM     20  H   LIG d   1       4.145  87.940 113.255  0.00  0.00    -0.090 HD
ATOM     21  H   LIG d   1       5.545  87.663 114.060  0.00  0.00    -0.090 HD
ENDBRANCH   5  18
BRANCH   3  22
ATOM     22  C   LIG d   1       4.532  91.286 117.657  0.00  0.00     0.382 C 
ATOM     23  O   LIG d   1       4.091  92.444 117.854  0.00  0.00    -0.241 OA
ATOM     24  O   LIG d   1       5.587  90.928 118.215  0.00  0.00    -0.241 OA
ENDBRANCH   3  22
TORSDOF 7
ENDMDL
MODEL 7
REMARK VINA RESULT:      -4.2      2.706      5.549
REMARK  7 active torsions:
REMARK  status: ('A' for Active; 'I' for Inactive)
REMARK    1  A    between atoms: C_2  and  C_3 
REMARK    2  A    between atoms: C_3  and  O_6 
REMARK    3  A    between atoms: C_3  and  C_4 
REMARK    4  A    between atoms: C_7  and  O_6 
REMARK    5  A    between atoms: C_9  and  C_10 
REMARK    6  A    between atoms: N_15  and  C_14 
REMARK    7  A    between atoms: N_20  and  C_19 
REMARK       I    between atoms: C_22  and  N_20 
ROOT
ATOM      1  C   LIG d   1       2.632  88.985 116.377  0.00  0.00     0.161 C 
ATOM      2  C   LIG d   1       2.086  88.171 115.371  0.00  0.00     0.016 C 
ATOM      3  C   LIG d   1       2.871  87.466 114.429  0.00  0.00     0.038 C 
ATOM      4  C   LIG d   1       4.269  87.406 114.525  0.00  0.00     0.028 C 
ATOM      5  C   LIG d   1       4.880  88.619 115.219  0.00  0.00    -0.047 C 
ATOM      6  C   LIG d   1       4.157  88.843 116.566  0.00  0.00     0.091 C 
ENDROOT
BRANCH   1   7
ATOM      7  O   LIG d   1       1.949  88.746 117.623  0.00  0.00    -0.368 OA
BRANCH   7   8
ATOM      8  C   LIG d   1       1.265  89.883 118.204  0.00  0.00     0.119 C 
BRANCH   8   9
ATOM      9  C   LIG d   1      -0.216  89.495 118.377  0.00  0.00     0.028 C 
ATOM     10  C   LIG d   1      -0.987  89.515 117.046  0.00  0.00     0.006 C 
ENDBRANCH   8   9
BRANCH   8  11
ATOM     11  C   LIG d   1       1.261  91.079 117.246  0.00  0.00     0.028 C 
ATOM     12  C   LIG d   1       1.900  92.335 117.860  0.00  0.00     0.006 C 
ENDBRANCH   8  11
ENDBRANCH   7   8
ENDBRANCH   1   7
BRANCH   6  13
ATOM     13  N   LIG d   1       4.638  90.060 117.271  0.00  0.00    -0.311 N 
ATOM     14  C   LIG d   1       5.595  90.042 118.197  0.00  0.00     0.210 C 
ATOM     15  C   LIG d   1       5.925  91.404 118.814  0.00  0.00     0.109 C 
ATOM     16  O   LIG d   1       6.225  89.031 118.543  0.00  0.00    -0.276 OA
ATOM     17  H   LIG d   1       4.203  90.929 117.030  0.00  0.00     0.149 HD
ENDBRANCH   6  13
BRANCH   5  18
ATOM     18  N   LIG d   1       6.325  88.362 115.373  0.00  0.00     0.381 N 
ATOM     19  H   LIG d   1       6.491  87.377 115.422  0.00  0.00    -0.090 HD
ATOM     20  H   LIG d   1       6.639  88.777 116.233  0.00  0.00    -0.090 HD
ATOM     21  H   LIG d   1       6.825  88.753 114.605  0.00  0.00    -0.090 HD
ENDBRANCH   5  18
BRANCH   3  22
ATOM     22  C   LIG d   1       2.257  86.843 113.353  0.00  0.00     0.382 C 
ATOM     23  O   LIG d   1       2.070  87.475 112.285  0.00  0.00    -0.241 OA
ATOM     24  O   LIG d   1       1.849  85.670 113.451  0.00  0.00    -0.241 OA
ENDBRANCH   3  22
TORSDOF 7
ENDMDL
MODEL 8
REMARK VINA RESULT:      -4.2      2.105      5.201
REMARK  7 active torsions:
REMARK  status: ('A' for Active; 'I' for Inactive)
REMARK    1  A    between atoms: C_2  and  C_3 
REMARK    2  A    between atoms: C_3  and  O_6 
REMARK    3  A    between atoms: C_3  and  C_4 
REMARK    4  A    between atoms: C_7  and  O_6 
REMARK    5  A    between atoms: C_9  and  C_10 
REMARK    6  A    between atoms: N_15  and  C_14 
REMARK    7  A    between atoms: N_20  and  C_19 
REMARK       I    between atoms: C_22  and  N_20 
ROOT
ATOM      1  C   LIG d   1       1.659  89.370 116.600  0.00  0.00     0.161 C 
ATOM      2  C   LIG d   1       1.422  88.178 115.896  0.00  0.00     0.016 C 
ATOM      3  C   LIG d   1       2.400  87.536 115.102  0.00  0.00     0.038 C 
ATOM      4  C   LIG d   1       3.736  87.966 115.080  0.00  0.00     0.028 C 
ATOM      5  C   LIG d   1       3.899  89.453 115.373  0.00  0.00    -0.047 C 
ATOM      6  C   LIG d   1       3.141  89.793 116.677  0.00  0.00     0.091 C 
ENDROOT
BRANCH   1   7
ATOM      7  O   LIG d   1       1.096  89.276 117.924  0.00  0.00    -0.368 OA
BRANCH   7   8
ATOM      8  C   LIG d   1      -0.093  90.067 118.169  0.00  0.00     0.119 C 
BRANCH   8   9
ATOM      9  C   LIG d   1      -1.280  89.334 117.515  0.00  0.00     0.028 C 
ATOM     10  C   LIG d   1      -2.502  89.250 118.444  0.00  0.00     0.006 C 
ENDBRANCH   8   9
BRANCH   8  11
ATOM     11  C   LIG d   1      -0.015  91.424 117.462  0.00  0.00     0.028 C 
ATOM     12  C   LIG d   1       0.126  92.599 118.441  0.00  0.00     0.006 C 
ENDBRANCH   8  11
ENDBRANCH   7   8
ENDBRANCH   1   7
BRANCH   6  13
ATOM     13  N   LIG d   1       3.178  91.245 116.992  0.00  0.00    -0.311 N 
ATOM     14  C   LIG d   1       4.085  91.797 117.797  0.00  0.00     0.210 C 
ATOM     15  C   LIG d   1       3.932  93.307 118.003  0.00  0.00     0.109 C 
ATOM     16  O   LIG d   1       5.021  91.185 118.334  0.00  0.00    -0.276 OA
ATOM     17  H   LIG d   1       2.474  91.821 116.574  0.00  0.00     0.149 HD
ENDBRANCH   6  13
BRANCH   5  18
ATOM     18  N   LIG d   1       5.344  89.736 115.454  0.00  0.00     0.381 N 
ATOM     19  H   LIG d   1       5.783  89.082 116.071  0.00  0.00    -0.090 HD
ATOM     20  H   LIG d   1       5.474  90.659 115.828  0.00  0.00    -0.090 HD
ATOM     21  H   LIG d   1       5.754  89.676 114.548  0.00  0.00    -0.090 HD
ENDBRANCH   5  18
BRANCH   3  22
ATOM     22  C   LIG d   1       2.036  86.475 114.288  0.00  0.00     0.382 C 
ATOM     23  O   LIG d   1       2.870  85.577 114.018  0.00  0.00    -0.241 OA
ATOM     24  O   LIG d   1       0.898  86.427 113.784  0.00  0.00    -0.241 OA
ENDBRANCH   3  22
TORSDOF 7
ENDMDL
MODEL 9
REMARK VINA RESULT:      -4.1      3.692      5.432
REMARK  7 active torsions:
REMARK  status: ('A' for Active; 'I' for Inactive)
REMARK    1  A    between atoms: C_2  and  C_3 
REMARK    2  A    between atoms: C_3  and  O_6 
REMARK    3  A    between atoms: C_3  and  C_4 
REMARK    4  A    between atoms: C_7  and  O_6 
REMARK    5  A    between atoms: C_9  and  C_10 
REMARK    6  A    between atoms: N_15  and  C_14 
REMARK    7  A    between atoms: N_20  and  C_19 
REMARK       I    between atoms: C_22  and  N_20 
ROOT
ATOM      1  C   LIG d   1       4.104  87.882 117.340  0.00  0.00     0.161 C 
ATOM      2  C   LIG d   1       3.248  88.979 117.149  0.00  0.00     0.016 C 
ATOM      3  C   LIG d   1       3.704  90.314 117.049  0.00  0.00     0.038 C 
ATOM      4  C   LIG d   1       5.069  90.628 116.983  0.00  0.00     0.028 C 
ATOM      5  C   LIG d   1       5.961  89.604 117.678  0.00  0.00    -0.047 C 
ATOM      6  C   LIG d   1       5.604  88.193 117.158  0.00  0.00     0.091 C 
ENDROOT
BRANCH   1   7
ATOM      7  O   LIG d   1       3.709  86.798 116.476  0.00  0.00    -0.368 OA
BRANCH   7   8
ATOM      8  C   LIG d   1       2.753  87.126 115.438  0.00  0.00     0.119 C 
BRANCH   8   9
ATOM      9  C   LIG d   1       1.591  86.119 115.544  0.00  0.00     0.028 C 
ATOM     10  C   LIG d   1       0.997  85.762 114.172  0.00  0.00     0.006 C 
ENDBRANCH   8   9
BRANCH   8  11
ATOM     11  C   LIG d   1       3.349  86.911 114.043  0.00  0.00     0.028 C 
ATOM     12  C   LIG d   1       4.404  87.967 113.677  0.00  0.00     0.006 C 
ENDBRANCH   8  11
ENDBRANCH   7   8
ENDBRANCH   1   7
BRANCH   6  13
ATOM     13  N   LIG d   1       6.372  87.124 117.849  0.00  0.00    -0.311 N 
ATOM     14  C   LIG d   1       7.531  86.647 117.399  0.00  0.00     0.210 C 
ATOM     15  C   LIG d   1       8.146  85.532 118.251  0.00  0.00     0.109 C 
ATOM     16  O   LIG d   1       8.125  87.063 116.392  0.00  0.00    -0.276 OA
ATOM     17  H   LIG d   1       5.979  86.750 118.690  0.00  0.00     0.149 HD
ENDBRANCH   6  13
BRANCH   5  18
ATOM     18  N   LIG d   1       7.362  89.981 117.414  0.00  0.00     0.381 N 
ATOM     19  H   LIG d   1       7.506  90.941 117.656  0.00  0.00    -0.090 HD
ATOM     20  H   LIG d   1       7.549  89.872 116.432  0.00  0.00    -0.090 HD
ATOM     21  H   LIG d   1       7.977  89.402 117.942  0.00  0.00    -0.090 HD
ENDBRANCH   5  18
BRANCH   3  22
ATOM     22  C   LIG d   1       2.788  91.355 117.056  0.00  0.00     0.382 C 
ATOM     23  O   LIG d   1       1.559  91.109 117.011  0.00  0.00    -0.241 OA
ATOM     24  O   LIG d   1       3.177  92.538 117.061  0.00  0.00    -0.241 OA
ENDBRANCH   3  22
TORSDOF 7
ENDMDL
