MODEL 1
REMARK VINA RESULT:      -5.0      0.000      0.000
REMARK  7 active torsions:
REMARK  status: ('A' for Active; 'I' for Inactive)
REMARK    1  A    between atoms: C_2  and  C_3 
REMARK    2  A    between atoms: C_3  and  O_6 
REMARK    3  A    between atoms: C_3  and  C_4 
REMARK    4  A    between atoms: C_7  and  O_6 
REMARK    5  A    between atoms: C_9  and  C_10 
REMARK    6  A    between atoms: N_15  and  C_14 
REMARK    7  A    between atoms: N_20  and  C_19 
REMARK       I    between atoms: C_22  and  N_20 
ROOT
ATOM      1  C   LIG d   1      -6.594  91.314 117.675  0.00  0.00     0.161 C 
ATOM      2  C   LIG d   1      -7.409  92.448 117.517  0.00  0.00     0.016 C 
ATOM      3  C   LIG d   1      -6.962  93.766 117.762  0.00  0.00     0.038 C 
ATOM      4  C   LIG d   1      -5.617  94.054 118.037  0.00  0.00     0.028 C 
ATOM      5  C   LIG d   1      -4.873  92.900 118.700  0.00  0.00    -0.047 C 
ATOM      6  C   LIG d   1      -5.094  91.617 117.867  0.00  0.00     0.091 C 
ENDROOT
BRANCH   1   7
ATOM      7  O   LIG d   1      -6.786  90.416 116.563  0.00  0.00    -0.368 OA
BRANCH   7   8
ATOM      8  C   LIG d   1      -7.801  90.799 115.603  0.00  0.00     0.119 C 
BRANCH   8   9
ATOM      9  C   LIG d   1      -8.686  89.563 115.347  0.00  0.00     0.028 C 
ATOM     10  C   LIG d   1      -9.438  89.109 116.609  0.00  0.00     0.006 C 
ENDBRANCH   8   9
BRANCH   8  11
ATOM     11  C   LIG d   1      -7.182  91.143 114.245  0.00  0.00     0.028 C 
ATOM     12  C   LIG d   1      -7.038  92.656 114.022  0.00  0.00     0.006 C 
ENDBRANCH   8  11
ENDBRANCH   7   8
ENDBRANCH   1   7
BRANCH   6  13
ATOM     13  N   LIG d   1      -4.470  90.421 118.491  0.00  0.00    -0.311 N 
ATOM     14  C   LIG d   1      -3.264  89.964 118.156  0.00  0.00     0.210 C 
ATOM     15  C   LIG d   1      -2.818  88.706 118.908  0.00  0.00     0.109 C 
ATOM     16  O   LIG d   1      -2.509  90.499 117.331  0.00  0.00    -0.276 OA
ATOM     17  H   LIG d   1      -5.000  89.944 119.193  0.00  0.00     0.149 HD
ENDBRANCH   6  13
BRANCH   5  18
ATOM     18  N   LIG d   1      -3.453  93.285 118.804  0.00  0.00     0.381 N 
ATOM     19  H   LIG d   1      -3.050  92.875 119.623  0.00  0.00    -0.090 HD
ATOM     20  H   LIG d   1      -3.393  94.284 118.889  0.00  0.00    -0.090 HD
ATOM     21  H   LIG d   1      -2.958  92.982 117.994  0.00  0.00    -0.090 HD
ENDBRANCH   5  18
BRANCH   3  22
ATOM     22  C   LIG d   1      -7.874  94.810 117.771  0.00  0.00     0.382 C 
ATOM     23  O   LIG d   1      -9.057  94.613 117.404  0.00  0.00    -0.241 OA
ATOM     24  O   LIG d   1      -7.518  95.958 118.101  0.00  0.00    -0.241 OA
ENDBRANCH   3  22
TORSDOF 7
ENDMDL
MODEL 2
REMARK VINA RESULT:      -4.6      7.479     10.632
REMARK  7 active torsions:
REMARK  status: ('A' for Active; 'I' for Inactive)
REMARK    1  A    between atoms: C_2  and  C_3 
REMARK    2  A    between atoms: C_3  and  O_6 
REMARK    3  A    between atoms: C_3  and  C_4 
REMARK    4  A    between atoms: C_7  and  O_6 
REMARK    5  A    between atoms: C_9  and  C_10 
REMARK    6  A    between atoms: N_15  and  C_14 
REMARK    7  A    between atoms: N_20  and  C_19 
REMARK       I    between atoms: C_22  and  N_20 
ROOT
ATOM      1  C   LIG d   1       2.745  88.185 115.960  0.00  0.00     0.161 C 
ATOM      2  C   LIG d   1       3.419  88.926 116.945  0.00  0.00     0.016 C 
ATOM      3  C   LIG d   1       4.678  89.533 116.737  0.00  0.00     0.038 C 
ATOM      4  C   LIG d   1       5.285  89.567 115.472  0.00  0.00     0.028 C 
ATOM      5  C   LIG d   1       4.882  88.401 114.576  0.00  0.00    -0.047 C 
ATOM      6  C   LIG d   1       3.339  88.304 114.541  0.00  0.00     0.091 C 
ENDROOT
BRANCH   1   7
ATOM      7  O   LIG d   1       1.348  88.541 115.950  0.00  0.00    -0.368 OA
BRANCH   7   8
ATOM      8  C   LIG d   1       0.859  89.233 117.125  0.00  0.00     0.119 C 
BRANCH   8   9
ATOM      9  C   LIG d   1      -0.286  88.387 117.717  0.00  0.00     0.028 C 
ATOM     10  C   LIG d   1      -1.615  89.159 117.778  0.00  0.00     0.006 C 
ENDBRANCH   8   9
BRANCH   8  11
ATOM     11  C   LIG d   1       0.222  90.576 116.757  0.00  0.00     0.028 C 
ATOM     12  C   LIG d   1       0.997  91.777 117.319  0.00  0.00     0.006 C 
ENDBRANCH   8  11
ENDBRANCH   7   8
ENDBRANCH   1   7
BRANCH   6  13
ATOM     13  N   LIG d   1       2.862  87.138 113.754  0.00  0.00    -0.311 N 
ATOM     14  C   LIG d   1       2.463  87.223 112.486  0.00  0.00     0.210 C 
ATOM     15  C   LIG d   1       1.990  85.904 111.867  0.00  0.00     0.109 C 
ATOM     16  O   LIG d   1       2.486  88.259 111.805  0.00  0.00    -0.276 OA
ATOM     17  H   LIG d   1       2.839  86.252 114.219  0.00  0.00     0.149 HD
ENDBRANCH   6  13
BRANCH   5  18
ATOM     18  N   LIG d   1       5.476  88.634 113.246  0.00  0.00     0.381 N 
ATOM     19  H   LIG d   1       6.429  88.923 113.347  0.00  0.00    -0.090 HD
ATOM     20  H   LIG d   1       4.970  89.372 112.789  0.00  0.00    -0.090 HD
ATOM     21  H   LIG d   1       5.430  87.802 112.701  0.00  0.00    -0.090 HD
ENDBRANCH   5  18
BRANCH   3  22
ATOM     22  C   LIG d   1       5.364  90.081 117.810  0.00  0.00     0.382 C 
ATOM     23  O   LIG d   1       6.586  90.345 117.705  0.00  0.00    -0.241 OA
ATOM     24  O   LIG d   1       4.786  90.273 118.897  0.00  0.00    -0.241 OA
ENDBRANCH   3  22
TORSDOF 7
ENDMDL
MODEL 3
REMARK VINA RESULT:      -4.4      8.936     11.192
REMARK  7 active torsions:
REMARK  status: ('A' for Active; 'I' for Inactive)
REMARK    1  A    between atoms: C_2  and  C_3 
REMARK    2  A    between atoms: C_3  and  O_6 
REMARK    3  A    between atoms: C_3  and  C_4 
REMARK    4  A    between atoms: C_7  and  O_6 
REMARK    5  A    between atoms: C_9  and  C_10 
REMARK    6  A    between atoms: N_15  and  C_14 
REMARK    7  A    between atoms: N_20  and  C_19 
REMARK       I    between atoms: C_22  and  N_20 
ROOT
ATOM      1  C   LIG d   1       3.708  87.528 116.225  0.00  0.00     0.161 C 
ATOM      2  C   LIG d   1       2.682  88.486 116.169  0.00  0.00     0.016 C 
ATOM      3  C   LIG d   1       2.850  89.830 116.576  0.00  0.00     0.038 C 
ATOM      4  C   LIG d   1       4.106  90.347 116.926  0.00  0.00     0.028 C 
ATOM      5  C   LIG d   1       5.061  89.295 117.480  0.00  0.00    -0.047 C 
ATOM      6  C   LIG d   1       5.114  88.100 116.500  0.00  0.00     0.091 C 
ENDROOT
BRANCH   1   7
ATOM      7  O   LIG d   1       3.713  86.747 115.014  0.00  0.00    -0.368 OA
BRANCH   7   8
ATOM      8  C   LIG d   1       3.247  87.420 113.819  0.00  0.00     0.119 C 
BRANCH   8   9
ATOM      9  C   LIG d   1       2.295  86.456 113.085  0.00  0.00     0.028 C 
ATOM     10  C   LIG d   1       2.017  86.894 111.637  0.00  0.00     0.006 C 
ENDBRANCH   8   9
BRANCH   8  11
ATOM     11  C   LIG d   1       4.396  87.678 112.840  0.00  0.00     0.028 C 
ATOM     12  C   LIG d   1       5.116  89.010 113.103  0.00  0.00     0.006 C 
ENDBRANCH   8  11
ENDBRANCH   7   8
ENDBRANCH   1   7
BRANCH   6  13
ATOM     13  N   LIG d   1       5.961  86.989 117.006  0.00  0.00    -0.311 N 
ATOM     14  C   LIG d   1       7.249  86.849 116.696  0.00  0.00     0.210 C 
ATOM     15  C   LIG d   1       7.932  85.622 117.309  0.00  0.00     0.109 C 
ATOM     16  O   LIG d   1       7.898  87.642 115.998  0.00  0.00    -0.276 OA
ATOM     17  H   LIG d   1       5.522  86.317 117.605  0.00  0.00     0.149 HD
ENDBRANCH   6  13
BRANCH   5  18
ATOM     18  N   LIG d   1       6.373  89.942 117.674  0.00  0.00     0.381 N 
ATOM     19  H   LIG d   1       6.543  90.076 118.651  0.00  0.00    -0.090 HD
ATOM     20  H   LIG d   1       6.360  90.843 117.230  0.00  0.00    -0.090 HD
ATOM     21  H   LIG d   1       7.093  89.379 117.278  0.00  0.00    -0.090 HD
ENDBRANCH   5  18
BRANCH   3  22
ATOM     22  C   LIG d   1       1.745  90.662 116.672  0.00  0.00     0.382 C 
ATOM     23  O   LIG d   1       1.879  91.837 117.091  0.00  0.00    -0.241 OA
ATOM     24  O   LIG d   1       0.609  90.238 116.387  0.00  0.00    -0.241 OA
ENDBRANCH   3  22
TORSDOF 7
ENDMDL
MODEL 4
REMARK VINA RESULT:      -4.3      8.157     11.590
REMARK  7 active torsions:
REMARK  status: ('A' for Active; 'I' for Inactive)
REMARK    1  A    between atoms: C_2  and  C_3 
REMARK    2  A    between atoms: C_3  and  O_6 
REMARK    3  A    between atoms: C_3  and  C_4 
REMARK    4  A    between atoms: C_7  and  O_6 
REMARK    5  A    between atoms: C_9  and  C_10 
REMARK    6  A    between atoms: N_15  and  C_14 
REMARK    7  A    between atoms: N_20  and  C_19 
REMARK       I    between atoms: C_22  and  N_20 
ROOT
ATOM      1  C   LIG d   1       3.793  89.282 115.803  0.00  0.00     0.161 C 
ATOM      2  C   LIG d   1       4.605  89.168 114.662  0.00  0.00     0.016 C 
ATOM      3  C   LIG d   1       4.355  88.245 113.619  0.00  0.00     0.038 C 
ATOM      4  C   LIG d   1       3.184  87.474 113.576  0.00  0.00     0.028 C 
ATOM      5  C   LIG d   1       2.593  87.192 114.953  0.00  0.00    -0.047 C 
ATOM      6  C   LIG d   1       2.451  88.527 115.720  0.00  0.00     0.091 C 
ENDROOT
BRANCH   1   7
ATOM      7  O   LIG d   1       3.568  90.674 116.104  0.00  0.00    -0.368 OA
BRANCH   7   8
ATOM      8  C   LIG d   1       4.143  91.159 117.343  0.00  0.00     0.119 C 
BRANCH   8   9
ATOM      9  C   LIG d   1       5.166  90.110 117.820  0.00  0.00     0.028 C 
ATOM     10  C   LIG d   1       6.605  90.653 117.825  0.00  0.00     0.006 C 
ENDBRANCH   8   9
BRANCH   8  11
ATOM     11  C   LIG d   1       3.092  91.235 118.453  0.00  0.00     0.028 C 
ATOM     12  C   LIG d   1       1.766  91.851 117.978  0.00  0.00     0.006 C 
ENDBRANCH   8  11
ENDBRANCH   7   8
ENDBRANCH   1   7
BRANCH   6  13
ATOM     13  N   LIG d   1       1.958  88.332 117.109  0.00  0.00    -0.311 N 
ATOM     14  C   LIG d   1       0.668  88.356 117.439  0.00  0.00     0.210 C 
ATOM     15  C   LIG d   1       0.378  88.154 118.930  0.00  0.00     0.109 C 
ATOM     16  O   LIG d   1      -0.266  88.494 116.634  0.00  0.00    -0.276 OA
ATOM     17  H   LIG d   1       2.646  88.184 117.821  0.00  0.00     0.149 HD
ENDBRANCH   6  13
BRANCH   5  18
ATOM     18  N   LIG d   1       1.306  86.500 114.753  0.00  0.00     0.381 N 
ATOM     19  H   LIG d   1       1.463  85.518 114.645  0.00  0.00    -0.090 HD
ATOM     20  H   LIG d   1       0.879  86.845 113.911  0.00  0.00    -0.090 HD
ATOM     21  H   LIG d   1       0.706  86.665 115.531  0.00  0.00    -0.090 HD
ENDBRANCH   5  18
BRANCH   3  22
ATOM     22  C   LIG d   1       5.304  88.059 112.625  0.00  0.00     0.382 C 
ATOM     23  O   LIG d   1       6.346  88.758 112.614  0.00  0.00    -0.241 OA
ATOM     24  O   LIG d   1       5.110  87.232 111.714  0.00  0.00    -0.241 OA
ENDBRANCH   3  22
TORSDOF 7
ENDMDL
MODEL 5
REMARK VINA RESULT:      -4.3      9.665     12.206
REMARK  7 active torsions:
REMARK  status: ('A' for Active; 'I' for Inactive)
REMARK    1  A    between atoms: C_2  and  C_3 
REMARK    2  A    between atoms: C_3  and  O_6 
REMARK    3  A    between atoms: C_3  and  C_4 
REMARK    4  A    between atoms: C_7  and  O_6 
REMARK    5  A    between atoms: C_9  and  C_10 
REMARK    6  A    between atoms: N_15  and  C_14 
REMARK    7  A    between atoms: N_20  and  C_19 
REMARK       I    between atoms: C_22  and  N_20 
ROOT
ATOM      1  C   LIG d   1       5.009  89.371 115.329  0.00  0.00     0.161 C 
ATOM      2  C   LIG d   1       4.339  89.085 114.128  0.00  0.00     0.016 C 
ATOM      3  C   LIG d   1       3.946  87.781 113.747  0.00  0.00     0.038 C 
ATOM      4  C   LIG d   1       4.064  86.688 114.618  0.00  0.00     0.028 C 
ATOM      5  C   LIG d   1       5.191  86.841 115.634  0.00  0.00    -0.047 C 
ATOM      6  C   LIG d   1       5.047  88.208 116.341  0.00  0.00     0.091 C 
ENDROOT
BRANCH   1   7
ATOM      7  O   LIG d   1       4.439  90.547 115.938  0.00  0.00    -0.368 OA
BRANCH   7   8
ATOM      8  C   LIG d   1       3.615  90.323 117.108  0.00  0.00     0.119 C 
BRANCH   8   9
ATOM      9  C   LIG d   1       2.143  90.451 116.670  0.00  0.00     0.028 C 
ATOM     10  C   LIG d   1       1.423  89.093 116.629  0.00  0.00     0.006 C 
ENDBRANCH   8   9
BRANCH   8  11
ATOM     11  C   LIG d   1       3.823  91.422 118.155  0.00  0.00     0.028 C 
ATOM     12  C   LIG d   1       4.947  92.400 117.776  0.00  0.00     0.006 C 
ENDBRANCH   8  11
ENDBRANCH   7   8
ENDBRANCH   1   7
BRANCH   6  13
ATOM     13  N   LIG d   1       6.158  88.475 117.292  0.00  0.00    -0.311 N 
ATOM     14  C   LIG d   1       7.425  88.146 117.048  0.00  0.00     0.210 C 
ATOM     15  C   LIG d   1       8.410  88.493 118.169  0.00  0.00     0.109 C 
ATOM     16  O   LIG d   1       7.833  87.630 115.997  0.00  0.00    -0.276 OA
ATOM     17  H   LIG d   1       5.921  88.919 118.157  0.00  0.00     0.149 HD
ENDBRANCH   6  13
BRANCH   5  18
ATOM     18  N   LIG d   1       5.112  85.698 116.563  0.00  0.00     0.381 N 
ATOM     19  H   LIG d   1       5.439  85.974 117.468  0.00  0.00    -0.090 HD
ATOM     20  H   LIG d   1       5.707  84.962 116.224  0.00  0.00    -0.090 HD
ATOM     21  H   LIG d   1       4.173  85.373 116.626  0.00  0.00    -0.090 HD
ENDBRANCH   5  18
BRANCH   3  22
ATOM     22  C   LIG d   1       3.465  87.554 112.467  0.00  0.00     0.382 C 
ATOM     23  O   LIG d   1       4.008  86.690 111.737  0.00  0.00    -0.241 OA
ATOM     24  O   LIG d   1       2.524  88.234 112.016  0.00  0.00    -0.241 OA
ENDBRANCH   3  22
TORSDOF 7
ENDMDL
MODEL 6
REMARK VINA RESULT:      -4.1      8.656     11.125
REMARK  7 active torsions:
REMARK  status: ('A' for Active; 'I' for Inactive)
REMARK    1  A    between atoms: C_2  and  C_3 
REMARK    2  A    between atoms: C_3  and  O_6 
REMARK    3  A    between atoms: C_3  and  C_4 
REMARK    4  A    between atoms: C_7  and  O_6 
REMARK    5  A    between atoms: C_9  and  C_10 
REMARK    6  A    between atoms: N_15  and  C_14 
REMARK    7  A    between atoms: N_20  and  C_19 
REMARK       I    between atoms: C_22  and  N_20 
ROOT
ATOM      1  C   LIG d   1       4.339  88.601 116.480  0.00  0.00     0.161 C 
ATOM      2  C   LIG d   1       3.095  89.229 116.310  0.00  0.00     0.016 C 
ATOM      3  C   LIG d   1       2.811  90.533 116.779  0.00  0.00     0.038 C 
ATOM      4  C   LIG d   1       3.807  91.359 117.320  0.00  0.00     0.028 C 
ATOM      5  C   LIG d   1       4.949  90.586 117.969  0.00  0.00    -0.047 C 
ATOM      6  C   LIG d   1       5.471  89.529 116.969  0.00  0.00     0.091 C 
ENDROOT
BRANCH   1   7
ATOM      7  O   LIG d   1       4.725  87.942 115.257  0.00  0.00    -0.368 OA
BRANCH   7   8
ATOM      8  C   LIG d   1       3.661  87.688 114.307  0.00  0.00     0.119 C 
BRANCH   8   9
ATOM      9  C   LIG d   1       3.338  86.183 114.364  0.00  0.00     0.028 C 
ATOM     10  C   LIG d   1       1.870  85.911 114.734  0.00  0.00     0.006 C 
ENDBRANCH   8   9
BRANCH   8  11
ATOM     11  C   LIG d   1       4.123  87.950 112.870  0.00  0.00     0.028 C 
ATOM     12  C   LIG d   1       4.336  86.656 112.068  0.00  0.00     0.006 C 
ENDBRANCH   8  11
ENDBRANCH   7   8
ENDBRANCH   1   7
BRANCH   6  13
ATOM     13  N   LIG d   1       6.534  88.671 117.554  0.00  0.00    -0.311 N 
ATOM     14  C   LIG d   1       7.834  88.944 117.454  0.00  0.00     0.210 C 
ATOM     15  C   LIG d   1       8.763  87.918 118.112  0.00  0.00     0.109 C 
ATOM     16  O   LIG d   1       8.305  89.954 116.910  0.00  0.00    -0.276 OA
ATOM     17  H   LIG d   1       6.240  87.847 118.040  0.00  0.00     0.149 HD
ENDBRANCH   6  13
BRANCH   5  18
ATOM     18  N   LIG d   1       5.980  91.563 118.367  0.00  0.00     0.381 N 
ATOM     19  H   LIG d   1       5.666  92.490 118.158  0.00  0.00    -0.090 HD
ATOM     20  H   LIG d   1       6.817  91.386 117.840  0.00  0.00    -0.090 HD
ATOM     21  H   LIG d   1       6.169  91.481 119.342  0.00  0.00    -0.090 HD
ENDBRANCH   5  18
BRANCH   3  22
ATOM     22  C   LIG d   1       1.508  91.007 116.745  0.00  0.00     0.382 C 
ATOM     23  O   LIG d   1       1.257  92.178 117.117  0.00  0.00    -0.241 OA
ATOM     24  O   LIG d   1       0.574  90.263 116.388  0.00  0.00    -0.241 OA
ENDBRANCH   3  22
TORSDOF 7
ENDMDL
MODEL 7
REMARK VINA RESULT:      -3.9      2.344      4.561
REMARK  7 active torsions:
REMARK  status: ('A' for Active; 'I' for Inactive)
REMARK    1  A    between atoms: C_2  and  C_3 
REMARK    2  A    between atoms: C_3  and  O_6 
REMARK    3  A    between atoms: C_3  and  C_4 
REMARK    4  A    between atoms: C_7  and  O_6 
REMARK    5  A    between atoms: C_9  and  C_10 
REMARK    6  A    between atoms: N_15  and  C_14 
REMARK    7  A    between atoms: N_20  and  C_19 
REMARK       I    between atoms: C_22  and  N_20 
ROOT
ATOM      1  C   LIG d   1      -4.636  92.558 117.176  0.00  0.00     0.161 C 
ATOM      2  C   LIG d   1      -5.780  92.781 116.390  0.00  0.00     0.016 C 
ATOM      3  C   LIG d   1      -6.337  91.804 115.533  0.00  0.00     0.038 C 
ATOM      4  C   LIG d   1      -5.874  90.480 115.516  0.00  0.00     0.028 C 
ATOM      5  C   LIG d   1      -4.408  90.346 115.916  0.00  0.00    -0.047 C 
ATOM      6  C   LIG d   1      -4.183  91.085 117.255  0.00  0.00     0.091 C 
ENDROOT
BRANCH   1   7
ATOM      7  O   LIG d   1      -4.841  93.091 118.499  0.00  0.00    -0.368 OA
BRANCH   7   8
ATOM      8  C   LIG d   1      -3.995  94.205 118.875  0.00  0.00     0.119 C 
BRANCH   8   9
ATOM      9  C   LIG d   1      -4.883  95.463 118.930  0.00  0.00     0.028 C 
ATOM     10  C   LIG d   1      -6.379  95.132 118.793  0.00  0.00     0.006 C 
ENDBRANCH   8   9
BRANCH   8  11
ATOM     11  C   LIG d   1      -2.946  94.496 117.798  0.00  0.00     0.028 C 
ATOM     12  C   LIG d   1      -1.509  94.249 118.284  0.00  0.00     0.006 C 
ENDBRANCH   8  11
ENDBRANCH   7   8
ENDBRANCH   1   7
BRANCH   6  13
ATOM     13  N   LIG d   1      -2.758  91.075 117.676  0.00  0.00    -0.311 N 
ATOM     14  C   LIG d   1      -2.235  90.142 118.469  0.00  0.00     0.210 C 
ATOM     15  C   LIG d   1      -0.750  90.330 118.796  0.00  0.00     0.109 C 
ATOM     16  O   LIG d   1      -2.851  89.159 118.907  0.00  0.00    -0.276 OA
ATOM     17  H   LIG d   1      -2.178  91.819 117.341  0.00  0.00     0.149 HD
ENDBRANCH   6  13
BRANCH   5  18
ATOM     18  N   LIG d   1      -4.096  88.907 115.990  0.00  0.00     0.381 N 
ATOM     19  H   LIG d   1      -3.677  88.606 115.133  0.00  0.00    -0.090 HD
ATOM     20  H   LIG d   1      -4.951  88.395 116.119  0.00  0.00    -0.090 HD
ATOM     21  H   LIG d   1      -3.477  88.731 116.751  0.00  0.00    -0.090 HD
ENDBRANCH   5  18
BRANCH   3  22
ATOM     22  C   LIG d   1      -7.345  92.160 114.649  0.00  0.00     0.382 C 
ATOM     23  O   LIG d   1      -8.217  91.320 114.322  0.00  0.00    -0.241 OA
ATOM     24  O   LIG d   1      -7.367  93.298 114.142  0.00  0.00    -0.241 OA
ENDBRANCH   3  22
TORSDOF 7
ENDMDL
MODEL 8
REMARK VINA RESULT:      -3.9      8.789     11.736
REMARK  7 active torsions:
REMARK  status: ('A' for Active; 'I' for Inactive)
REMARK    1  A    between atoms: C_2  and  C_3 
REMARK    2  A    between atoms: C_3  and  O_6 
REMARK    3  A    between atoms: C_3  and  C_4 
REMARK    4  A    between atoms: C_7  and  O_6 
REMARK    5  A    between atoms: C_9  and  C_10 
REMARK    6  A    between atoms: N_15  and  C_14 
REMARK    7  A    between atoms: N_20  and  C_19 
REMARK       I    between atoms: C_22  and  N_20 
ROOT
ATOM      1  C   LIG d   1       4.027  87.380 116.170  0.00  0.00     0.161 C 
ATOM      2  C   LIG d   1       4.933  87.995 117.050  0.00  0.00     0.016 C 
ATOM      3  C   LIG d   1       5.898  88.942 116.637  0.00  0.00     0.038 C 
ATOM      4  C   LIG d   1       5.922  89.456 115.331  0.00  0.00     0.028 C 
ATOM      5  C   LIG d   1       5.355  88.494 114.292  0.00  0.00    -0.047 C 
ATOM      6  C   LIG d   1       3.964  88.009 114.762  0.00  0.00     0.091 C 
ENDROOT
BRANCH   1   7
ATOM      7  O   LIG d   1       2.714  87.349 116.764  0.00  0.00    -0.368 OA
BRANCH   7   8
ATOM      8  C   LIG d   1       1.870  88.497 116.504  0.00  0.00     0.119 C 
BRANCH   8   9
ATOM      9  C   LIG d   1       2.129  89.524 117.623  0.00  0.00     0.028 C 
ATOM     10  C   LIG d   1       2.533  90.902 117.073  0.00  0.00     0.006 C 
ENDBRANCH   8   9
BRANCH   8  11
ATOM     11  C   LIG d   1       0.386  88.136 116.621  0.00  0.00     0.028 C 
ATOM     12  C   LIG d   1      -0.207  88.489 117.994  0.00  0.00     0.006 C 
ENDBRANCH   8  11
ENDBRANCH   7   8
ENDBRANCH   1   7
BRANCH   6  13
ATOM     13  N   LIG d   1       3.376  87.000 113.844  0.00  0.00    -0.311 N 
ATOM     14  C   LIG d   1       2.716  87.317 112.731  0.00  0.00     0.210 C 
ATOM     15  C   LIG d   1       2.173  86.124 111.939  0.00  0.00     0.109 C 
ATOM     16  O   LIG d   1       2.557  88.472 112.309  0.00  0.00    -0.276 OA
ATOM     17  H   LIG d   1       3.485  86.037 114.094  0.00  0.00     0.149 HD
ENDBRANCH   6  13
BRANCH   5  18
ATOM     18  N   LIG d   1       5.313  89.207 113.001  0.00  0.00     0.381 N 
ATOM     19  H   LIG d   1       6.243  89.419 112.701  0.00  0.00    -0.090 HD
ATOM     20  H   LIG d   1       4.816  90.072 113.124  0.00  0.00    -0.090 HD
ATOM     21  H   LIG d   1       4.855  88.646 112.317  0.00  0.00    -0.090 HD
ENDBRANCH   5  18
BRANCH   3  22
ATOM     22  C   LIG d   1       6.878  89.357 117.525  0.00  0.00     0.382 C 
ATOM     23  O   LIG d   1       6.625  89.422 118.752  0.00  0.00    -0.241 OA
ATOM     24  O   LIG d   1       7.999  89.709 117.110  0.00  0.00    -0.241 OA
ENDBRANCH   3  22
TORSDOF 7
ENDMDL
MODEL 9
REMARK VINA RESULT:      -3.9      6.055      9.104
REMARK  7 active torsions:
REMARK  status: ('A' for Active; 'I' for Inactive)
REMARK    1  A    between atoms: C_2  and  C_3 
REMARK    2  A    between atoms: C_3  and  O_6 
REMARK    3  A    between atoms: C_3  and  C_4 
REMARK    4  A    between atoms: C_7  and  O_6 
REMARK    5  A    between atoms: C_9  and  C_10 
REMARK    6  A    between atoms: N_15  and  C_14 
REMARK    7  A    between atoms: N_20  and  C_19 
REMARK       I    between atoms: C_22  and  N_20 
ROOT
ATOM      1  C   LIG d   1       1.523  89.079 116.790  0.00  0.00     0.161 C 
ATOM      2  C   LIG d   1       0.127  88.977 116.912  0.00  0.00     0.016 C 
ATOM      3  C   LIG d   1      -0.660  89.897 117.642  0.00  0.00     0.038 C 
ATOM      4  C   LIG d   1      -0.117  91.074 118.178  0.00  0.00     0.028 C 
ATOM      5  C   LIG d   1       1.366  90.961 118.511  0.00  0.00    -0.047 C 
ATOM      6  C   LIG d   1       2.118  90.417 117.275  0.00  0.00     0.091 C 
ENDROOT
BRANCH   1   7
ATOM      7  O   LIG d   1       1.915  88.820 115.427  0.00  0.00    -0.368 OA
BRANCH   7   8
ATOM      8  C   LIG d   1       3.187  88.150 115.246  0.00  0.00     0.119 C 
BRANCH   8   9
ATOM      9  C   LIG d   1       3.476  88.107 113.733  0.00  0.00     0.028 C 
ATOM     10  C   LIG d   1       4.845  88.713 113.380  0.00  0.00     0.006 C 
ENDBRANCH   8   9
BRANCH   8  11
ATOM     11  C   LIG d   1       3.112  86.685 115.686  0.00  0.00     0.028 C 
ATOM     12  C   LIG d   1       2.463  85.777 114.629  0.00  0.00     0.006 C 
ENDBRANCH   8  11
ENDBRANCH   7   8
ENDBRANCH   1   7
BRANCH   6  13
ATOM     13  N   LIG d   1       3.564  90.196 117.542  0.00  0.00    -0.311 N 
ATOM     14  C   LIG d   1       4.508  91.087 117.245  0.00  0.00     0.210 C 
ATOM     15  C   LIG d   1       5.937  90.651 117.586  0.00  0.00     0.109 C 
ATOM     16  O   LIG d   1       4.296  92.209 116.761  0.00  0.00    -0.276 OA
ATOM     17  H   LIG d   1       3.822  89.325 117.961  0.00  0.00     0.149 HD
ENDBRANCH   6  13
BRANCH   5  18
ATOM     18  N   LIG d   1       1.832  92.297 118.930  0.00  0.00     0.381 N 
ATOM     19  H   LIG d   1       2.319  92.227 119.801  0.00  0.00    -0.090 HD
ATOM     20  H   LIG d   1       1.034  92.893 119.061  0.00  0.00    -0.090 HD
ATOM     21  H   LIG d   1       2.433  92.682 118.235  0.00  0.00    -0.090 HD
ENDBRANCH   5  18
BRANCH   3  22
ATOM     22  C   LIG d   1      -1.998  89.622 117.875  0.00  0.00     0.382 C 
ATOM     23  O   LIG d   1      -2.331  88.539 118.414  0.00  0.00    -0.241 OA
ATOM     24  O   LIG d   1      -2.880  90.424 117.514  0.00  0.00    -0.241 OA
ENDBRANCH   3  22
TORSDOF 7
ENDMDL
