MODEL 1
REMARK VINA RESULT:      -5.2      0.000      0.000
REMARK  7 active torsions:
REMARK  status: ('A' for Active; 'I' for Inactive)
REMARK    1  A    between atoms: C_2  and  C_3 
REMARK    2  A    between atoms: C_3  and  O_6 
REMARK    3  A    between atoms: C_3  and  C_4 
REMARK    4  A    between atoms: C_7  and  O_6 
REMARK    5  A    between atoms: C_9  and  C_10 
REMARK    6  A    between atoms: N_15  and  C_14 
REMARK    7  A    between atoms: N_20  and  C_19 
REMARK       I    between atoms: C_22  and  N_20 
ROOT
ATOM      1  C   LIG d   1      -5.994  92.631 117.950  0.00  0.00     0.161 C 
ATOM      2  C   LIG d   1      -6.016  93.926 118.495  0.00  0.00     0.016 C 
ATOM      3  C   LIG d   1      -7.120  94.802 118.374  0.00  0.00     0.038 C 
ATOM      4  C   LIG d   1      -8.342  94.384 117.826  0.00  0.00     0.028 C 
ATOM      5  C   LIG d   1      -8.197  93.253 116.813  0.00  0.00    -0.047 C 
ATOM      6  C   LIG d   1      -7.359  92.118 117.445  0.00  0.00     0.091 C 
ENDROOT
BRANCH   1   7
ATOM      7  O   LIG d   1      -5.434  91.709 118.905  0.00  0.00    -0.368 OA
BRANCH   7   8
ATOM      8  C   LIG d   1      -4.057  91.319 118.683  0.00  0.00     0.119 C 
BRANCH   8   9
ATOM      9  C   LIG d   1      -3.437  92.341 117.711  0.00  0.00     0.028 C 
ATOM     10  C   LIG d   1      -2.358  93.209 118.380  0.00  0.00     0.006 C 
ENDBRANCH   8   9
BRANCH   8  11
ATOM     11  C   LIG d   1      -3.968  89.970 117.964  0.00  0.00     0.028 C 
ATOM     12  C   LIG d   1      -2.543  89.394 117.951  0.00  0.00     0.006 C 
ENDBRANCH   8  11
ENDBRANCH   7   8
ENDBRANCH   1   7
BRANCH   6  13
ATOM     13  N   LIG d   1      -7.098  91.008 116.492  0.00  0.00    -0.311 N 
ATOM     14  C   LIG d   1      -6.579  91.190 115.279  0.00  0.00     0.210 C 
ATOM     15  C   LIG d   1      -6.410  89.914 114.450  0.00  0.00     0.109 C 
ATOM     16  O   LIG d   1      -6.212  92.284 114.824  0.00  0.00    -0.276 OA
ATOM     17  H   LIG d   1      -7.338  90.083 116.792  0.00  0.00     0.149 HD
ENDBRANCH   6  13
BRANCH   5  18
ATOM     18  N   LIG d   1      -9.554  92.824 116.427  0.00  0.00     0.381 N 
ATOM     19  H   LIG d   1      -9.989  92.348 117.191  0.00  0.00    -0.090 HD
ATOM     20  H   LIG d   1      -9.485  92.185 115.655  0.00  0.00    -0.090 HD
ATOM     21  H   LIG d   1     -10.100  93.616 116.165  0.00  0.00    -0.090 HD
ENDBRANCH   5  18
BRANCH   3  22
ATOM     22  C   LIG d   1      -6.993  96.125 118.768  0.00  0.00     0.382 C 
ATOM     23  O   LIG d   1      -8.016  96.832 118.929  0.00  0.00    -0.241 OA
ATOM     24  O   LIG d   1      -5.866  96.633 118.923  0.00  0.00    -0.241 OA
ENDBRANCH   3  22
TORSDOF 7
ENDMDL
MODEL 2
REMARK VINA RESULT:      -5.1      9.061     11.057
REMARK  7 active torsions:
REMARK  status: ('A' for Active; 'I' for Inactive)
REMARK    1  A    between atoms: C_2  and  C_3 
REMARK    2  A    between atoms: C_3  and  O_6 
REMARK    3  A    between atoms: C_3  and  C_4 
REMARK    4  A    between atoms: C_7  and  O_6 
REMARK    5  A    between atoms: C_9  and  C_10 
REMARK    6  A    between atoms: N_15  and  C_14 
REMARK    7  A    between atoms: N_20  and  C_19 
REMARK       I    between atoms: C_22  and  N_20 
ROOT
ATOM      1  C   LIG d   1       3.065  87.988 115.688  0.00  0.00     0.161 C 
ATOM      2  C   LIG d   1       3.290  88.812 116.804  0.00  0.00     0.016 C 
ATOM      3  C   LIG d   1       4.169  89.919 116.789  0.00  0.00     0.038 C 
ATOM      4  C   LIG d   1       4.773  90.371 115.606  0.00  0.00     0.028 C 
ATOM      5  C   LIG d   1       4.971  89.271 114.569  0.00  0.00    -0.047 C 
ATOM      6  C   LIG d   1       3.629  88.532 114.359  0.00  0.00     0.091 C 
ENDROOT
BRANCH   1   7
ATOM      7  O   LIG d   1       1.656  87.714 115.559  0.00  0.00    -0.368 OA
BRANCH   7   8
ATOM      8  C   LIG d   1       1.058  86.936 116.626  0.00  0.00     0.119 C 
BRANCH   8   9
ATOM      9  C   LIG d   1       0.547  85.620 116.008  0.00  0.00     0.028 C 
ATOM     10  C   LIG d   1       0.754  85.567 114.485  0.00  0.00     0.006 C 
ENDBRANCH   8   9
BRANCH   8  11
ATOM     11  C   LIG d   1      -0.185  87.628 117.191  0.00  0.00     0.028 C 
ATOM     12  C   LIG d   1      -1.409  86.700 117.250  0.00  0.00     0.006 C 
ENDBRANCH   8  11
ENDBRANCH   7   8
ENDBRANCH   1   7
BRANCH   6  13
ATOM     13  N   LIG d   1       3.755  87.385 113.421  0.00  0.00    -0.311 N 
ATOM     14  C   LIG d   1       3.160  87.344 112.230  0.00  0.00     0.210 C 
ATOM     15  C   LIG d   1       3.404  86.061 111.430  0.00  0.00     0.109 C 
ATOM     16  O   LIG d   1       2.480  88.262 111.747  0.00  0.00    -0.276 OA
ATOM     17  H   LIG d   1       4.314  86.611 113.721  0.00  0.00     0.149 HD
ENDBRANCH   6  13
BRANCH   5  18
ATOM     18  N   LIG d   1       5.480  89.905 113.338  0.00  0.00     0.381 N 
ATOM     19  H   LIG d   1       6.245  90.511 113.561  0.00  0.00    -0.090 HD
ATOM     20  H   LIG d   1       4.748  90.459 112.931  0.00  0.00    -0.090 HD
ATOM     21  H   LIG d   1       5.777  89.207 112.693  0.00  0.00    -0.090 HD
ENDBRANCH   5  18
BRANCH   3  22
ATOM     22  C   LIG d   1       4.483  90.563 117.976  0.00  0.00     0.382 C 
ATOM     23  O   LIG d   1       5.350  90.078 118.742  0.00  0.00    -0.241 OA
ATOM     24  O   LIG d   1       3.879  91.600 118.312  0.00  0.00    -0.241 OA
ENDBRANCH   3  22
TORSDOF 7
ENDMDL
MODEL 3
REMARK VINA RESULT:      -5.1      2.624      5.766
REMARK  7 active torsions:
REMARK  status: ('A' for Active; 'I' for Inactive)
REMARK    1  A    between atoms: C_2  and  C_3 
REMARK    2  A    between atoms: C_3  and  O_6 
REMARK    3  A    between atoms: C_3  and  C_4 
REMARK    4  A    between atoms: C_7  and  O_6 
REMARK    5  A    between atoms: C_9  and  C_10 
REMARK    6  A    between atoms: N_15  and  C_14 
REMARK    7  A    between atoms: N_20  and  C_19 
REMARK       I    between atoms: C_22  and  N_20 
ROOT
ATOM      1  C   LIG d   1      -4.625  90.709 116.902  0.00  0.00     0.161 C 
ATOM      2  C   LIG d   1      -3.410  90.023 117.072  0.00  0.00     0.016 C 
ATOM      3  C   LIG d   1      -2.317  90.546 117.800  0.00  0.00     0.038 C 
ATOM      4  C   LIG d   1      -2.418  91.733 118.539  0.00  0.00     0.028 C 
ATOM      5  C   LIG d   1      -3.455  92.705 117.985  0.00  0.00    -0.047 C 
ATOM      6  C   LIG d   1      -4.793  91.956 117.794  0.00  0.00     0.091 C 
ENDROOT
BRANCH   1   7
ATOM      7  O   LIG d   1      -5.729  89.802 117.094  0.00  0.00    -0.368 OA
BRANCH   7   8
ATOM      8  C   LIG d   1      -6.513  89.494 115.916  0.00  0.00     0.119 C 
BRANCH   8   9
ATOM      9  C   LIG d   1      -5.939  90.320 114.748  0.00  0.00     0.028 C 
ATOM     10  C   LIG d   1      -6.967  91.303 114.163  0.00  0.00     0.006 C 
ENDBRANCH   8   9
BRANCH   8  11
ATOM     11  C   LIG d   1      -7.962  89.966 116.072  0.00  0.00     0.028 C 
ATOM     12  C   LIG d   1      -8.945  88.807 116.301  0.00  0.00     0.006 C 
ENDBRANCH   8  11
ENDBRANCH   7   8
ENDBRANCH   1   7
BRANCH   6  13
ATOM     13  N   LIG d   1      -5.839  92.813 117.176  0.00  0.00    -0.311 N 
ATOM     14  C   LIG d   1      -6.986  93.120 117.780  0.00  0.00     0.210 C 
ATOM     15  C   LIG d   1      -7.933  94.000 116.959  0.00  0.00     0.109 C 
ATOM     16  O   LIG d   1      -7.295  92.774 118.930  0.00  0.00    -0.276 OA
ATOM     17  H   LIG d   1      -5.657  93.163 116.256  0.00  0.00     0.149 HD
ENDBRANCH   6  13
BRANCH   5  18
ATOM     18  N   LIG d   1      -3.554  93.836 118.927  0.00  0.00     0.381 N 
ATOM     19  H   LIG d   1      -4.504  94.145 118.987  0.00  0.00    -0.090 HD
ATOM     20  H   LIG d   1      -2.996  94.597 118.582  0.00  0.00    -0.090 HD
ATOM     21  H   LIG d   1      -3.231  93.558 119.828  0.00  0.00    -0.090 HD
ENDBRANCH   5  18
BRANCH   3  22
ATOM     22  C   LIG d   1      -1.092  89.897 117.760  0.00  0.00     0.382 C 
ATOM     23  O   LIG d   1      -0.064  90.521 117.400  0.00  0.00    -0.241 OA
ATOM     24  O   LIG d   1      -1.009  88.686 118.036  0.00  0.00    -0.241 OA
ENDBRANCH   3  22
TORSDOF 7
ENDMDL
MODEL 4
REMARK VINA RESULT:      -4.9     10.517     13.283
REMARK  7 active torsions:
REMARK  status: ('A' for Active; 'I' for Inactive)
REMARK    1  A    between atoms: C_2  and  C_3 
REMARK    2  A    between atoms: C_3  and  O_6 
REMARK    3  A    between atoms: C_3  and  C_4 
REMARK    4  A    between atoms: C_7  and  O_6 
REMARK    5  A    between atoms: C_9  and  C_10 
REMARK    6  A    between atoms: N_15  and  C_14 
REMARK    7  A    between atoms: N_20  and  C_19 
REMARK       I    between atoms: C_22  and  N_20 
ROOT
ATOM      1  C   LIG d   1       5.006  87.382 116.139  0.00  0.00     0.161 C 
ATOM      2  C   LIG d   1       3.998  88.361 116.153  0.00  0.00     0.016 C 
ATOM      3  C   LIG d   1       4.229  89.712 116.501  0.00  0.00     0.038 C 
ATOM      4  C   LIG d   1       5.523  90.211 116.714  0.00  0.00     0.028 C 
ATOM      5  C   LIG d   1       6.507  89.155 117.204  0.00  0.00    -0.047 C 
ATOM      6  C   LIG d   1       6.442  87.932 116.260  0.00  0.00     0.091 C 
ENDROOT
BRANCH   1   7
ATOM      7  O   LIG d   1       4.879  86.568 114.957  0.00  0.00    -0.368 OA
BRANCH   7   8
ATOM      8  C   LIG d   1       4.155  87.159 113.850  0.00  0.00     0.119 C 
BRANCH   8   9
ATOM      9  C   LIG d   1       3.363  86.031 113.160  0.00  0.00     0.028 C 
ATOM     10  C   LIG d   1       3.891  85.723 111.749  0.00  0.00     0.006 C 
ENDBRANCH   8   9
BRANCH   8  11
ATOM     11  C   LIG d   1       5.113  87.695 112.782  0.00  0.00     0.028 C 
ATOM     12  C   LIG d   1       5.423  89.190 112.956  0.00  0.00     0.006 C 
ENDBRANCH   8  11
ENDBRANCH   7   8
ENDBRANCH   1   7
BRANCH   6  13
ATOM     13  N   LIG d   1       7.313  86.817 116.716  0.00  0.00    -0.311 N 
ATOM     14  C   LIG d   1       8.571  86.656 116.309  0.00  0.00     0.210 C 
ATOM     15  C   LIG d   1       9.286  85.430 116.886  0.00  0.00     0.109 C 
ATOM     16  O   LIG d   1       9.174  87.431 115.550  0.00  0.00    -0.276 OA
ATOM     17  H   LIG d   1       6.915  86.160 117.357  0.00  0.00     0.149 HD
ENDBRANCH   6  13
BRANCH   5  18
ATOM     18  N   LIG d   1       7.843  89.778 117.252  0.00  0.00     0.381 N 
ATOM     19  H   LIG d   1       8.097  90.105 116.341  0.00  0.00    -0.090 HD
ATOM     20  H   LIG d   1       8.514  89.087 117.537  0.00  0.00    -0.090 HD
ATOM     21  H   LIG d   1       7.842  90.538 117.897  0.00  0.00    -0.090 HD
ENDBRANCH   5  18
BRANCH   3  22
ATOM     22  C   LIG d   1       3.155  90.570 116.679  0.00  0.00     0.382 C 
ATOM     23  O   LIG d   1       1.984  90.117 116.678  0.00  0.00    -0.241 OA
ATOM     24  O   LIG d   1       3.338  91.796 116.794  0.00  0.00    -0.241 OA
ENDBRANCH   3  22
TORSDOF 7
ENDMDL
MODEL 5
REMARK VINA RESULT:      -4.7      8.810     11.042
REMARK  7 active torsions:
REMARK  status: ('A' for Active; 'I' for Inactive)
REMARK    1  A    between atoms: C_2  and  C_3 
REMARK    2  A    between atoms: C_3  and  O_6 
REMARK    3  A    between atoms: C_3  and  C_4 
REMARK    4  A    between atoms: C_7  and  O_6 
REMARK    5  A    between atoms: C_9  and  C_10 
REMARK    6  A    between atoms: N_15  and  C_14 
REMARK    7  A    between atoms: N_20  and  C_19 
REMARK       I    between atoms: C_22  and  N_20 
ROOT
ATOM      1  C   LIG d   1       2.715  87.522 115.521  0.00  0.00     0.161 C 
ATOM      2  C   LIG d   1       1.542  86.749 115.560  0.00  0.00     0.016 C 
ATOM      3  C   LIG d   1       0.479  86.994 116.459  0.00  0.00     0.038 C 
ATOM      4  C   LIG d   1       0.452  88.129 117.284  0.00  0.00     0.028 C 
ATOM      5  C   LIG d   1       1.839  88.655 117.637  0.00  0.00    -0.047 C 
ATOM      6  C   LIG d   1       2.655  88.830 116.336  0.00  0.00     0.091 C 
ENDROOT
BRANCH   1   7
ATOM      7  O   LIG d   1       3.071  87.800 114.152  0.00  0.00    -0.368 OA
BRANCH   7   8
ATOM      8  C   LIG d   1       4.178  87.036 113.613  0.00  0.00     0.119 C 
BRANCH   8   9
ATOM      9  C   LIG d   1       5.428  87.936 113.659  0.00  0.00     0.028 C 
ATOM     10  C   LIG d   1       5.144  89.360 113.153  0.00  0.00     0.006 C 
ENDBRANCH   8   9
BRANCH   8  11
ATOM     11  C   LIG d   1       3.964  86.714 112.131  0.00  0.00     0.028 C 
ATOM     12  C   LIG d   1       2.530  87.004 111.659  0.00  0.00     0.006 C 
ENDBRANCH   8  11
ENDBRANCH   7   8
ENDBRANCH   1   7
BRANCH   6  13
ATOM     13  N   LIG d   1       4.053  89.261 116.598  0.00  0.00    -0.311 N 
ATOM     14  C   LIG d   1       4.437  90.537 116.612  0.00  0.00     0.210 C 
ATOM     15  C   LIG d   1       5.928  90.761 116.882  0.00  0.00     0.109 C 
ATOM     16  O   LIG d   1       3.677  91.505 116.459  0.00  0.00    -0.276 OA
ATOM     17  H   LIG d   1       4.729  88.541 116.763  0.00  0.00     0.149 HD
ENDBRANCH   6  13
BRANCH   5  18
ATOM     18  N   LIG d   1       1.662  89.915 118.383  0.00  0.00     0.381 N 
ATOM     19  H   LIG d   1       1.474  90.663 117.745  0.00  0.00    -0.090 HD
ATOM     20  H   LIG d   1       2.513  90.125 118.873  0.00  0.00    -0.090 HD
ATOM     21  H   LIG d   1       0.910  89.825 119.030  0.00  0.00    -0.090 HD
ENDBRANCH   5  18
BRANCH   3  22
ATOM     22  C   LIG d   1      -0.554  86.076 116.569  0.00  0.00     0.382 C 
ATOM     23  O   LIG d   1      -1.005  85.515 115.541  0.00  0.00    -0.241 OA
ATOM     24  O   LIG d   1      -1.071  85.835 117.676  0.00  0.00    -0.241 OA
ENDBRANCH   3  22
TORSDOF 7
ENDMDL
MODEL 6
REMARK VINA RESULT:      -4.7      2.184      4.295
REMARK  7 active torsions:
REMARK  status: ('A' for Active; 'I' for Inactive)
REMARK    1  A    between atoms: C_2  and  C_3 
REMARK    2  A    between atoms: C_3  and  O_6 
REMARK    3  A    between atoms: C_3  and  C_4 
REMARK    4  A    between atoms: C_7  and  O_6 
REMARK    5  A    between atoms: C_9  and  C_10 
REMARK    6  A    between atoms: N_15  and  C_14 
REMARK    7  A    between atoms: N_20  and  C_19 
REMARK       I    between atoms: C_22  and  N_20 
ROOT
ATOM      1  C   LIG d   1      -6.181  91.287 118.172  0.00  0.00     0.161 C 
ATOM      2  C   LIG d   1      -6.921  92.480 118.172  0.00  0.00     0.016 C 
ATOM      3  C   LIG d   1      -6.342  93.755 118.366  0.00  0.00     0.038 C 
ATOM      4  C   LIG d   1      -4.952  93.938 118.421  0.00  0.00     0.028 C 
ATOM      5  C   LIG d   1      -4.200  92.713 118.930  0.00  0.00    -0.047 C 
ATOM      6  C   LIG d   1      -4.650  91.475 118.119  0.00  0.00     0.091 C 
ENDROOT
BRANCH   1   7
ATOM      7  O   LIG d   1      -6.618  90.441 117.090  0.00  0.00    -0.368 OA
BRANCH   7   8
ATOM      8  C   LIG d   1      -7.121  91.120 115.913  0.00  0.00     0.119 C 
BRANCH   8   9
ATOM      9  C   LIG d   1      -8.455  90.452 115.528  0.00  0.00     0.028 C 
ATOM     10  C   LIG d   1      -8.672  89.112 116.252  0.00  0.00     0.006 C 
ENDBRANCH   8   9
BRANCH   8  11
ATOM     11  C   LIG d   1      -6.198  90.906 114.709  0.00  0.00     0.028 C 
ATOM     12  C   LIG d   1      -5.409  89.590 114.790  0.00  0.00     0.006 C 
ENDBRANCH   8  11
ENDBRANCH   7   8
ENDBRANCH   1   7
BRANCH   6  13
ATOM     13  N   LIG d   1      -4.025  90.219 118.609  0.00  0.00    -0.311 N 
ATOM     14  C   LIG d   1      -2.861  89.755 118.158  0.00  0.00     0.210 C 
ATOM     15  C   LIG d   1      -2.406  88.433 118.783  0.00  0.00     0.109 C 
ATOM     16  O   LIG d   1      -2.146  90.330 117.323  0.00  0.00    -0.276 OA
ATOM     17  H   LIG d   1      -4.522  89.705 119.310  0.00  0.00     0.149 HD
ENDBRANCH   6  13
BRANCH   5  18
ATOM     18  N   LIG d   1      -2.757  92.992 118.806  0.00  0.00     0.381 N 
ATOM     19  H   LIG d   1      -2.274  92.161 118.529  0.00  0.00    -0.090 HD
ATOM     20  H   LIG d   1      -2.404  93.279 119.701  0.00  0.00    -0.090 HD
ATOM     21  H   LIG d   1      -2.606  93.712 118.134  0.00  0.00    -0.090 HD
ENDBRANCH   5  18
BRANCH   3  22
ATOM     22  C   LIG d   1      -7.159  94.861 118.546  0.00  0.00     0.382 C 
ATOM     23  O   LIG d   1      -6.664  96.014 118.542  0.00  0.00    -0.241 OA
ATOM     24  O   LIG d   1      -8.378  94.718 118.756  0.00  0.00    -0.241 OA
ENDBRANCH   3  22
TORSDOF 7
ENDMDL
MODEL 7
REMARK VINA RESULT:      -4.6      9.443     12.162
REMARK  7 active torsions:
REMARK  status: ('A' for Active; 'I' for Inactive)
REMARK    1  A    between atoms: C_2  and  C_3 
REMARK    2  A    between atoms: C_3  and  O_6 
REMARK    3  A    between atoms: C_3  and  C_4 
REMARK    4  A    between atoms: C_7  and  O_6 
REMARK    5  A    between atoms: C_9  and  C_10 
REMARK    6  A    between atoms: N_15  and  C_14 
REMARK    7  A    between atoms: N_20  and  C_19 
REMARK       I    between atoms: C_22  and  N_20 
ROOT
ATOM      1  C   LIG d   1       3.209  88.183 115.187  0.00  0.00     0.161 C 
ATOM      2  C   LIG d   1       2.805  87.256 114.211  0.00  0.00     0.016 C 
ATOM      3  C   LIG d   1       3.385  87.180 112.924  0.00  0.00     0.038 C 
ATOM      4  C   LIG d   1       4.518  87.930 112.576  0.00  0.00     0.028 C 
ATOM      5  C   LIG d   1       4.643  89.236 113.353  0.00  0.00    -0.047 C 
ATOM      6  C   LIG d   1       4.518  88.934 114.864  0.00  0.00     0.091 C 
ENDROOT
BRANCH   1   7
ATOM      7  O   LIG d   1       3.309  87.530 116.469  0.00  0.00    -0.368 OA
BRANCH   7   8
ATOM      8  C   LIG d   1       2.441  88.037 117.512  0.00  0.00     0.119 C 
BRANCH   8   9
ATOM      9  C   LIG d   1       1.914  86.826 118.305  0.00  0.00     0.028 C 
ATOM     10  C   LIG d   1       0.414  86.579 118.070  0.00  0.00     0.006 C 
ENDBRANCH   8   9
BRANCH   8  11
ATOM     11  C   LIG d   1       1.198  88.710 116.924  0.00  0.00     0.028 C 
ATOM     12  C   LIG d   1       1.111  90.206 117.266  0.00  0.00     0.006 C 
ENDBRANCH   8  11
ENDBRANCH   7   8
ENDBRANCH   1   7
BRANCH   6  13
ATOM     13  N   LIG d   1       4.545  90.167 115.693  0.00  0.00    -0.311 N 
ATOM     14  C   LIG d   1       5.338  90.322 116.752  0.00  0.00     0.210 C 
ATOM     15  C   LIG d   1       5.194  91.663 117.477  0.00  0.00     0.109 C 
ATOM     16  O   LIG d   1       6.170  89.488 117.139  0.00  0.00    -0.276 OA
ATOM     17  H   LIG d   1       3.923  90.907 115.430  0.00  0.00     0.149 HD
ENDBRANCH   6  13
BRANCH   5  18
ATOM     18  N   LIG d   1       5.936  89.848 112.992  0.00  0.00     0.381 N 
ATOM     19  H   LIG d   1       6.636  89.138 112.913  0.00  0.00    -0.090 HD
ATOM     20  H   LIG d   1       6.210  90.483 113.721  0.00  0.00    -0.090 HD
ATOM     21  H   LIG d   1       5.851  90.339 112.129  0.00  0.00    -0.090 HD
ENDBRANCH   5  18
BRANCH   3  22
ATOM     22  C   LIG d   1       2.805  86.374 111.956  0.00  0.00     0.382 C 
ATOM     23  O   LIG d   1       1.613  86.565 111.613  0.00  0.00    -0.241 OA
ATOM     24  O   LIG d   1       3.445  85.431 111.453  0.00  0.00    -0.241 OA
ENDBRANCH   3  22
TORSDOF 7
ENDMDL
MODEL 8
REMARK VINA RESULT:      -4.6      8.493     11.955
REMARK  7 active torsions:
REMARK  status: ('A' for Active; 'I' for Inactive)
REMARK    1  A    between atoms: C_2  and  C_3 
REMARK    2  A    between atoms: C_3  and  O_6 
REMARK    3  A    between atoms: C_3  and  C_4 
REMARK    4  A    between atoms: C_7  and  O_6 
REMARK    5  A    between atoms: C_9  and  C_10 
REMARK    6  A    between atoms: N_15  and  C_14 
REMARK    7  A    between atoms: N_20  and  C_19 
REMARK       I    between atoms: C_22  and  N_20 
ROOT
ATOM      1  C   LIG d   1       3.414  88.864 115.798  0.00  0.00     0.161 C 
ATOM      2  C   LIG d   1       3.016  88.447 114.518  0.00  0.00     0.016 C 
ATOM      3  C   LIG d   1       3.904  87.885 113.571  0.00  0.00     0.038 C 
ATOM      4  C   LIG d   1       5.229  87.563 113.898  0.00  0.00     0.028 C 
ATOM      5  C   LIG d   1       5.806  88.429 115.013  0.00  0.00    -0.047 C 
ATOM      6  C   LIG d   1       4.832  88.418 116.213  0.00  0.00     0.091 C 
ENDROOT
BRANCH   1   7
ATOM      7  O   LIG d   1       2.447  88.432 116.776  0.00  0.00    -0.368 OA
BRANCH   7   8
ATOM      8  C   LIG d   1       1.384  89.369 117.079  0.00  0.00     0.119 C 
BRANCH   8   9
ATOM      9  C   LIG d   1       1.766  90.096 118.383  0.00  0.00     0.028 C 
ATOM     10  C   LIG d   1       1.868  91.619 118.198  0.00  0.00     0.006 C 
ENDBRANCH   8   9
BRANCH   8  11
ATOM     11  C   LIG d   1       0.072  88.643 117.388  0.00  0.00     0.028 C 
ATOM     12  C   LIG d   1      -1.128  89.598 117.492  0.00  0.00     0.006 C 
ENDBRANCH   8  11
ENDBRANCH   7   8
ENDBRANCH   1   7
BRANCH   6  13
ATOM     13  N   LIG d   1       5.280  89.309 117.315  0.00  0.00    -0.311 N 
ATOM     14  C   LIG d   1       5.265  90.638 117.235  0.00  0.00     0.210 C 
ATOM     15  C   LIG d   1       5.788  91.367 118.477  0.00  0.00     0.109 C 
ATOM     16  O   LIG d   1       4.838  91.284 116.266  0.00  0.00    -0.276 OA
ATOM     17  H   LIG d   1       5.613  88.869 118.150  0.00  0.00     0.149 HD
ENDBRANCH   6  13
BRANCH   5  18
ATOM     18  N   LIG d   1       7.141  87.896 115.346  0.00  0.00     0.381 N 
ATOM     19  H   LIG d   1       7.821  88.627 115.290  0.00  0.00    -0.090 HD
ATOM     20  H   LIG d   1       7.384  87.187 114.677  0.00  0.00    -0.090 HD
ATOM     21  H   LIG d   1       7.133  87.509 116.264  0.00  0.00    -0.090 HD
ENDBRANCH   5  18
BRANCH   3  22
ATOM     22  C   LIG d   1       3.478  87.678 112.268  0.00  0.00     0.382 C 
ATOM     23  O   LIG d   1       4.128  86.920 111.509  0.00  0.00    -0.241 OA
ATOM     24  O   LIG d   1       2.477  88.274 111.828  0.00  0.00    -0.241 OA
ENDBRANCH   3  22
TORSDOF 7
ENDMDL
MODEL 9
REMARK VINA RESULT:      -4.5      6.082      8.983
REMARK  7 active torsions:
REMARK  status: ('A' for Active; 'I' for Inactive)
REMARK    1  A    between atoms: C_2  and  C_3 
REMARK    2  A    between atoms: C_3  and  O_6 
REMARK    3  A    between atoms: C_3  and  C_4 
REMARK    4  A    between atoms: C_7  and  O_6 
REMARK    5  A    between atoms: C_9  and  C_10 
REMARK    6  A    between atoms: N_15  and  C_14 
REMARK    7  A    between atoms: N_20  and  C_19 
REMARK       I    between atoms: C_22  and  N_20 
ROOT
ATOM      1  C   LIG d   1       0.892  88.512 117.034  0.00  0.00     0.161 C 
ATOM      2  C   LIG d   1      -0.483  88.611 117.303  0.00  0.00     0.016 C 
ATOM      3  C   LIG d   1      -1.103  89.796 117.764  0.00  0.00     0.038 C 
ATOM      4  C   LIG d   1      -0.409  91.013 117.843  0.00  0.00     0.028 C 
ATOM      5  C   LIG d   1       1.090  90.842 118.064  0.00  0.00    -0.047 C 
ATOM      6  C   LIG d   1       1.644  89.859 117.007  0.00  0.00     0.091 C 
ENDROOT
BRANCH   1   7
ATOM      7  O   LIG d   1       1.097  87.799 115.798  0.00  0.00    -0.368 OA
BRANCH   7   8
ATOM      8  C   LIG d   1       1.499  86.413 115.921  0.00  0.00     0.119 C 
BRANCH   8   9
ATOM      9  C   LIG d   1       2.944  86.301 115.398  0.00  0.00     0.028 C 
ATOM     10  C   LIG d   1       3.134  87.005 114.044  0.00  0.00     0.006 C 
ENDBRANCH   8   9
BRANCH   8  11
ATOM     11  C   LIG d   1       0.666  85.508 115.009  0.00  0.00     0.028 C 
ATOM     12  C   LIG d   1      -0.809  85.430 115.432  0.00  0.00     0.006 C 
ENDBRANCH   8  11
ENDBRANCH   7   8
ENDBRANCH   1   7
BRANCH   6  13
ATOM     13  N   LIG d   1       3.089  89.571 117.204  0.00  0.00    -0.311 N 
ATOM     14  C   LIG d   1       4.020  89.832 116.288  0.00  0.00     0.210 C 
ATOM     15  C   LIG d   1       5.446  89.438 116.685  0.00  0.00     0.109 C 
ATOM     16  O   LIG d   1       3.805  90.382 115.198  0.00  0.00    -0.276 OA
ATOM     17  H   LIG d   1       3.356  89.153 118.074  0.00  0.00     0.149 HD
ENDBRANCH   6  13
BRANCH   5  18
ATOM     18  N   LIG d   1       1.707  92.180 117.988  0.00  0.00     0.381 N 
ATOM     19  H   LIG d   1       1.474  92.611 117.115  0.00  0.00    -0.090 HD
ATOM     20  H   LIG d   1       2.705  92.081 118.035  0.00  0.00    -0.090 HD
ATOM     21  H   LIG d   1       1.386  92.746 118.742  0.00  0.00    -0.090 HD
ENDBRANCH   5  18
BRANCH   3  22
ATOM     22  C   LIG d   1      -2.422  89.761 118.190  0.00  0.00     0.382 C 
ATOM     23  O   LIG d   1      -3.017  88.661 118.298  0.00  0.00    -0.241 OA
ATOM     24  O   LIG d   1      -3.038  90.817 118.425  0.00  0.00    -0.241 OA
ENDBRANCH   3  22
TORSDOF 7
ENDMDL
