MODEL 1
REMARK VINA RESULT:      -5.0      0.000      0.000
REMARK  7 active torsions:
REMARK  status: ('A' for Active; 'I' for Inactive)
REMARK    1  A    between atoms: C_2  and  C_3 
REMARK    2  A    between atoms: C_3  and  O_6 
REMARK    3  A    between atoms: C_3  and  C_4 
REMARK    4  A    between atoms: C_7  and  O_6 
REMARK    5  A    between atoms: C_9  and  C_10 
REMARK    6  A    between atoms: N_15  and  C_14 
REMARK    7  A    between atoms: N_20  and  C_19 
REMARK       I    between atoms: C_22  and  N_20 
ROOT
ATOM      1  C   LIG d   1       3.816  89.260 115.485  0.00  0.00     0.161 C 
ATOM      2  C   LIG d   1       3.018  88.719 114.463  0.00  0.00     0.016 C 
ATOM      3  C   LIG d   1       3.529  88.314 113.208  0.00  0.00     0.038 C 
ATOM      4  C   LIG d   1       4.906  88.283 112.944  0.00  0.00     0.028 C 
ATOM      5  C   LIG d   1       5.704  89.292 113.762  0.00  0.00    -0.047 C 
ATOM      6  C   LIG d   1       5.337  89.130 115.255  0.00  0.00     0.091 C 
ENDROOT
BRANCH   1   7
ATOM      7  O   LIG d   1       3.449  88.678 116.751  0.00  0.00    -0.368 OA
BRANCH   7   8
ATOM      8  C   LIG d   1       2.694  89.528 117.648  0.00  0.00     0.119 C 
BRANCH   8   9
ATOM      9  C   LIG d   1       1.213  89.117 117.538  0.00  0.00     0.028 C 
ATOM     10  C   LIG d   1       0.338  90.231 116.938  0.00  0.00     0.006 C 
ENDBRANCH   8   9
BRANCH   8  11
ATOM     11  C   LIG d   1       2.743  90.992 117.201  0.00  0.00     0.028 C 
ATOM     12  C   LIG d   1       3.569  91.877 118.148  0.00  0.00     0.006 C 
ENDBRANCH   8  11
ENDBRANCH   7   8
ENDBRANCH   1   7
BRANCH   6  13
ATOM     13  N   LIG d   1       6.009  90.136 116.117  0.00  0.00    -0.311 N 
ATOM     14  C   LIG d   1       7.158  89.907 116.752  0.00  0.00     0.210 C 
ATOM     15  C   LIG d   1       7.669  91.073 117.604  0.00  0.00     0.109 C 
ATOM     16  O   LIG d   1       7.819  88.861 116.663  0.00  0.00    -0.276 OA
ATOM     17  H   LIG d   1       5.558  91.024 116.219  0.00  0.00     0.149 HD
ENDBRANCH   6  13
BRANCH   5  18
ATOM     18  N   LIG d   1       7.134  89.057 113.489  0.00  0.00     0.381 N 
ATOM     19  H   LIG d   1       7.644  89.035 114.350  0.00  0.00    -0.090 HD
ATOM     20  H   LIG d   1       7.488  89.815 112.933  0.00  0.00    -0.090 HD
ATOM     21  H   LIG d   1       7.251  88.195 113.003  0.00  0.00    -0.090 HD
ENDBRANCH   5  18
BRANCH   3  22
ATOM     22  C   LIG d   1       2.654  87.973 112.188  0.00  0.00     0.382 C 
ATOM     23  O   LIG d   1       2.878  86.959 111.483  0.00  0.00    -0.241 OA
ATOM     24  O   LIG d   1       1.668  88.690 111.935  0.00  0.00    -0.241 OA
ENDBRANCH   3  22
TORSDOF 7
ENDMDL
MODEL 2
REMARK VINA RESULT:      -4.6      8.244     11.177
REMARK  7 active torsions:
REMARK  status: ('A' for Active; 'I' for Inactive)
REMARK    1  A    between atoms: C_2  and  C_3 
REMARK    2  A    between atoms: C_3  and  O_6 
REMARK    3  A    between atoms: C_3  and  C_4 
REMARK    4  A    between atoms: C_7  and  O_6 
REMARK    5  A    between atoms: C_9  and  C_10 
REMARK    6  A    between atoms: N_15  and  C_14 
REMARK    7  A    between atoms: N_20  and  C_19 
REMARK       I    between atoms: C_22  and  N_20 
ROOT
ATOM      1  C   LIG d   1      -5.744  91.318 118.837  0.00  0.00     0.161 C 
ATOM      2  C   LIG d   1      -6.871  92.155 118.792  0.00  0.00     0.016 C 
ATOM      3  C   LIG d   1      -6.797  93.551 118.581  0.00  0.00     0.038 C 
ATOM      4  C   LIG d   1      -5.591  94.187 118.249  0.00  0.00     0.028 C 
ATOM      5  C   LIG d   1      -4.358  93.465 118.781  0.00  0.00    -0.047 C 
ATOM      6  C   LIG d   1      -4.430  91.977 118.366  0.00  0.00     0.091 C 
ENDROOT
BRANCH   1   7
ATOM      7  O   LIG d   1      -5.998  90.115 118.086  0.00  0.00    -0.368 OA
BRANCH   7   8
ATOM      8  C   LIG d   1      -6.668  90.287 116.813  0.00  0.00     0.119 C 
BRANCH   8   9
ATOM      9  C   LIG d   1      -7.178  88.903 116.367  0.00  0.00     0.028 C 
ATOM     10  C   LIG d   1      -8.432  88.997 115.482  0.00  0.00     0.006 C 
ENDBRANCH   8   9
BRANCH   8  11
ATOM     11  C   LIG d   1      -5.688  90.729 115.723  0.00  0.00     0.028 C 
ATOM     12  C   LIG d   1      -6.238  91.872 114.855  0.00  0.00     0.006 C 
ENDBRANCH   8  11
ENDBRANCH   7   8
ENDBRANCH   1   7
BRANCH   6  13
ATOM     13  N   LIG d   1      -3.304  91.180 118.918  0.00  0.00    -0.311 N 
ATOM     14  C   LIG d   1      -2.353  90.634 118.162  0.00  0.00     0.210 C 
ATOM     15  C   LIG d   1      -1.295  89.835 118.930  0.00  0.00     0.109 C 
ATOM     16  O   LIG d   1      -2.267  90.763 116.931  0.00  0.00    -0.276 OA
ATOM     17  H   LIG d   1      -3.279  91.052 119.910  0.00  0.00     0.149 HD
ENDBRANCH   6  13
BRANCH   5  18
ATOM     18  N   LIG d   1      -3.171  94.157 118.246  0.00  0.00     0.381 N 
ATOM     19  H   LIG d   1      -3.296  94.341 117.271  0.00  0.00    -0.090 HD
ATOM     20  H   LIG d   1      -2.370  93.560 118.354  0.00  0.00    -0.090 HD
ATOM     21  H   LIG d   1      -3.025  95.012 118.736  0.00  0.00    -0.090 HD
ENDBRANCH   5  18
BRANCH   3  22
ATOM     22  C   LIG d   1      -7.931  94.332 118.742  0.00  0.00     0.382 C 
ATOM     23  O   LIG d   1      -9.047  93.787 118.922  0.00  0.00    -0.241 OA
ATOM     24  O   LIG d   1      -7.860  95.573 118.665  0.00  0.00    -0.241 OA
ENDBRANCH   3  22
TORSDOF 7
ENDMDL
MODEL 3
REMARK VINA RESULT:      -4.5      1.994      5.040
REMARK  7 active torsions:
REMARK  status: ('A' for Active; 'I' for Inactive)
REMARK    1  A    between atoms: C_2  and  C_3 
REMARK    2  A    between atoms: C_3  and  O_6 
REMARK    3  A    between atoms: C_3  and  C_4 
REMARK    4  A    between atoms: C_7  and  O_6 
REMARK    5  A    between atoms: C_9  and  C_10 
REMARK    6  A    between atoms: N_15  and  C_14 
REMARK    7  A    between atoms: N_20  and  C_19 
REMARK       I    between atoms: C_22  and  N_20 
ROOT
ATOM      1  C   LIG d   1       3.996  89.577 115.950  0.00  0.00     0.161 C 
ATOM      2  C   LIG d   1       2.802  90.288 116.155  0.00  0.00     0.016 C 
ATOM      3  C   LIG d   1       2.632  91.245 117.182  0.00  0.00     0.038 C 
ATOM      4  C   LIG d   1       3.702  91.667 117.986  0.00  0.00     0.028 C 
ATOM      5  C   LIG d   1       4.792  90.613 118.146  0.00  0.00    -0.047 C 
ATOM      6  C   LIG d   1       5.208  90.104 116.747  0.00  0.00     0.091 C 
ENDROOT
BRANCH   1   7
ATOM      7  O   LIG d   1       4.303  89.532 114.543  0.00  0.00    -0.368 OA
BRANCH   7   8
ATOM      8  C   LIG d   1       4.211  88.231 113.911  0.00  0.00     0.119 C 
BRANCH   8   9
ATOM      9  C   LIG d   1       5.392  88.109 112.929  0.00  0.00     0.028 C 
ATOM     10  C   LIG d   1       6.505  89.129 113.220  0.00  0.00     0.006 C 
ENDBRANCH   8   9
BRANCH   8  11
ATOM     11  C   LIG d   1       2.951  88.119 113.047  0.00  0.00     0.028 C 
ATOM     12  C   LIG d   1       3.035  86.981 112.017  0.00  0.00     0.006 C 
ENDBRANCH   8  11
ENDBRANCH   7   8
ENDBRANCH   1   7
BRANCH   6  13
ATOM     13  N   LIG d   1       6.211  89.010 116.816  0.00  0.00    -0.311 N 
ATOM     14  C   LIG d   1       7.526  89.218 116.780  0.00  0.00     0.210 C 
ATOM     15  C   LIG d   1       8.383  87.950 116.844  0.00  0.00     0.109 C 
ATOM     16  O   LIG d   1       8.065  90.334 116.733  0.00  0.00    -0.276 OA
ATOM     17  H   LIG d   1       5.861  88.075 116.887  0.00  0.00     0.149 HD
ENDBRANCH   6  13
BRANCH   5  18
ATOM     18  N   LIG d   1       5.905  91.233 118.890  0.00  0.00     0.381 N 
ATOM     19  H   LIG d   1       6.615  91.530 118.251  0.00  0.00    -0.090 HD
ATOM     20  H   LIG d   1       6.304  90.548 119.508  0.00  0.00    -0.090 HD
ATOM     21  H   LIG d   1       5.573  92.011 119.415  0.00  0.00    -0.090 HD
ENDBRANCH   5  18
BRANCH   3  22
ATOM     22  C   LIG d   1       1.371  91.760 117.440  0.00  0.00     0.382 C 
ATOM     23  O   LIG d   1       1.248  92.801 118.129  0.00  0.00    -0.241 OA
ATOM     24  O   LIG d   1       0.352  91.173 117.029  0.00  0.00    -0.241 OA
ENDBRANCH   3  22
TORSDOF 7
ENDMDL
MODEL 4
REMARK VINA RESULT:      -4.4      6.352      8.922
REMARK  7 active torsions:
REMARK  status: ('A' for Active; 'I' for Inactive)
REMARK    1  A    between atoms: C_2  and  C_3 
REMARK    2  A    between atoms: C_3  and  O_6 
REMARK    3  A    between atoms: C_3  and  C_4 
REMARK    4  A    between atoms: C_7  and  O_6 
REMARK    5  A    between atoms: C_9  and  C_10 
REMARK    6  A    between atoms: N_15  and  C_14 
REMARK    7  A    between atoms: N_20  and  C_19 
REMARK       I    between atoms: C_22  and  N_20 
ROOT
ATOM      1  C   LIG d   1      -2.990  91.994 117.725  0.00  0.00     0.161 C 
ATOM      2  C   LIG d   1      -2.782  93.382 117.790  0.00  0.00     0.016 C 
ATOM      3  C   LIG d   1      -1.536  93.968 118.111  0.00  0.00     0.038 C 
ATOM      4  C   LIG d   1      -0.368  93.201 118.242  0.00  0.00     0.028 C 
ATOM      5  C   LIG d   1      -0.632  91.766 118.683  0.00  0.00    -0.047 C 
ATOM      6  C   LIG d   1      -1.702  91.145 117.756  0.00  0.00     0.091 C 
ENDROOT
BRANCH   1   7
ATOM      7  O   LIG d   1      -3.775  91.671 116.561  0.00  0.00    -0.368 OA
BRANCH   7   8
ATOM      8  C   LIG d   1      -5.176  91.384 116.795  0.00  0.00     0.119 C 
BRANCH   8   9
ATOM      9  C   LIG d   1      -5.543  90.148 115.953  0.00  0.00     0.028 C 
ATOM     10  C   LIG d   1      -6.419  90.503 114.739  0.00  0.00     0.006 C 
ENDBRANCH   8   9
BRANCH   8  11
ATOM     11  C   LIG d   1      -6.071  92.512 116.272  0.00  0.00     0.028 C 
ATOM     12  C   LIG d   1      -6.528  93.473 117.381  0.00  0.00     0.006 C 
ENDBRANCH   8  11
ENDBRANCH   7   8
ENDBRANCH   1   7
BRANCH   6  13
ATOM     13  N   LIG d   1      -2.081  89.768 118.170  0.00  0.00    -0.311 N 
ATOM     14  C   LIG d   1      -1.446  88.676 117.749  0.00  0.00     0.210 C 
ATOM     15  C   LIG d   1      -2.011  87.355 118.281  0.00  0.00     0.109 C 
ATOM     16  O   LIG d   1      -0.449  88.677 117.011  0.00  0.00    -0.276 OA
ATOM     17  H   LIG d   1      -2.860  89.677 118.792  0.00  0.00     0.149 HD
ENDBRANCH   6  13
BRANCH   5  18
ATOM     18  N   LIG d   1       0.654  91.044 118.645  0.00  0.00     0.381 N 
ATOM     19  H   LIG d   1       0.488  90.059 118.585  0.00  0.00    -0.090 HD
ATOM     20  H   LIG d   1       1.155  91.228 119.497  0.00  0.00    -0.090 HD
ATOM     21  H   LIG d   1       1.192  91.347 117.863  0.00  0.00    -0.090 HD
ENDBRANCH   5  18
BRANCH   3  22
ATOM     22  C   LIG d   1      -1.458  95.332 118.343  0.00  0.00     0.382 C 
ATOM     23  O   LIG d   1      -2.484  95.971 118.679  0.00  0.00    -0.241 OA
ATOM     24  O   LIG d   1      -0.383  95.941 118.178  0.00  0.00    -0.241 OA
ENDBRANCH   3  22
TORSDOF 7
ENDMDL
MODEL 5
REMARK VINA RESULT:      -4.4      1.543      4.701
REMARK  7 active torsions:
REMARK  status: ('A' for Active; 'I' for Inactive)
REMARK    1  A    between atoms: C_2  and  C_3 
REMARK    2  A    between atoms: C_3  and  O_6 
REMARK    3  A    between atoms: C_3  and  C_4 
REMARK    4  A    between atoms: C_7  and  O_6 
REMARK    5  A    between atoms: C_9  and  C_10 
REMARK    6  A    between atoms: N_15  and  C_14 
REMARK    7  A    between atoms: N_20  and  C_19 
REMARK       I    between atoms: C_22  and  N_20 
ROOT
ATOM      1  C   LIG d   1       4.487  87.623 115.531  0.00  0.00     0.161 C 
ATOM      2  C   LIG d   1       5.341  88.114 116.533  0.00  0.00     0.016 C 
ATOM      3  C   LIG d   1       6.458  88.939 116.267  0.00  0.00     0.038 C 
ATOM      4  C   LIG d   1       6.710  89.456 114.987  0.00  0.00     0.028 C 
ATOM      5  C   LIG d   1       6.169  88.580 113.863  0.00  0.00    -0.047 C 
ATOM      6  C   LIG d   1       4.681  88.267 114.142  0.00  0.00     0.091 C 
ENDROOT
BRANCH   1   7
ATOM      7  O   LIG d   1       3.114  87.749 115.954  0.00  0.00    -0.368 OA
BRANCH   7   8
ATOM      8  C   LIG d   1       2.866  88.668 117.047  0.00  0.00     0.119 C 
BRANCH   8   9
ATOM      9  C   LIG d   1       1.736  88.071 117.906  0.00  0.00     0.028 C 
ATOM     10  C   LIG d   1       0.340  88.485 117.411  0.00  0.00     0.006 C 
ENDBRANCH   8   9
BRANCH   8  11
ATOM     11  C   LIG d   1       2.324  90.007 116.537  0.00  0.00     0.028 C 
ATOM     12  C   LIG d   1       3.171  91.205 116.992  0.00  0.00     0.006 C 
ENDBRANCH   8  11
ENDBRANCH   7   8
ENDBRANCH   1   7
BRANCH   6  13
ATOM     13  N   LIG d   1       4.096  87.345 113.134  0.00  0.00    -0.311 N 
ATOM     14  C   LIG d   1       3.021  87.642 112.406  0.00  0.00     0.210 C 
ATOM     15  C   LIG d   1       2.572  86.543 111.438  0.00  0.00     0.109 C 
ATOM     16  O   LIG d   1       2.416  88.724 112.446  0.00  0.00    -0.276 OA
ATOM     17  H   LIG d   1       4.543  86.458 113.014  0.00  0.00     0.149 HD
ENDBRANCH   6  13
BRANCH   5  18
ATOM     18  N   LIG d   1       6.379  89.303 112.594  0.00  0.00     0.381 N 
ATOM     19  H   LIG d   1       6.949  90.109 112.754  0.00  0.00    -0.090 HD
ATOM     20  H   LIG d   1       5.488  89.611 112.244  0.00  0.00    -0.090 HD
ATOM     21  H   LIG d   1       6.816  88.704 111.929  0.00  0.00    -0.090 HD
ENDBRANCH   5  18
BRANCH   3  22
ATOM     22  C   LIG d   1       7.360  89.222 117.281  0.00  0.00     0.382 C 
ATOM     23  O   LIG d   1       8.253  90.085 117.103  0.00  0.00    -0.241 OA
ATOM     24  O   LIG d   1       7.319  88.595 118.356  0.00  0.00    -0.241 OA
ENDBRANCH   3  22
TORSDOF 7
ENDMDL
MODEL 6
REMARK VINA RESULT:      -4.3      4.501      7.088
REMARK  7 active torsions:
REMARK  status: ('A' for Active; 'I' for Inactive)
REMARK    1  A    between atoms: C_2  and  C_3 
REMARK    2  A    between atoms: C_3  and  O_6 
REMARK    3  A    between atoms: C_3  and  C_4 
REMARK    4  A    between atoms: C_7  and  O_6 
REMARK    5  A    between atoms: C_9  and  C_10 
REMARK    6  A    between atoms: N_15  and  C_14 
REMARK    7  A    between atoms: N_20  and  C_19 
REMARK       I    between atoms: C_22  and  N_20 
ROOT
ATOM      1  C   LIG d   1      -0.928  90.730 117.798  0.00  0.00     0.161 C 
ATOM      2  C   LIG d   1      -2.289  90.931 117.516  0.00  0.00     0.016 C 
ATOM      3  C   LIG d   1      -2.888  92.209 117.442  0.00  0.00     0.038 C 
ATOM      4  C   LIG d   1      -2.130  93.388 117.496  0.00  0.00     0.028 C 
ATOM      5  C   LIG d   1      -0.832  93.237 118.283  0.00  0.00    -0.047 C 
ATOM      6  C   LIG d   1      -0.062  92.007 117.750  0.00  0.00     0.091 C 
ENDROOT
BRANCH   1   7
ATOM      7  O   LIG d   1      -0.389  89.726 116.916  0.00  0.00    -0.368 OA
BRANCH   7   8
ATOM      8  C   LIG d   1       0.052  88.497 117.543  0.00  0.00     0.119 C 
BRANCH   8   9
ATOM      9  C   LIG d   1       1.393  88.101 116.896  0.00  0.00     0.028 C 
ATOM     10  C   LIG d   1       2.482  87.798 117.939  0.00  0.00     0.006 C 
ENDBRANCH   8   9
BRANCH   8  11
ATOM     11  C   LIG d   1      -0.904  87.340 117.235  0.00  0.00     0.028 C 
ATOM     12  C   LIG d   1      -2.037  87.212 118.265  0.00  0.00     0.006 C 
ENDBRANCH   8  11
ENDBRANCH   7   8
ENDBRANCH   1   7
BRANCH   6  13
ATOM     13  N   LIG d   1       1.179  91.738 118.521  0.00  0.00    -0.311 N 
ATOM     14  C   LIG d   1       2.369  91.552 117.953  0.00  0.00     0.210 C 
ATOM     15  C   LIG d   1       3.515  91.268 118.930  0.00  0.00     0.109 C 
ATOM     16  O   LIG d   1       2.591  91.626 116.735  0.00  0.00    -0.276 OA
ATOM     17  H   LIG d   1       1.096  91.691 119.518  0.00  0.00     0.149 HD
ENDBRANCH   6  13
BRANCH   5  18
ATOM     18  N   LIG d   1      -0.077  94.497 118.142  0.00  0.00     0.381 N 
ATOM     19  H   LIG d   1      -0.210  94.871 117.224  0.00  0.00    -0.090 HD
ATOM     20  H   LIG d   1       0.902  94.304 118.266  0.00  0.00    -0.090 HD
ATOM     21  H   LIG d   1      -0.382  95.155 118.825  0.00  0.00    -0.090 HD
ENDBRANCH   5  18
BRANCH   3  22
ATOM     22  C   LIG d   1      -4.268  92.318 117.351  0.00  0.00     0.382 C 
ATOM     23  O   LIG d   1      -4.944  92.589 118.373  0.00  0.00    -0.241 OA
ATOM     24  O   LIG d   1      -4.849  92.103 116.270  0.00  0.00    -0.241 OA
ENDBRANCH   3  22
TORSDOF 7
ENDMDL
MODEL 7
REMARK VINA RESULT:      -4.3      5.704      8.949
REMARK  7 active torsions:
REMARK  status: ('A' for Active; 'I' for Inactive)
REMARK    1  A    between atoms: C_2  and  C_3 
REMARK    2  A    between atoms: C_3  and  O_6 
REMARK    3  A    between atoms: C_3  and  C_4 
REMARK    4  A    between atoms: C_7  and  O_6 
REMARK    5  A    between atoms: C_9  and  C_10 
REMARK    6  A    between atoms: N_15  and  C_14 
REMARK    7  A    between atoms: N_20  and  C_19 
REMARK       I    between atoms: C_22  and  N_20 
ROOT
ATOM      1  C   LIG d   1      -1.583  90.921 117.489  0.00  0.00     0.161 C 
ATOM      2  C   LIG d   1      -0.666  91.868 117.975  0.00  0.00     0.016 C 
ATOM      3  C   LIG d   1      -1.028  93.183 118.348  0.00  0.00     0.038 C 
ATOM      4  C   LIG d   1      -2.368  93.594 118.404  0.00  0.00     0.028 C 
ATOM      5  C   LIG d   1      -3.276  92.835 117.443  0.00  0.00    -0.047 C 
ATOM      6  C   LIG d   1      -3.066  91.317 117.648  0.00  0.00     0.091 C 
ENDROOT
BRANCH   1   7
ATOM      7  O   LIG d   1      -1.337  89.642 118.105  0.00  0.00    -0.368 OA
BRANCH   7   8
ATOM      8  C   LIG d   1      -0.446  88.751 117.390  0.00  0.00     0.119 C 
BRANCH   8   9
ATOM      9  C   LIG d   1      -1.002  87.322 117.539  0.00  0.00     0.028 C 
ATOM     10  C   LIG d   1      -2.462  87.307 118.021  0.00  0.00     0.006 C 
ENDBRANCH   8   9
BRANCH   8  11
ATOM     11  C   LIG d   1       0.942  88.716 118.037  0.00  0.00     0.028 C 
ATOM     12  C   LIG d   1       2.050  89.218 117.097  0.00  0.00     0.006 C 
ENDBRANCH   8  11
ENDBRANCH   7   8
ENDBRANCH   1   7
BRANCH   6  13
ATOM     13  N   LIG d   1      -3.855  90.501 116.689  0.00  0.00    -0.311 N 
ATOM     14  C   LIG d   1      -5.006  89.909 117.003  0.00  0.00     0.210 C 
ATOM     15  C   LIG d   1      -5.646  89.098 115.872  0.00  0.00     0.109 C 
ATOM     16  O   LIG d   1      -5.574  90.005 118.102  0.00  0.00    -0.276 OA
ATOM     17  H   LIG d   1      -3.483  90.396 115.765  0.00  0.00     0.149 HD
ENDBRANCH   6  13
BRANCH   5  18
ATOM     18  N   LIG d   1      -4.662  93.267 117.704  0.00  0.00     0.381 N 
ATOM     19  H   LIG d   1      -5.022  93.752 116.906  0.00  0.00    -0.090 HD
ATOM     20  H   LIG d   1      -4.664  93.900 118.484  0.00  0.00    -0.090 HD
ATOM     21  H   LIG d   1      -5.234  92.476 117.906  0.00  0.00    -0.090 HD
ENDBRANCH   5  18
BRANCH   3  22
ATOM     22  C   LIG d   1      -0.041  94.113 118.632  0.00  0.00     0.382 C 
ATOM     23  O   LIG d   1      -0.292  95.340 118.548  0.00  0.00    -0.241 OA
ATOM     24  O   LIG d   1       1.111  93.742 118.929  0.00  0.00    -0.241 OA
ENDBRANCH   3  22
TORSDOF 7
ENDMDL
MODEL 8
REMARK VINA RESULT:      -4.0      1.591      2.121
REMARK  7 active torsions:
REMARK  status: ('A' for Active; 'I' for Inactive)
REMARK    1  A    between atoms: C_2  and  C_3 
REMARK    2  A    between atoms: C_3  and  O_6 
REMARK    3  A    between atoms: C_3  and  C_4 
REMARK    4  A    between atoms: C_7  and  O_6 
REMARK    5  A    between atoms: C_9  and  C_10 
REMARK    6  A    between atoms: N_15  and  C_14 
REMARK    7  A    between atoms: N_20  and  C_19 
REMARK       I    between atoms: C_22  and  N_20 
ROOT
ATOM      1  C   LIG d   1       3.429  88.532 115.805  0.00  0.00     0.161 C 
ATOM      2  C   LIG d   1       2.839  88.101 114.605  0.00  0.00     0.016 C 
ATOM      3  C   LIG d   1       3.518  88.086 113.365  0.00  0.00     0.038 C 
ATOM      4  C   LIG d   1       4.891  88.362 113.269  0.00  0.00     0.028 C 
ATOM      5  C   LIG d   1       5.402  89.287 114.367  0.00  0.00    -0.047 C 
ATOM      6  C   LIG d   1       4.958  88.731 115.739  0.00  0.00     0.091 C 
ENDROOT
BRANCH   1   7
ATOM      7  O   LIG d   1       3.087  87.625 116.871  0.00  0.00    -0.368 OA
BRANCH   7   8
ATOM      8  C   LIG d   1       2.185  88.139 117.882  0.00  0.00     0.119 C 
BRANCH   8   9
ATOM      9  C   LIG d   1       1.155  87.035 118.189  0.00  0.00     0.028 C 
ATOM     10  C   LIG d   1       1.180  85.903 117.147  0.00  0.00     0.006 C 
ENDBRANCH   8   9
BRANCH   8  11
ATOM     11  C   LIG d   1       1.367  89.320 117.349  0.00  0.00     0.028 C 
ATOM     12  C   LIG d   1      -0.087  89.311 117.849  0.00  0.00     0.006 C 
ENDBRANCH   8  11
ENDBRANCH   7   8
ENDBRANCH   1   7
BRANCH   6  13
ATOM     13  N   LIG d   1       5.344  89.621 116.864  0.00  0.00    -0.311 N 
ATOM     14  C   LIG d   1       4.870  90.857 117.018  0.00  0.00     0.210 C 
ATOM     15  C   LIG d   1       5.414  91.612 118.235  0.00  0.00     0.109 C 
ATOM     16  O   LIG d   1       4.027  91.387 116.279  0.00  0.00    -0.276 OA
ATOM     17  H   LIG d   1       6.001  89.259 117.528  0.00  0.00     0.149 HD
ENDBRANCH   6  13
BRANCH   5  18
ATOM     18  N   LIG d   1       6.867  89.379 114.227  0.00  0.00     0.381 N 
ATOM     19  H   LIG d   1       7.238  89.984 114.932  0.00  0.00    -0.090 HD
ATOM     20  H   LIG d   1       7.084  89.772 113.328  0.00  0.00    -0.090 HD
ATOM     21  H   LIG d   1       7.275  88.473 114.308  0.00  0.00    -0.090 HD
ENDBRANCH   5  18
BRANCH   3  22
ATOM     22  C   LIG d   1       2.814  87.832 112.199  0.00  0.00     0.382 C 
ATOM     23  O   LIG d   1       3.135  86.861 111.471  0.00  0.00    -0.241 OA
ATOM     24  O   LIG d   1       1.890  88.587 111.841  0.00  0.00    -0.241 OA
ENDBRANCH   3  22
TORSDOF 7
ENDMDL
MODEL 9
REMARK VINA RESULT:      -3.9      5.914      8.296
REMARK  7 active torsions:
REMARK  status: ('A' for Active; 'I' for Inactive)
REMARK    1  A    between atoms: C_2  and  C_3 
REMARK    2  A    between atoms: C_3  and  O_6 
REMARK    3  A    between atoms: C_3  and  C_4 
REMARK    4  A    between atoms: C_7  and  O_6 
REMARK    5  A    between atoms: C_9  and  C_10 
REMARK    6  A    between atoms: N_15  and  C_14 
REMARK    7  A    between atoms: N_20  and  C_19 
REMARK       I    between atoms: C_22  and  N_20 
ROOT
ATOM      1  C   LIG d   1      -2.749  91.848 117.429  0.00  0.00     0.161 C 
ATOM      2  C   LIG d   1      -2.594  90.452 117.439  0.00  0.00     0.016 C 
ATOM      3  C   LIG d   1      -1.352  89.809 117.647  0.00  0.00     0.038 C 
ATOM      4  C   LIG d   1      -0.200  90.521 118.011  0.00  0.00     0.028 C 
ATOM      5  C   LIG d   1      -0.198  91.964 117.518  0.00  0.00    -0.047 C 
ATOM      6  C   LIG d   1      -1.525  92.639 117.935  0.00  0.00     0.091 C 
ENDROOT
BRANCH   1   7
ATOM      7  O   LIG d   1      -3.926  92.214 118.177  0.00  0.00    -0.368 OA
BRANCH   7   8
ATOM      8  C   LIG d   1      -5.034  92.739 117.405  0.00  0.00     0.119 C 
BRANCH   8   9
ATOM      9  C   LIG d   1      -5.775  93.758 118.292  0.00  0.00     0.028 C 
ATOM     10  C   LIG d   1      -7.204  94.039 117.795  0.00  0.00     0.006 C 
ENDBRANCH   8   9
BRANCH   8  11
ATOM     11  C   LIG d   1      -6.063  91.648 117.094  0.00  0.00     0.028 C 
ATOM     12  C   LIG d   1      -5.936  91.099 115.664  0.00  0.00     0.006 C 
ENDBRANCH   8  11
ENDBRANCH   7   8
ENDBRANCH   1   7
BRANCH   6  13
ATOM     13  N   LIG d   1      -1.641  94.028 117.419  0.00  0.00    -0.311 N 
ATOM     14  C   LIG d   1      -1.017  95.068 117.967  0.00  0.00     0.210 C 
ATOM     15  C   LIG d   1      -1.289  96.416 117.291  0.00  0.00     0.109 C 
ATOM     16  O   LIG d   1      -0.238  94.999 118.930  0.00  0.00    -0.276 OA
ATOM     17  H   LIG d   1      -2.228  94.170 116.621  0.00  0.00     0.149 HD
ENDBRANCH   6  13
BRANCH   5  18
ATOM     18  N   LIG d   1       0.991  92.627 118.084  0.00  0.00     0.381 N 
ATOM     19  H   LIG d   1       1.008  93.588 117.805  0.00  0.00    -0.090 HD
ATOM     20  H   LIG d   1       1.816  92.180 117.723  0.00  0.00    -0.090 HD
ATOM     21  H   LIG d   1       0.977  92.562 119.078  0.00  0.00    -0.090 HD
ENDBRANCH   5  18
BRANCH   3  22
ATOM     22  C   LIG d   1      -1.246  88.440 117.451  0.00  0.00     0.382 C 
ATOM     23  O   LIG d   1      -2.179  87.681 117.810  0.00  0.00    -0.241 OA
ATOM     24  O   LIG d   1      -0.211  87.951 116.960  0.00  0.00    -0.241 OA
ENDBRANCH   3  22
TORSDOF 7
ENDMDL
