MODEL 1
REMARK VINA RESULT:      -4.6      0.000      0.000
REMARK  7 active torsions:
REMARK  status: ('A' for Active; 'I' for Inactive)
REMARK    1  A    between atoms: C_2  and  C_3 
REMARK    2  A    between atoms: C_3  and  O_6 
REMARK    3  A    between atoms: C_3  and  C_4 
REMARK    4  A    between atoms: C_7  and  O_6 
REMARK    5  A    between atoms: C_9  and  C_10 
REMARK    6  A    between atoms: N_15  and  C_14 
REMARK    7  A    between atoms: N_20  and  C_19 
REMARK       I    between atoms: C_22  and  N_20 
ROOT
ATOM      1  C   LIG d   1       2.942  88.047 116.080  0.00  0.00     0.161 C 
ATOM      2  C   LIG d   1       3.388  88.868 117.129  0.00  0.00     0.016 C 
ATOM      3  C   LIG d   1       4.431  89.812 116.989  0.00  0.00     0.038 C 
ATOM      4  C   LIG d   1       5.002  90.107 115.741  0.00  0.00     0.028 C 
ATOM      5  C   LIG d   1       4.933  88.946 114.755  0.00  0.00    -0.047 C 
ATOM      6  C   LIG d   1       3.477  88.432 114.685  0.00  0.00     0.091 C 
ENDROOT
BRANCH   1   7
ATOM      7  O   LIG d   1       1.502  88.005 116.070  0.00  0.00    -0.368 OA
BRANCH   7   8
ATOM      8  C   LIG d   1       0.838  88.647 117.187  0.00  0.00     0.119 C 
BRANCH   8   9
ATOM      9  C   LIG d   1      -0.218  87.663 117.726  0.00  0.00     0.028 C 
ATOM     10  C   LIG d   1      -1.617  88.296 117.820  0.00  0.00     0.006 C 
ENDBRANCH   8   9
BRANCH   8  11
ATOM     11  C   LIG d   1       0.049  89.879 116.732  0.00  0.00     0.028 C 
ATOM     12  C   LIG d   1       0.709  91.200 117.159  0.00  0.00     0.006 C 
ENDBRANCH   8  11
ENDBRANCH   7   8
ENDBRANCH   1   7
BRANCH   6  13
ATOM     13  N   LIG d   1       3.338  87.242 113.806  0.00  0.00    -0.311 N 
ATOM     14  C   LIG d   1       2.992  87.315 112.522  0.00  0.00     0.210 C 
ATOM     15  C   LIG d   1       2.886  85.967 111.802  0.00  0.00     0.109 C 
ATOM     16  O   LIG d   1       2.794  88.371 111.902  0.00  0.00    -0.276 OA
ATOM     17  H   LIG d   1       3.510  86.346 114.219  0.00  0.00     0.149 HD
ENDBRANCH   6  13
BRANCH   5  18
ATOM     18  N   LIG d   1       5.437  89.434 113.457  0.00  0.00     0.381 N 
ATOM     19  H   LIG d   1       4.760  90.038 113.036  0.00  0.00    -0.090 HD
ATOM     20  H   LIG d   1       5.580  88.648 112.848  0.00  0.00    -0.090 HD
ATOM     21  H   LIG d   1       6.295  89.923 113.586  0.00  0.00    -0.090 HD
ENDBRANCH   5  18
BRANCH   3  22
ATOM     22  C   LIG d   1       4.941  90.445 118.112  0.00  0.00     0.382 C 
ATOM     23  O   LIG d   1       4.191  91.151 118.828  0.00  0.00    -0.241 OA
ATOM     24  O   LIG d   1       6.151  90.354 118.393  0.00  0.00    -0.241 OA
ENDBRANCH   3  22
TORSDOF 7
ENDMDL
MODEL 2
REMARK VINA RESULT:      -4.3      2.577      5.795
REMARK  7 active torsions:
REMARK  status: ('A' for Active; 'I' for Inactive)
REMARK    1  A    between atoms: C_2  and  C_3 
REMARK    2  A    between atoms: C_3  and  O_6 
REMARK    3  A    between atoms: C_3  and  C_4 
REMARK    4  A    between atoms: C_7  and  O_6 
REMARK    5  A    between atoms: C_9  and  C_10 
REMARK    6  A    between atoms: N_15  and  C_14 
REMARK    7  A    between atoms: N_20  and  C_19 
REMARK       I    between atoms: C_22  and  N_20 
ROOT
ATOM      1  C   LIG d   1       2.120  89.206 116.554  0.00  0.00     0.161 C 
ATOM      2  C   LIG d   1       0.738  88.971 116.637  0.00  0.00     0.016 C 
ATOM      3  C   LIG d   1      -0.148  89.794 117.370  0.00  0.00     0.038 C 
ATOM      4  C   LIG d   1       0.269  91.002 117.949  0.00  0.00     0.028 C 
ATOM      5  C   LIG d   1       1.749  91.017 118.318  0.00  0.00    -0.047 C 
ATOM      6  C   LIG d   1       2.577  90.580 117.088  0.00  0.00     0.091 C 
ENDROOT
BRANCH   1   7
ATOM      7  O   LIG d   1       2.566  89.022 115.196  0.00  0.00    -0.368 OA
BRANCH   7   8
ATOM      8  C   LIG d   1       3.380  87.850 114.945  0.00  0.00     0.119 C 
BRANCH   8   9
ATOM      9  C   LIG d   1       4.802  88.337 114.606  0.00  0.00     0.028 C 
ATOM     10  C   LIG d   1       5.855  87.809 115.594  0.00  0.00     0.006 C 
ENDBRANCH   8   9
BRANCH   8  11
ATOM     11  C   LIG d   1       2.902  87.096 113.700  0.00  0.00     0.028 C 
ATOM     12  C   LIG d   1       3.826  87.299 112.489  0.00  0.00     0.006 C 
ENDBRANCH   8  11
ENDBRANCH   7   8
ENDBRANCH   1   7
BRANCH   6  13
ATOM     13  N   LIG d   1       4.029  90.487 117.386  0.00  0.00    -0.311 N 
ATOM     14  C   LIG d   1       4.867  91.517 117.282  0.00  0.00     0.210 C 
ATOM     15  C   LIG d   1       6.327  91.200 117.618  0.00  0.00     0.109 C 
ATOM     16  O   LIG d   1       4.533  92.672 116.975  0.00  0.00    -0.276 OA
ATOM     17  H   LIG d   1       4.380  89.594 117.673  0.00  0.00     0.149 HD
ENDBRANCH   6  13
BRANCH   5  18
ATOM     18  N   LIG d   1       2.078  92.378 118.782  0.00  0.00     0.381 N 
ATOM     19  H   LIG d   1       1.401  93.028 118.434  0.00  0.00    -0.090 HD
ATOM     20  H   LIG d   1       2.979  92.636 118.419  0.00  0.00    -0.090 HD
ATOM     21  H   LIG d   1       2.093  92.404 119.778  0.00  0.00    -0.090 HD
ENDBRANCH   5  18
BRANCH   3  22
ATOM     22  C   LIG d   1      -1.461  89.390 117.563  0.00  0.00     0.382 C 
ATOM     23  O   LIG d   1      -2.342  90.237 117.845  0.00  0.00    -0.241 OA
ATOM     24  O   LIG d   1      -1.766  88.184 117.501  0.00  0.00    -0.241 OA
ENDBRANCH   3  22
TORSDOF 7
ENDMDL
MODEL 3
REMARK VINA RESULT:      -4.2      2.846      5.912
REMARK  7 active torsions:
REMARK  status: ('A' for Active; 'I' for Inactive)
REMARK    1  A    between atoms: C_2  and  C_3 
REMARK    2  A    between atoms: C_3  and  O_6 
REMARK    3  A    between atoms: C_3  and  C_4 
REMARK    4  A    between atoms: C_7  and  O_6 
REMARK    5  A    between atoms: C_9  and  C_10 
REMARK    6  A    between atoms: N_15  and  C_14 
REMARK    7  A    between atoms: N_20  and  C_19 
REMARK       I    between atoms: C_22  and  N_20 
ROOT
ATOM      1  C   LIG d   1       1.006  88.416 116.964  0.00  0.00     0.161 C 
ATOM      2  C   LIG d   1      -0.384  88.247 117.082  0.00  0.00     0.016 C 
ATOM      3  C   LIG d   1      -1.238  89.211 117.665  0.00  0.00     0.038 C 
ATOM      4  C   LIG d   1      -0.777  90.483 118.036  0.00  0.00     0.028 C 
ATOM      5  C   LIG d   1       0.704  90.508 118.399  0.00  0.00    -0.047 C 
ATOM      6  C   LIG d   1       1.511  89.843 117.261  0.00  0.00     0.091 C 
ENDROOT
BRANCH   1   7
ATOM      7  O   LIG d   1       1.440  87.993 115.656  0.00  0.00    -0.368 OA
BRANCH   7   8
ATOM      8  C   LIG d   1       2.495  87.000 115.625  0.00  0.00     0.119 C 
BRANCH   8   9
ATOM      9  C   LIG d   1       3.541  87.469 114.595  0.00  0.00     0.028 C 
ATOM     10  C   LIG d   1       4.968  87.471 115.168  0.00  0.00     0.006 C 
ENDBRANCH   8   9
BRANCH   8  11
ATOM     11  C   LIG d   1       1.980  85.657 115.098  0.00  0.00     0.028 C 
ATOM     12  C   LIG d   1       1.097  85.806 113.849  0.00  0.00     0.006 C 
ENDBRANCH   8  11
ENDBRANCH   7   8
ENDBRANCH   1   7
BRANCH   6  13
ATOM     13  N   LIG d   1       2.961  89.751 117.574  0.00  0.00    -0.311 N 
ATOM     14  C   LIG d   1       3.843  90.694 117.248  0.00  0.00     0.210 C 
ATOM     15  C   LIG d   1       5.291  90.391 117.646  0.00  0.00     0.109 C 
ATOM     16  O   LIG d   1       3.559  91.767 116.695  0.00  0.00    -0.276 OA
ATOM     17  H   LIG d   1       3.273  88.927 118.050  0.00  0.00     0.149 HD
ENDBRANCH   6  13
BRANCH   5  18
ATOM     18  N   LIG d   1       1.082  91.915 118.631  0.00  0.00     0.381 N 
ATOM     19  H   LIG d   1       1.094  92.410 117.761  0.00  0.00    -0.090 HD
ATOM     20  H   LIG d   1       2.007  91.943 119.023  0.00  0.00    -0.090 HD
ATOM     21  H   LIG d   1       0.435  92.344 119.256  0.00  0.00    -0.090 HD
ENDBRANCH   5  18
BRANCH   3  22
ATOM     22  C   LIG d   1      -2.563  88.891 117.920  0.00  0.00     0.382 C 
ATOM     23  O   LIG d   1      -2.849  88.095 118.846  0.00  0.00    -0.241 OA
ATOM     24  O   LIG d   1      -3.473  89.353 117.206  0.00  0.00    -0.241 OA
ENDBRANCH   3  22
TORSDOF 7
ENDMDL
MODEL 4
REMARK VINA RESULT:      -4.2      1.887      4.810
REMARK  7 active torsions:
REMARK  status: ('A' for Active; 'I' for Inactive)
REMARK    1  A    between atoms: C_2  and  C_3 
REMARK    2  A    between atoms: C_3  and  O_6 
REMARK    3  A    between atoms: C_3  and  C_4 
REMARK    4  A    between atoms: C_7  and  O_6 
REMARK    5  A    between atoms: C_9  and  C_10 
REMARK    6  A    between atoms: N_15  and  C_14 
REMARK    7  A    between atoms: N_20  and  C_19 
REMARK       I    between atoms: C_22  and  N_20 
ROOT
ATOM      1  C   LIG d   1       3.552  89.180 116.011  0.00  0.00     0.161 C 
ATOM      2  C   LIG d   1       3.184  88.733 114.731  0.00  0.00     0.016 C 
ATOM      3  C   LIG d   1       3.963  87.834 113.967  0.00  0.00     0.038 C 
ATOM      4  C   LIG d   1       5.096  87.199 114.498  0.00  0.00     0.028 C 
ATOM      5  C   LIG d   1       5.782  88.003 115.597  0.00  0.00    -0.047 C 
ATOM      6  C   LIG d   1       4.728  88.413 116.651  0.00  0.00     0.091 C 
ENDROOT
BRANCH   1   7
ATOM      7  O   LIG d   1       2.405  89.159 116.884  0.00  0.00    -0.368 OA
BRANCH   7   8
ATOM      8  C   LIG d   1       1.403  90.177 116.644  0.00  0.00     0.119 C 
BRANCH   8   9
ATOM      9  C   LIG d   1       1.934  91.498 117.234  0.00  0.00     0.028 C 
ATOM     10  C   LIG d   1       0.803  92.438 117.683  0.00  0.00     0.006 C 
ENDBRANCH   8   9
BRANCH   8  11
ATOM     11  C   LIG d   1       0.112  89.880 117.414  0.00  0.00     0.028 C 
ATOM     12  C   LIG d   1      -0.362  88.428 117.244  0.00  0.00     0.006 C 
ENDBRANCH   8  11
ENDBRANCH   7   8
ENDBRANCH   1   7
BRANCH   6  13
ATOM     13  N   LIG d   1       5.299  89.274 117.719  0.00  0.00    -0.311 N 
ATOM     14  C   LIG d   1       5.808  90.484 117.491  0.00  0.00     0.210 C 
ATOM     15  C   LIG d   1       6.362  91.195 118.730  0.00  0.00     0.109 C 
ATOM     16  O   LIG d   1       5.823  91.048 116.387  0.00  0.00    -0.276 OA
ATOM     17  H   LIG d   1       5.298  88.907 118.650  0.00  0.00     0.149 HD
ENDBRANCH   6  13
BRANCH   5  18
ATOM     18  N   LIG d   1       6.861  87.166 116.154  0.00  0.00     0.381 N 
ATOM     19  H   LIG d   1       7.750  87.562 115.924  0.00  0.00    -0.090 HD
ATOM     20  H   LIG d   1       6.808  86.251 115.743  0.00  0.00    -0.090 HD
ATOM     21  H   LIG d   1       6.765  87.100 117.144  0.00  0.00    -0.090 HD
ENDBRANCH   5  18
BRANCH   3  22
ATOM     22  C   LIG d   1       3.633  87.592 112.642  0.00  0.00     0.382 C 
ATOM     23  O   LIG d   1       4.425  86.957 111.905  0.00  0.00    -0.241 OA
ATOM     24  O   LIG d   1       2.573  88.039 112.164  0.00  0.00    -0.241 OA
ENDBRANCH   3  22
TORSDOF 7
ENDMDL
MODEL 5
REMARK VINA RESULT:      -4.0      2.910      4.813
REMARK  7 active torsions:
REMARK  status: ('A' for Active; 'I' for Inactive)
REMARK    1  A    between atoms: C_2  and  C_3 
REMARK    2  A    between atoms: C_3  and  O_6 
REMARK    3  A    between atoms: C_3  and  C_4 
REMARK    4  A    between atoms: C_7  and  O_6 
REMARK    5  A    between atoms: C_9  and  C_10 
REMARK    6  A    between atoms: N_15  and  C_14 
REMARK    7  A    between atoms: N_20  and  C_19 
REMARK       I    between atoms: C_22  and  N_20 
ROOT
ATOM      1  C   LIG d   1       1.786  88.782 116.779  0.00  0.00     0.161 C 
ATOM      2  C   LIG d   1       3.120  89.182 116.599  0.00  0.00     0.016 C 
ATOM      3  C   LIG d   1       3.545  90.528 116.668  0.00  0.00     0.038 C 
ATOM      4  C   LIG d   1       2.683  91.558 117.076  0.00  0.00     0.028 C 
ATOM      5  C   LIG d   1       1.215  91.272 116.776  0.00  0.00    -0.047 C 
ATOM      6  C   LIG d   1       0.851  89.877 117.334  0.00  0.00     0.091 C 
ENDROOT
BRANCH   1   7
ATOM      7  O   LIG d   1       1.736  87.610 117.617  0.00  0.00    -0.368 OA
BRANCH   7   8
ATOM      8  C   LIG d   1       1.365  86.372 116.960  0.00  0.00     0.119 C 
BRANCH   8   9
ATOM      9  C   LIG d   1       2.586  85.434 117.018  0.00  0.00     0.028 C 
ATOM     10  C   LIG d   1       3.474  85.701 118.245  0.00  0.00     0.006 C 
ENDBRANCH   8   9
BRANCH   8  11
ATOM     11  C   LIG d   1       1.093  86.593 115.469  0.00  0.00     0.028 C 
ATOM     12  C   LIG d   1       1.716  85.503 114.583  0.00  0.00     0.006 C 
ENDBRANCH   8  11
ENDBRANCH   7   8
ENDBRANCH   1   7
BRANCH   6  13
ATOM     13  N   LIG d   1      -0.545  89.484 117.010  0.00  0.00    -0.311 N 
ATOM     14  C   LIG d   1      -1.574  89.695 117.829  0.00  0.00     0.210 C 
ATOM     15  C   LIG d   1      -2.926  89.195 117.310  0.00  0.00     0.109 C 
ATOM     16  O   LIG d   1      -1.502  90.279 118.921  0.00  0.00    -0.276 OA
ATOM     17  H   LIG d   1      -0.699  89.033 116.130  0.00  0.00     0.149 HD
ENDBRANCH   6  13
BRANCH   5  18
ATOM     18  N   LIG d   1       0.419  92.360 117.375  0.00  0.00     0.381 N 
ATOM     19  H   LIG d   1       0.756  93.245 117.051  0.00  0.00    -0.090 HD
ATOM     20  H   LIG d   1       0.526  92.329 118.374  0.00  0.00    -0.090 HD
ATOM     21  H   LIG d   1      -0.541  92.253 117.133  0.00  0.00    -0.090 HD
ENDBRANCH   5  18
BRANCH   3  22
ATOM     22  C   LIG d   1       4.837  90.862 116.289  0.00  0.00     0.382 C 
ATOM     23  O   LIG d   1       5.400  90.232 115.362  0.00  0.00    -0.241 OA
ATOM     24  O   LIG d   1       5.461  91.755 116.893  0.00  0.00    -0.241 OA
ENDBRANCH   3  22
TORSDOF 7
ENDMDL
MODEL 6
REMARK VINA RESULT:      -3.7      4.244      7.123
REMARK  7 active torsions:
REMARK  status: ('A' for Active; 'I' for Inactive)
REMARK    1  A    between atoms: C_2  and  C_3 
REMARK    2  A    between atoms: C_3  and  O_6 
REMARK    3  A    between atoms: C_3  and  C_4 
REMARK    4  A    between atoms: C_7  and  O_6 
REMARK    5  A    between atoms: C_9  and  C_10 
REMARK    6  A    between atoms: N_15  and  C_14 
REMARK    7  A    between atoms: N_20  and  C_19 
REMARK       I    between atoms: C_22  and  N_20 
ROOT
ATOM      1  C   LIG d   1      -1.259  90.109 118.062  0.00  0.00     0.161 C 
ATOM      2  C   LIG d   1      -2.655  90.099 117.905  0.00  0.00     0.016 C 
ATOM      3  C   LIG d   1      -3.457  91.260 117.993  0.00  0.00     0.038 C 
ATOM      4  C   LIG d   1      -2.896  92.542 118.094  0.00  0.00     0.028 C 
ATOM      5  C   LIG d   1      -1.525  92.552 118.762  0.00  0.00    -0.047 C 
ATOM      6  C   LIG d   1      -0.619  91.513 118.063  0.00  0.00     0.091 C 
ENDROOT
BRANCH   1   7
ATOM      7  O   LIG d   1      -0.648  89.280 117.053  0.00  0.00    -0.368 OA
BRANCH   7   8
ATOM      8  C   LIG d   1       0.304  88.297 117.527  0.00  0.00     0.119 C 
BRANCH   8   9
ATOM      9  C   LIG d   1       0.702  87.420 116.325  0.00  0.00     0.028 C 
ATOM     10  C   LIG d   1       2.191  87.556 115.966  0.00  0.00     0.006 C 
ENDBRANCH   8   9
BRANCH   8  11
ATOM     11  C   LIG d   1      -0.339  87.338 118.533  0.00  0.00     0.028 C 
ATOM     12  C   LIG d   1       0.363  85.972 118.587  0.00  0.00     0.006 C 
ENDBRANCH   8  11
ENDBRANCH   7   8
ENDBRANCH   1   7
BRANCH   6  13
ATOM     13  N   LIG d   1       0.715  91.398 118.708  0.00  0.00    -0.311 N 
ATOM     14  C   LIG d   1       1.859  91.657 118.077  0.00  0.00     0.210 C 
ATOM     15  C   LIG d   1       3.122  91.456 118.921  0.00  0.00     0.109 C 
ATOM     16  O   LIG d   1       1.947  92.064 116.909  0.00  0.00    -0.276 OA
ATOM     17  H   LIG d   1       0.735  91.103 119.665  0.00  0.00     0.149 HD
ENDBRANCH   6  13
BRANCH   5  18
ATOM     18  N   LIG d   1      -0.998  93.927 118.678  0.00  0.00     0.381 N 
ATOM     19  H   LIG d   1      -0.010  93.922 118.837  0.00  0.00    -0.090 HD
ATOM     20  H   LIG d   1      -1.430  94.485 119.394  0.00  0.00    -0.090 HD
ATOM     21  H   LIG d   1      -1.195  94.314 117.781  0.00  0.00    -0.090 HD
ENDBRANCH   5  18
BRANCH   3  22
ATOM     22  C   LIG d   1      -4.838  91.142 118.019  0.00  0.00     0.382 C 
ATOM     23  O   LIG d   1      -5.508  91.797 118.854  0.00  0.00    -0.241 OA
ATOM     24  O   LIG d   1      -5.419  90.355 117.248  0.00  0.00    -0.241 OA
ENDBRANCH   3  22
TORSDOF 7
ENDMDL
MODEL 7
REMARK VINA RESULT:      -3.7      3.132      5.975
REMARK  7 active torsions:
REMARK  status: ('A' for Active; 'I' for Inactive)
REMARK    1  A    between atoms: C_2  and  C_3 
REMARK    2  A    between atoms: C_3  and  O_6 
REMARK    3  A    between atoms: C_3  and  C_4 
REMARK    4  A    between atoms: C_7  and  O_6 
REMARK    5  A    between atoms: C_9  and  C_10 
REMARK    6  A    between atoms: N_15  and  C_14 
REMARK    7  A    between atoms: N_20  and  C_19 
REMARK       I    between atoms: C_22  and  N_20 
ROOT
ATOM      1  C   LIG d   1       1.125  89.035 118.703  0.00  0.00     0.161 C 
ATOM      2  C   LIG d   1      -0.210  88.603 118.643  0.00  0.00     0.016 C 
ATOM      3  C   LIG d   1      -1.289  89.454 118.311  0.00  0.00     0.038 C 
ATOM      4  C   LIG d   1      -1.087  90.769 117.866  0.00  0.00     0.028 C 
ATOM      5  C   LIG d   1       0.198  91.396 118.395  0.00  0.00    -0.047 C 
ATOM      6  C   LIG d   1       1.378  90.438 118.112  0.00  0.00     0.091 C 
ENDROOT
BRANCH   1   7
ATOM      7  O   LIG d   1       1.982  88.064 118.070  0.00  0.00    -0.368 OA
BRANCH   7   8
ATOM      8  C   LIG d   1       1.851  87.939 116.633  0.00  0.00     0.119 C 
BRANCH   8   9
ATOM      9  C   LIG d   1       1.575  86.455 116.320  0.00  0.00     0.028 C 
ATOM     10  C   LIG d   1       1.431  86.191 114.812  0.00  0.00     0.006 C 
ENDBRANCH   8   9
BRANCH   8  11
ATOM     11  C   LIG d   1       3.169  88.264 115.924  0.00  0.00     0.028 C 
ATOM     12  C   LIG d   1       4.394  88.096 116.836  0.00  0.00     0.006 C 
ENDBRANCH   8  11
ENDBRANCH   7   8
ENDBRANCH   1   7
BRANCH   6  13
ATOM     13  N   LIG d   1       2.661  90.938 118.672  0.00  0.00    -0.311 N 
ATOM     14  C   LIG d   1       3.590  91.551 117.942  0.00  0.00     0.210 C 
ATOM     15  C   LIG d   1       4.847  91.968 118.712  0.00  0.00     0.109 C 
ATOM     16  O   LIG d   1       3.479  91.819 116.736  0.00  0.00    -0.276 OA
ATOM     17  H   LIG d   1       2.820  90.790 119.650  0.00  0.00     0.149 HD
ENDBRANCH   6  13
BRANCH   5  18
ATOM     18  N   LIG d   1       0.353  92.711 117.744  0.00  0.00     0.381 N 
ATOM     19  H   LIG d   1       1.324  92.914 117.617  0.00  0.00    -0.090 HD
ATOM     20  H   LIG d   1      -0.042  93.417 118.340  0.00  0.00    -0.090 HD
ATOM     21  H   LIG d   1      -0.112  92.712 116.863  0.00  0.00    -0.090 HD
ENDBRANCH   5  18
BRANCH   3  22
ATOM     22  C   LIG d   1      -2.592  89.003 118.462  0.00  0.00     0.382 C 
ATOM     23  O   LIG d   1      -2.809  87.858 118.926  0.00  0.00    -0.241 OA
ATOM     24  O   LIG d   1      -3.551  89.710 118.099  0.00  0.00    -0.241 OA
ENDBRANCH   3  22
TORSDOF 7
ENDMDL
MODEL 8
REMARK VINA RESULT:      -3.6      2.652      4.459
REMARK  7 active torsions:
REMARK  status: ('A' for Active; 'I' for Inactive)
REMARK    1  A    between atoms: C_2  and  C_3 
REMARK    2  A    between atoms: C_3  and  O_6 
REMARK    3  A    between atoms: C_3  and  C_4 
REMARK    4  A    between atoms: C_7  and  O_6 
REMARK    5  A    between atoms: C_9  and  C_10 
REMARK    6  A    between atoms: N_15  and  C_14 
REMARK    7  A    between atoms: N_20  and  C_19 
REMARK       I    between atoms: C_22  and  N_20 
ROOT
ATOM      1  C   LIG d   1       5.005  88.507 118.143  0.00  0.00     0.161 C 
ATOM      2  C   LIG d   1       6.403  88.381 118.210  0.00  0.00     0.016 C 
ATOM      3  C   LIG d   1       7.163  87.641 117.276  0.00  0.00     0.038 C 
ATOM      4  C   LIG d   1       6.589  87.097 116.118  0.00  0.00     0.028 C 
ATOM      5  C   LIG d   1       5.108  86.769 116.272  0.00  0.00    -0.047 C 
ATOM      6  C   LIG d   1       4.374  88.013 116.824  0.00  0.00     0.091 C 
ENDROOT
BRANCH   1   7
ATOM      7  O   LIG d   1       4.624  89.873 118.400  0.00  0.00    -0.368 OA
BRANCH   7   8
ATOM      8  C   LIG d   1       4.524  90.735 117.240  0.00  0.00     0.119 C 
BRANCH   8   9
ATOM      9  C   LIG d   1       5.698  91.733 117.302  0.00  0.00     0.028 C 
ATOM     10  C   LIG d   1       5.275  93.103 117.858  0.00  0.00     0.006 C 
ENDBRANCH   8   9
BRANCH   8  11
ATOM     11  C   LIG d   1       3.258  91.595 117.293  0.00  0.00     0.028 C 
ATOM     12  C   LIG d   1       2.253  91.111 118.349  0.00  0.00     0.006 C 
ENDBRANCH   8  11
ENDBRANCH   7   8
ENDBRANCH   1   7
BRANCH   6  13
ATOM     13  N   LIG d   1       2.934  87.752 117.085  0.00  0.00    -0.311 N 
ATOM     14  C   LIG d   1       1.966  88.066 116.227  0.00  0.00     0.210 C 
ATOM     15  C   LIG d   1       0.548  87.730 116.700  0.00  0.00     0.109 C 
ATOM     16  O   LIG d   1       2.148  88.562 115.104  0.00  0.00    -0.276 OA
ATOM     17  H   LIG d   1       2.699  87.324 117.959  0.00  0.00     0.149 HD
ENDBRANCH   6  13
BRANCH   5  18
ATOM     18  N   LIG d   1       4.606  86.340 114.953  0.00  0.00     0.381 N 
ATOM     19  H   LIG d   1       4.534  87.131 114.344  0.00  0.00    -0.090 HD
ATOM     20  H   LIG d   1       3.689  85.945 115.067  0.00  0.00    -0.090 HD
ATOM     21  H   LIG d   1       5.221  85.663 114.558  0.00  0.00    -0.090 HD
ENDBRANCH   5  18
BRANCH   3  22
ATOM     22  C   LIG d   1       8.508  87.405 117.518  0.00  0.00     0.382 C 
ATOM     23  O   LIG d   1       9.323  88.359 117.511  0.00  0.00    -0.241 OA
ATOM     24  O   LIG d   1       8.923  86.244 117.699  0.00  0.00    -0.241 OA
ENDBRANCH   3  22
TORSDOF 7
ENDMDL
MODEL 9
REMARK VINA RESULT:      -3.5      2.725      4.335
REMARK  7 active torsions:
REMARK  status: ('A' for Active; 'I' for Inactive)
REMARK    1  A    between atoms: C_2  and  C_3 
REMARK    2  A    between atoms: C_3  and  O_6 
REMARK    3  A    between atoms: C_3  and  C_4 
REMARK    4  A    between atoms: C_7  and  O_6 
REMARK    5  A    between atoms: C_9  and  C_10 
REMARK    6  A    between atoms: N_15  and  C_14 
REMARK    7  A    between atoms: N_20  and  C_19 
REMARK       I    between atoms: C_22  and  N_20 
ROOT
ATOM      1  C   LIG d   1       2.727  88.316 116.617  0.00  0.00     0.161 C 
ATOM      2  C   LIG d   1       3.665  88.059 115.604  0.00  0.00     0.016 C 
ATOM      3  C   LIG d   1       4.641  88.995 115.192  0.00  0.00     0.038 C 
ATOM      4  C   LIG d   1       4.844  90.204 115.874  0.00  0.00     0.028 C 
ATOM      5  C   LIG d   1       3.592  90.720 116.576  0.00  0.00    -0.047 C 
ATOM      6  C   LIG d   1       3.003  89.587 117.447  0.00  0.00     0.091 C 
ENDROOT
BRANCH   1   7
ATOM      7  O   LIG d   1       2.613  87.168 117.481  0.00  0.00    -0.368 OA
BRANCH   7   8
ATOM      8  C   LIG d   1       1.565  86.224 117.151  0.00  0.00     0.119 C 
BRANCH   8   9
ATOM      9  C   LIG d   1       0.645  86.896 116.114  0.00  0.00     0.028 C 
ATOM     10  C   LIG d   1       0.671  86.178 114.754  0.00  0.00     0.006 C 
ENDBRANCH   8   9
BRANCH   8  11
ATOM     11  C   LIG d   1       0.671  85.939 118.362  0.00  0.00     0.028 C 
ATOM     12  C   LIG d   1      -0.385  87.032 118.592  0.00  0.00     0.006 C 
ENDBRANCH   8  11
ENDBRANCH   7   8
ENDBRANCH   1   7
BRANCH   6  13
ATOM     13  N   LIG d   1       1.729  89.981 118.104  0.00  0.00    -0.311 N 
ATOM     14  C   LIG d   1       0.657  90.397 117.433  0.00  0.00     0.210 C 
ATOM     15  C   LIG d   1      -0.545  90.773 118.305  0.00  0.00     0.109 C 
ATOM     16  O   LIG d   1       0.576  90.460 116.197  0.00  0.00    -0.276 OA
ATOM     17  H   LIG d   1       1.697  89.930 119.103  0.00  0.00     0.149 HD
ENDBRANCH   6  13
BRANCH   5  18
ATOM     18  N   LIG d   1       3.979  91.909 117.359  0.00  0.00     0.381 N 
ATOM     19  H   LIG d   1       3.806  92.737 116.824  0.00  0.00    -0.090 HD
ATOM     20  H   LIG d   1       4.962  91.862 117.558  0.00  0.00    -0.090 HD
ATOM     21  H   LIG d   1       3.461  91.941 118.209  0.00  0.00    -0.090 HD
ENDBRANCH   5  18
BRANCH   3  22
ATOM     22  C   LIG d   1       5.402  88.742 114.060  0.00  0.00     0.382 C 
ATOM     23  O   LIG d   1       5.033  89.182 112.945  0.00  0.00    -0.241 OA
ATOM     24  O   LIG d   1       6.429  88.041 114.134  0.00  0.00    -0.241 OA
ENDBRANCH   3  22
TORSDOF 7
ENDMDL
