MODEL 1
REMARK VINA RESULT:      -5.1      0.000      0.000
REMARK  7 active torsions:
REMARK  status: ('A' for Active; 'I' for Inactive)
REMARK    1  A    between atoms: C_2  and  C_3 
REMARK    2  A    between atoms: C_3  and  O_6 
REMARK    3  A    between atoms: C_3  and  C_4 
REMARK    4  A    between atoms: C_7  and  O_6 
REMARK    5  A    between atoms: C_9  and  C_10 
REMARK    6  A    between atoms: N_15  and  C_14 
REMARK    7  A    between atoms: N_20  and  C_19 
REMARK       I    between atoms: C_22  and  N_20 
ROOT
ATOM      1  C   LIG d   1       4.642  88.974 115.064  0.00  0.00     0.161 C 
ATOM      2  C   LIG d   1       4.302  90.028 115.928  0.00  0.00     0.016 C 
ATOM      3  C   LIG d   1       3.127  90.042 116.714  0.00  0.00     0.038 C 
ATOM      4  C   LIG d   1       2.281  88.927 116.802  0.00  0.00     0.028 C 
ATOM      5  C   LIG d   1       2.316  88.040 115.563  0.00  0.00    -0.047 C 
ATOM      6  C   LIG d   1       3.787  87.700 115.231  0.00  0.00     0.091 C 
ENDROOT
BRANCH   1   7
ATOM      7  O   LIG d   1       6.042  88.660 115.202  0.00  0.00    -0.368 OA
BRANCH   7   8
ATOM      8  C   LIG d   1       6.449  88.111 116.480  0.00  0.00     0.119 C 
BRANCH   8   9
ATOM      9  C   LIG d   1       7.558  89.021 117.042  0.00  0.00     0.028 C 
ATOM     10  C   LIG d   1       7.117  89.766 118.313  0.00  0.00     0.006 C 
ENDBRANCH   8   9
BRANCH   8  11
ATOM     11  C   LIG d   1       7.099  86.734 116.313  0.00  0.00     0.028 C 
ATOM     12  C   LIG d   1       8.632  86.805 116.236  0.00  0.00     0.006 C 
ENDBRANCH   8  11
ENDBRANCH   7   8
ENDBRANCH   1   7
BRANCH   6  13
ATOM     13  N   LIG d   1       3.918  86.904 113.983  0.00  0.00    -0.311 N 
ATOM     14  C   LIG d   1       3.609  87.376 112.776  0.00  0.00     0.210 C 
ATOM     15  C   LIG d   1       3.798  86.384 111.625  0.00  0.00     0.109 C 
ATOM     16  O   LIG d   1       3.228  88.534 112.547  0.00  0.00    -0.276 OA
ATOM     17  H   LIG d   1       4.250  85.964 114.074  0.00  0.00     0.149 HD
ENDBRANCH   6  13
BRANCH   5  18
ATOM     18  N   LIG d   1       1.497  86.846 115.845  0.00  0.00     0.381 N 
ATOM     19  H   LIG d   1       2.091  86.070 116.058  0.00  0.00    -0.090 HD
ATOM     20  H   LIG d   1       0.961  86.618 115.026  0.00  0.00    -0.090 HD
ATOM     21  H   LIG d   1       0.886  87.026 116.612  0.00  0.00    -0.090 HD
ENDBRANCH   5  18
BRANCH   3  22
ATOM     22  C   LIG d   1       2.767  91.198 117.391  0.00  0.00     0.382 C 
ATOM     23  O   LIG d   1       3.524  92.198 117.371  0.00  0.00    -0.241 OA
ATOM     24  O   LIG d   1       1.716  91.237 118.058  0.00  0.00    -0.241 OA
ENDBRANCH   3  22
TORSDOF 7
ENDMDL
MODEL 2
REMARK VINA RESULT:      -4.7      2.322      4.765
REMARK  7 active torsions:
REMARK  status: ('A' for Active; 'I' for Inactive)
REMARK    1  A    between atoms: C_2  and  C_3 
REMARK    2  A    between atoms: C_3  and  O_6 
REMARK    3  A    between atoms: C_3  and  C_4 
REMARK    4  A    between atoms: C_7  and  O_6 
REMARK    5  A    between atoms: C_9  and  C_10 
REMARK    6  A    between atoms: N_15  and  C_14 
REMARK    7  A    between atoms: N_20  and  C_19 
REMARK       I    between atoms: C_22  and  N_20 
ROOT
ATOM      1  C   LIG d   1       4.849  88.152 116.626  0.00  0.00     0.161 C 
ATOM      2  C   LIG d   1       3.823  89.112 116.671  0.00  0.00     0.016 C 
ATOM      3  C   LIG d   1       3.972  90.382 117.273  0.00  0.00     0.038 C 
ATOM      4  C   LIG d   1       5.212  90.840 117.743  0.00  0.00     0.028 C 
ATOM      5  C   LIG d   1       6.148  89.716 118.174  0.00  0.00    -0.047 C 
ATOM      6  C   LIG d   1       6.242  88.675 117.035  0.00  0.00     0.091 C 
ENDROOT
BRANCH   1   7
ATOM      7  O   LIG d   1       4.902  87.554 115.316  0.00  0.00    -0.368 OA
BRANCH   7   8
ATOM      8  C   LIG d   1       3.811  87.882 114.421  0.00  0.00     0.119 C 
BRANCH   8   9
ATOM      9  C   LIG d   1       3.113  86.563 114.039  0.00  0.00     0.028 C 
ATOM     10  C   LIG d   1       3.176  86.281 112.529  0.00  0.00     0.006 C 
ENDBRANCH   8   9
BRANCH   8  11
ATOM     11  C   LIG d   1       4.329  88.464 113.102  0.00  0.00     0.028 C 
ATOM     12  C   LIG d   1       5.455  89.490 113.304  0.00  0.00     0.006 C 
ENDBRANCH   8  11
ENDBRANCH   7   8
ENDBRANCH   1   7
BRANCH   6  13
ATOM     13  N   LIG d   1       7.072  87.500 117.407  0.00  0.00    -0.311 N 
ATOM     14  C   LIG d   1       8.388  87.442 117.215  0.00  0.00     0.210 C 
ATOM     15  C   LIG d   1       9.049  86.131 117.651  0.00  0.00     0.109 C 
ATOM     16  O   LIG d   1       9.077  88.365 116.753  0.00  0.00    -0.276 OA
ATOM     17  H   LIG d   1       6.599  86.719 117.817  0.00  0.00     0.149 HD
ENDBRANCH   6  13
BRANCH   5  18
ATOM     18  N   LIG d   1       7.450  90.324 118.509  0.00  0.00     0.381 N 
ATOM     19  H   LIG d   1       8.177  89.879 117.986  0.00  0.00    -0.090 HD
ATOM     20  H   LIG d   1       7.633  90.182 119.487  0.00  0.00    -0.090 HD
ATOM     21  H   LIG d   1       7.433  91.299 118.306  0.00  0.00    -0.090 HD
ENDBRANCH   5  18
BRANCH   3  22
ATOM     22  C   LIG d   1       2.862  91.194 117.447  0.00  0.00     0.382 C 
ATOM     23  O   LIG d   1       1.711  90.695 117.429  0.00  0.00    -0.241 OA
ATOM     24  O   LIG d   1       2.994  92.426 117.576  0.00  0.00    -0.241 OA
ENDBRANCH   3  22
TORSDOF 7
ENDMDL
MODEL 3
REMARK VINA RESULT:      -4.7      2.268      4.236
REMARK  7 active torsions:
REMARK  status: ('A' for Active; 'I' for Inactive)
REMARK    1  A    between atoms: C_2  and  C_3 
REMARK    2  A    between atoms: C_3  and  O_6 
REMARK    3  A    between atoms: C_3  and  C_4 
REMARK    4  A    between atoms: C_7  and  O_6 
REMARK    5  A    between atoms: C_9  and  C_10 
REMARK    6  A    between atoms: N_15  and  C_14 
REMARK    7  A    between atoms: N_20  and  C_19 
REMARK       I    between atoms: C_22  and  N_20 
ROOT
ATOM      1  C   LIG d   1       4.906  87.057 115.941  0.00  0.00     0.161 C 
ATOM      2  C   LIG d   1       5.622  87.729 116.945  0.00  0.00     0.016 C 
ATOM      3  C   LIG d   1       6.245  88.984 116.750  0.00  0.00     0.038 C 
ATOM      4  C   LIG d   1       6.065  89.726 115.573  0.00  0.00     0.028 C 
ATOM      5  C   LIG d   1       5.770  88.862 114.352  0.00  0.00    -0.047 C 
ATOM      6  C   LIG d   1       4.605  87.902 114.685  0.00  0.00     0.091 C 
ENDROOT
BRANCH   1   7
ATOM      7  O   LIG d   1       3.686  86.519 116.487  0.00  0.00    -0.368 OA
BRANCH   7   8
ATOM      8  C   LIG d   1       2.988  87.361 117.437  0.00  0.00     0.119 C 
BRANCH   8   9
ATOM      9  C   LIG d   1       2.050  86.454 118.257  0.00  0.00     0.028 C 
ATOM     10  C   LIG d   1       1.155  85.576 117.366  0.00  0.00     0.006 C 
ENDBRANCH   8   9
BRANCH   8  11
ATOM     11  C   LIG d   1       2.069  88.360 116.727  0.00  0.00     0.028 C 
ATOM     12  C   LIG d   1       2.461  89.822 116.990  0.00  0.00     0.006 C 
ENDBRANCH   8  11
ENDBRANCH   7   8
ENDBRANCH   1   7
BRANCH   6  13
ATOM     13  N   LIG d   1       4.307  86.964 113.572  0.00  0.00    -0.311 N 
ATOM     14  C   LIG d   1       3.578  87.296 112.508  0.00  0.00     0.210 C 
ATOM     15  C   LIG d   1       3.376  86.173 111.487  0.00  0.00     0.109 C 
ATOM     16  O   LIG d   1       3.107  88.424 112.298  0.00  0.00    -0.276 OA
ATOM     17  H   LIG d   1       4.677  86.036 113.646  0.00  0.00     0.149 HD
ENDBRANCH   6  13
BRANCH   5  18
ATOM     18  N   LIG d   1       5.468  89.769 113.228  0.00  0.00     0.381 N 
ATOM     19  H   LIG d   1       4.989  90.580 113.566  0.00  0.00    -0.090 HD
ATOM     20  H   LIG d   1       4.865  89.294 112.580  0.00  0.00    -0.090 HD
ATOM     21  H   LIG d   1       6.311  90.038 112.771  0.00  0.00    -0.090 HD
ENDBRANCH   5  18
BRANCH   3  22
ATOM     22  C   LIG d   1       7.092  89.489 117.725  0.00  0.00     0.382 C 
ATOM     23  O   LIG d   1       7.917  90.389 117.433  0.00  0.00    -0.241 OA
ATOM     24  O   LIG d   1       7.072  89.027 118.881  0.00  0.00    -0.241 OA
ENDBRANCH   3  22
TORSDOF 7
ENDMDL
MODEL 4
REMARK VINA RESULT:      -4.6      2.841      5.207
REMARK  7 active torsions:
REMARK  status: ('A' for Active; 'I' for Inactive)
REMARK    1  A    between atoms: C_2  and  C_3 
REMARK    2  A    between atoms: C_3  and  O_6 
REMARK    3  A    between atoms: C_3  and  C_4 
REMARK    4  A    between atoms: C_7  and  O_6 
REMARK    5  A    between atoms: C_9  and  C_10 
REMARK    6  A    between atoms: N_15  and  C_14 
REMARK    7  A    between atoms: N_20  and  C_19 
REMARK       I    between atoms: C_22  and  N_20 
ROOT
ATOM      1  C   LIG d   1       3.977  87.156 115.655  0.00  0.00     0.161 C 
ATOM      2  C   LIG d   1       3.387  86.361 114.658  0.00  0.00     0.016 C 
ATOM      3  C   LIG d   1       3.322  86.740 113.298  0.00  0.00     0.038 C 
ATOM      4  C   LIG d   1       3.982  87.879 112.813  0.00  0.00     0.028 C 
ATOM      5  C   LIG d   1       4.159  88.969 113.864  0.00  0.00    -0.047 C 
ATOM      6  C   LIG d   1       4.800  88.350 115.127  0.00  0.00     0.091 C 
ENDROOT
BRANCH   1   7
ATOM      7  O   LIG d   1       4.785  86.335 116.521  0.00  0.00    -0.368 OA
BRANCH   7   8
ATOM      8  C   LIG d   1       4.250  86.084 117.843  0.00  0.00     0.119 C 
BRANCH   8   9
ATOM      9  C   LIG d   1       2.909  86.836 117.951  0.00  0.00     0.028 C 
ATOM     10  C   LIG d   1       1.809  85.985 118.607  0.00  0.00     0.006 C 
ENDBRANCH   8   9
BRANCH   8  11
ATOM     11  C   LIG d   1       5.143  86.690 118.930  0.00  0.00     0.028 C 
ATOM     12  C   LIG d   1       6.641  86.545 118.619  0.00  0.00     0.006 C 
ENDBRANCH   8  11
ENDBRANCH   7   8
ENDBRANCH   1   7
BRANCH   6  13
ATOM     13  N   LIG d   1       4.931  89.331 116.235  0.00  0.00    -0.311 N 
ATOM     14  C   LIG d   1       6.100  89.691 116.762  0.00  0.00     0.210 C 
ATOM     15  C   LIG d   1       6.009  90.701 117.910  0.00  0.00     0.109 C 
ATOM     16  O   LIG d   1       7.206  89.293 116.366  0.00  0.00    -0.276 OA
ATOM     17  H   LIG d   1       4.085  89.728 116.596  0.00  0.00     0.149 HD
ENDBRANCH   6  13
BRANCH   5  18
ATOM     18  N   LIG d   1       4.980  90.038 113.263  0.00  0.00     0.381 N 
ATOM     19  H   LIG d   1       5.615  90.401 113.946  0.00  0.00    -0.090 HD
ATOM     20  H   LIG d   1       4.376  90.784 112.966  0.00  0.00    -0.090 HD
ATOM     21  H   LIG d   1       5.487  89.680 112.484  0.00  0.00    -0.090 HD
ENDBRANCH   5  18
BRANCH   3  22
ATOM     22  C   LIG d   1       2.557  85.995 112.413  0.00  0.00     0.382 C 
ATOM     23  O   LIG d   1       1.328  85.846 112.618  0.00  0.00    -0.241 OA
ATOM     24  O   LIG d   1       3.088  85.433 111.436  0.00  0.00    -0.241 OA
ENDBRANCH   3  22
TORSDOF 7
ENDMDL
MODEL 5
REMARK VINA RESULT:      -4.4      2.315      4.481
REMARK  7 active torsions:
REMARK  status: ('A' for Active; 'I' for Inactive)
REMARK    1  A    between atoms: C_2  and  C_3 
REMARK    2  A    between atoms: C_3  and  O_6 
REMARK    3  A    between atoms: C_3  and  C_4 
REMARK    4  A    between atoms: C_7  and  O_6 
REMARK    5  A    between atoms: C_9  and  C_10 
REMARK    6  A    between atoms: N_15  and  C_14 
REMARK    7  A    between atoms: N_20  and  C_19 
REMARK       I    between atoms: C_22  and  N_20 
ROOT
ATOM      1  C   LIG d   1       3.075  89.488 116.693  0.00  0.00     0.161 C 
ATOM      2  C   LIG d   1       2.039  90.362 117.061  0.00  0.00     0.016 C 
ATOM      3  C   LIG d   1       2.238  91.514 117.857  0.00  0.00     0.038 C 
ATOM      4  C   LIG d   1       3.521  91.955 118.214  0.00  0.00     0.028 C 
ATOM      5  C   LIG d   1       4.549  90.831 118.291  0.00  0.00    -0.047 C 
ATOM      6  C   LIG d   1       4.497  90.014 116.980  0.00  0.00     0.091 C 
ENDROOT
BRANCH   1   7
ATOM      7  O   LIG d   1       2.944  89.133 115.302  0.00  0.00    -0.368 OA
BRANCH   7   8
ATOM      8  C   LIG d   1       3.294  87.771 114.956  0.00  0.00     0.119 C 
BRANCH   8   9
ATOM      9  C   LIG d   1       3.951  87.801 113.563  0.00  0.00     0.028 C 
ATOM     10  C   LIG d   1       4.714  89.111 113.302  0.00  0.00     0.006 C 
ENDBRANCH   8   9
BRANCH   8  11
ATOM     11  C   LIG d   1       2.045  86.898 114.796  0.00  0.00     0.028 C 
ATOM     12  C   LIG d   1       1.599  86.249 116.116  0.00  0.00     0.006 C 
ENDBRANCH   8  11
ENDBRANCH   7   8
ENDBRANCH   1   7
BRANCH   6  13
ATOM     13  N   LIG d   1       5.413  88.844 117.005  0.00  0.00    -0.311 N 
ATOM     14  C   LIG d   1       6.694  88.907 116.646  0.00  0.00     0.210 C 
ATOM     15  C   LIG d   1       7.455  87.580 116.728  0.00  0.00     0.109 C 
ATOM     16  O   LIG d   1       7.281  89.943 116.299  0.00  0.00    -0.276 OA
ATOM     17  H   LIG d   1       5.027  87.969 117.304  0.00  0.00     0.149 HD
ENDBRANCH   6  13
BRANCH   5  18
ATOM     18  N   LIG d   1       5.866  91.448 118.536  0.00  0.00     0.381 N 
ATOM     19  H   LIG d   1       6.590  90.780 118.364  0.00  0.00    -0.090 HD
ATOM     20  H   LIG d   1       5.919  91.730 119.499  0.00  0.00    -0.090 HD
ATOM     21  H   LIG d   1       5.987  92.240 117.944  0.00  0.00    -0.090 HD
ENDBRANCH   5  18
BRANCH   3  22
ATOM     22  C   LIG d   1       1.143  92.215 118.337  0.00  0.00     0.382 C 
ATOM     23  O   LIG d   1      -0.017  91.780 118.136  0.00  0.00    -0.241 OA
ATOM     24  O   LIG d   1       1.297  93.299 118.930  0.00  0.00    -0.241 OA
ENDBRANCH   3  22
TORSDOF 7
ENDMDL
MODEL 6
REMARK VINA RESULT:      -4.4      2.138      5.416
REMARK  7 active torsions:
REMARK  status: ('A' for Active; 'I' for Inactive)
REMARK    1  A    between atoms: C_2  and  C_3 
REMARK    2  A    between atoms: C_3  and  O_6 
REMARK    3  A    between atoms: C_3  and  C_4 
REMARK    4  A    between atoms: C_7  and  O_6 
REMARK    5  A    between atoms: C_9  and  C_10 
REMARK    6  A    between atoms: N_15  and  C_14 
REMARK    7  A    between atoms: N_20  and  C_19 
REMARK       I    between atoms: C_22  and  N_20 
ROOT
ATOM      1  C   LIG d   1       4.960  90.041 116.187  0.00  0.00     0.161 C 
ATOM      2  C   LIG d   1       4.324  89.548 115.035  0.00  0.00     0.016 C 
ATOM      3  C   LIG d   1       4.103  88.171 114.798  0.00  0.00     0.038 C 
ATOM      4  C   LIG d   1       4.370  87.199 115.774  0.00  0.00     0.028 C 
ATOM      5  C   LIG d   1       5.475  87.602 116.744  0.00  0.00    -0.047 C 
ATOM      6  C   LIG d   1       5.158  89.004 117.312  0.00  0.00     0.091 C 
ENDROOT
BRANCH   1   7
ATOM      7  O   LIG d   1       4.246  91.190 116.684  0.00  0.00    -0.368 OA
BRANCH   7   8
ATOM      8  C   LIG d   1       3.405  90.965 117.842  0.00  0.00     0.119 C 
BRANCH   8   9
ATOM      9  C   LIG d   1       1.944  91.182 117.402  0.00  0.00     0.028 C 
ATOM     10  C   LIG d   1       1.170  92.097 118.365  0.00  0.00     0.006 C 
ENDBRANCH   8   9
BRANCH   8  11
ATOM     11  C   LIG d   1       3.660  92.014 118.929  0.00  0.00     0.028 C 
ATOM     12  C   LIG d   1       4.878  92.902 118.626  0.00  0.00     0.006 C 
ENDBRANCH   8  11
ENDBRANCH   7   8
ENDBRANCH   1   7
BRANCH   6  13
ATOM     13  N   LIG d   1       6.232  89.510 118.206  0.00  0.00    -0.311 N 
ATOM     14  C   LIG d   1       7.513  89.575 117.848  0.00  0.00     0.210 C 
ATOM     15  C   LIG d   1       8.460  90.109 118.929  0.00  0.00     0.109 C 
ATOM     16  O   LIG d   1       7.952  89.272 116.729  0.00  0.00    -0.276 OA
ATOM     17  H   LIG d   1       5.960  89.806 119.123  0.00  0.00     0.149 HD
ENDBRANCH   6  13
BRANCH   5  18
ATOM     18  N   LIG d   1       5.554  86.561 117.786  0.00  0.00     0.381 N 
ATOM     19  H   LIG d   1       4.659  86.129 117.903  0.00  0.00    -0.090 HD
ATOM     20  H   LIG d   1       5.812  86.991 118.657  0.00  0.00    -0.090 HD
ATOM     21  H   LIG d   1       6.231  85.875 117.533  0.00  0.00    -0.090 HD
ENDBRANCH   5  18
BRANCH   3  22
ATOM     22  C   LIG d   1       3.646  87.753 113.558  0.00  0.00     0.382 C 
ATOM     23  O   LIG d   1       3.350  88.599 112.680  0.00  0.00    -0.241 OA
ATOM     24  O   LIG d   1       3.485  86.540 113.321  0.00  0.00    -0.241 OA
ENDBRANCH   3  22
TORSDOF 7
ENDMDL
MODEL 7
REMARK VINA RESULT:      -4.3      2.461      5.665
REMARK  7 active torsions:
REMARK  status: ('A' for Active; 'I' for Inactive)
REMARK    1  A    between atoms: C_2  and  C_3 
REMARK    2  A    between atoms: C_3  and  O_6 
REMARK    3  A    between atoms: C_3  and  C_4 
REMARK    4  A    between atoms: C_7  and  O_6 
REMARK    5  A    between atoms: C_9  and  C_10 
REMARK    6  A    between atoms: N_15  and  C_14 
REMARK    7  A    between atoms: N_20  and  C_19 
REMARK       I    between atoms: C_22  and  N_20 
ROOT
ATOM      1  C   LIG d   1       5.247  88.161 116.093  0.00  0.00     0.161 C 
ATOM      2  C   LIG d   1       6.568  87.683 116.073  0.00  0.00     0.016 C 
ATOM      3  C   LIG d   1       7.610  88.242 116.848  0.00  0.00     0.038 C 
ATOM      4  C   LIG d   1       7.367  89.229 117.815  0.00  0.00     0.028 C 
ATOM      5  C   LIG d   1       6.146  90.089 117.510  0.00  0.00    -0.047 C 
ATOM      6  C   LIG d   1       4.940  89.164 117.225  0.00  0.00     0.091 C 
ENDROOT
BRANCH   1   7
ATOM      7  O   LIG d   1       4.327  87.053 116.143  0.00  0.00    -0.368 OA
BRANCH   7   8
ATOM      8  C   LIG d   1       3.869  86.547 114.865  0.00  0.00     0.119 C 
BRANCH   8   9
ATOM      9  C   LIG d   1       3.723  87.752 113.915  0.00  0.00     0.028 C 
ATOM     10  C   LIG d   1       3.688  87.333 112.436  0.00  0.00     0.006 C 
ENDBRANCH   8   9
BRANCH   8  11
ATOM     11  C   LIG d   1       2.465  85.944 114.974  0.00  0.00     0.028 C 
ATOM     12  C   LIG d   1       1.552  86.731 115.928  0.00  0.00     0.006 C 
ENDBRANCH   8  11
ENDBRANCH   7   8
ENDBRANCH   1   7
BRANCH   6  13
ATOM     13  N   LIG d   1       3.723  89.924 116.834  0.00  0.00    -0.311 N 
ATOM     14  C   LIG d   1       2.788  90.306 117.702  0.00  0.00     0.210 C 
ATOM     15  C   LIG d   1       1.605  91.061 117.087  0.00  0.00     0.109 C 
ATOM     16  O   LIG d   1       2.841  90.120 118.927  0.00  0.00    -0.276 OA
ATOM     17  H   LIG d   1       3.615  90.144 115.864  0.00  0.00     0.149 HD
ENDBRANCH   6  13
BRANCH   5  18
ATOM     18  N   LIG d   1       5.929  90.982 118.664  0.00  0.00     0.381 N 
ATOM     19  H   LIG d   1       6.550  91.765 118.607  0.00  0.00    -0.090 HD
ATOM     20  H   LIG d   1       6.134  90.477 119.508  0.00  0.00    -0.090 HD
ATOM     21  H   LIG d   1       4.985  91.298 118.678  0.00  0.00    -0.090 HD
ENDBRANCH   5  18
BRANCH   3  22
ATOM     22  C   LIG d   1       8.920  87.842 116.629  0.00  0.00     0.382 C 
ATOM     23  O   LIG d   1       9.869  88.560 117.026  0.00  0.00    -0.241 OA
ATOM     24  O   LIG d   1       9.164  86.795 116.001  0.00  0.00    -0.241 OA
ENDBRANCH   3  22
TORSDOF 7
ENDMDL
MODEL 8
REMARK VINA RESULT:      -4.0      1.799      2.422
REMARK  7 active torsions:
REMARK  status: ('A' for Active; 'I' for Inactive)
REMARK    1  A    between atoms: C_2  and  C_3 
REMARK    2  A    between atoms: C_3  and  O_6 
REMARK    3  A    between atoms: C_3  and  C_4 
REMARK    4  A    between atoms: C_7  and  O_6 
REMARK    5  A    between atoms: C_9  and  C_10 
REMARK    6  A    between atoms: N_15  and  C_14 
REMARK    7  A    between atoms: N_20  and  C_19 
REMARK       I    between atoms: C_22  and  N_20 
ROOT
ATOM      1  C   LIG d   1       5.914  88.876 115.564  0.00  0.00     0.161 C 
ATOM      2  C   LIG d   1       6.270  89.655 116.677  0.00  0.00     0.016 C 
ATOM      3  C   LIG d   1       5.331  90.352 117.472  0.00  0.00     0.038 C 
ATOM      4  C   LIG d   1       3.948  90.193 117.296  0.00  0.00     0.028 C 
ATOM      5  C   LIG d   1       3.558  89.816 115.871  0.00  0.00    -0.047 C 
ATOM      6  C   LIG d   1       4.402  88.601 115.424  0.00  0.00     0.091 C 
ENDROOT
BRANCH   1   7
ATOM      7  O   LIG d   1       6.649  87.636 115.580  0.00  0.00    -0.368 OA
BRANCH   7   8
ATOM      8  C   LIG d   1       7.404  87.358 116.785  0.00  0.00     0.119 C 
BRANCH   8   9
ATOM      9  C   LIG d   1       8.880  87.185 116.377  0.00  0.00     0.028 C 
ATOM     10  C   LIG d   1       9.825  88.075 117.202  0.00  0.00     0.006 C 
ENDBRANCH   8   9
BRANCH   8  11
ATOM     11  C   LIG d   1       6.994  86.019 117.404  0.00  0.00     0.028 C 
ATOM     12  C   LIG d   1       5.723  85.433 116.769  0.00  0.00     0.006 C 
ENDBRANCH   8  11
ENDBRANCH   7   8
ENDBRANCH   1   7
BRANCH   6  13
ATOM     13  N   LIG d   1       4.143  88.219 114.011  0.00  0.00    -0.311 N 
ATOM     14  C   LIG d   1       3.602  87.056 113.653  0.00  0.00     0.210 C 
ATOM     15  C   LIG d   1       3.440  86.856 112.143  0.00  0.00     0.109 C 
ATOM     16  O   LIG d   1       3.212  86.184 114.444  0.00  0.00    -0.276 OA
ATOM     17  H   LIG d   1       4.401  88.881 113.305  0.00  0.00     0.149 HD
ENDBRANCH   6  13
BRANCH   5  18
ATOM     18  N   LIG d   1       2.107  89.548 115.862  0.00  0.00     0.381 N 
ATOM     19  H   LIG d   1       1.928  88.669 115.420  0.00  0.00    -0.090 HD
ATOM     20  H   LIG d   1       1.647  90.267 115.332  0.00  0.00    -0.090 HD
ATOM     21  H   LIG d   1       1.757  89.536 116.794  0.00  0.00    -0.090 HD
ENDBRANCH   5  18
BRANCH   3  22
ATOM     22  C   LIG d   1       5.774  91.251 118.430  0.00  0.00     0.382 C 
ATOM     23  O   LIG d   1       5.045  92.213 118.772  0.00  0.00    -0.241 OA
ATOM     24  O   LIG d   1       6.911  91.137 118.925  0.00  0.00    -0.241 OA
ENDBRANCH   3  22
TORSDOF 7
ENDMDL
MODEL 9
REMARK VINA RESULT:      -3.5      2.242      4.793
REMARK  7 active torsions:
REMARK  status: ('A' for Active; 'I' for Inactive)
REMARK    1  A    between atoms: C_2  and  C_3 
REMARK    2  A    between atoms: C_3  and  O_6 
REMARK    3  A    between atoms: C_3  and  C_4 
REMARK    4  A    between atoms: C_7  and  O_6 
REMARK    5  A    between atoms: C_9  and  C_10 
REMARK    6  A    between atoms: N_15  and  C_14 
REMARK    7  A    between atoms: N_20  and  C_19 
REMARK       I    between atoms: C_22  and  N_20 
ROOT
ATOM      1  C   LIG d   1       2.914  88.438 116.338  0.00  0.00     0.161 C 
ATOM      2  C   LIG d   1       2.187  89.572 116.736  0.00  0.00     0.016 C 
ATOM      3  C   LIG d   1       2.794  90.769 117.181  0.00  0.00     0.038 C 
ATOM      4  C   LIG d   1       4.181  90.966 117.115  0.00  0.00     0.028 C 
ATOM      5  C   LIG d   1       4.981  89.670 117.196  0.00  0.00    -0.047 C 
ATOM      6  C   LIG d   1       4.428  88.672 116.153  0.00  0.00     0.091 C 
ENDROOT
BRANCH   1   7
ATOM      7  O   LIG d   1       2.341  87.888 115.135  0.00  0.00    -0.368 OA
BRANCH   7   8
ATOM      8  C   LIG d   1       2.194  86.447 115.100  0.00  0.00     0.119 C 
BRANCH   8   9
ATOM      9  C   LIG d   1       2.127  86.024 113.620  0.00  0.00     0.028 C 
ATOM     10  C   LIG d   1       3.458  85.440 113.116  0.00  0.00     0.006 C 
ENDBRANCH   8   9
BRANCH   8  11
ATOM     11  C   LIG d   1       0.858  86.009 115.708  0.00  0.00     0.028 C 
ATOM     12  C   LIG d   1      -0.111  85.432 114.663  0.00  0.00     0.006 C 
ENDBRANCH   8  11
ENDBRANCH   7   8
ENDBRANCH   1   7
BRANCH   6  13
ATOM     13  N   LIG d   1       5.100  87.349 116.223  0.00  0.00    -0.311 N 
ATOM     14  C   LIG d   1       5.516  86.797 117.362  0.00  0.00     0.210 C 
ATOM     15  C   LIG d   1       6.202  85.436 117.208  0.00  0.00     0.109 C 
ATOM     16  O   LIG d   1       5.353  87.291 118.488  0.00  0.00    -0.276 OA
ATOM     17  H   LIG d   1       5.244  86.864 115.359  0.00  0.00     0.149 HD
ENDBRANCH   6  13
BRANCH   5  18
ATOM     18  N   LIG d   1       6.400  90.008 116.976  0.00  0.00     0.381 N 
ATOM     19  H   LIG d   1       6.784  89.415 116.268  0.00  0.00    -0.090 HD
ATOM     20  H   LIG d   1       6.908  89.851 117.829  0.00  0.00    -0.090 HD
ATOM     21  H   LIG d   1       6.485  90.962 116.702  0.00  0.00    -0.090 HD
ENDBRANCH   5  18
BRANCH   3  22
ATOM     22  C   LIG d   1       2.012  91.770 117.738  0.00  0.00     0.382 C 
ATOM     23  O   LIG d   1       0.836  91.521 118.097  0.00  0.00    -0.241 OA
ATOM     24  O   LIG d   1       2.453  92.930 117.844  0.00  0.00    -0.241 OA
ENDBRANCH   3  22
TORSDOF 7
ENDMDL
