MODEL 1
REMARK VINA RESULT:      -4.8      0.000      0.000
REMARK  7 active torsions:
REMARK  status: ('A' for Active; 'I' for Inactive)
REMARK    1  A    between atoms: C_2  and  C_3 
REMARK    2  A    between atoms: C_3  and  O_6 
REMARK    3  A    between atoms: C_3  and  C_4 
REMARK    4  A    between atoms: C_7  and  O_6 
REMARK    5  A    between atoms: C_9  and  C_10 
REMARK    6  A    between atoms: N_15  and  C_14 
REMARK    7  A    between atoms: N_20  and  C_19 
REMARK       I    between atoms: C_22  and  N_20 
ROOT
ATOM      1  C   LIG d   1      -6.074  91.351 117.994  0.00  0.00     0.161 C 
ATOM      2  C   LIG d   1      -7.138  92.263 118.092  0.00  0.00     0.016 C 
ATOM      3  C   LIG d   1      -6.963  93.632 118.398  0.00  0.00     0.038 C 
ATOM      4  C   LIG d   1      -5.691  94.218 118.476  0.00  0.00     0.028 C 
ATOM      5  C   LIG d   1      -4.597  93.236 118.883  0.00  0.00    -0.047 C 
ATOM      6  C   LIG d   1      -4.672  91.993 117.967  0.00  0.00     0.091 C 
ENDROOT
BRANCH   1   7
ATOM      7  O   LIG d   1      -6.261  90.506 116.841  0.00  0.00    -0.368 OA
BRANCH   7   8
ATOM      8  C   LIG d   1      -7.092  91.045 115.783  0.00  0.00     0.119 C 
BRANCH   8   9
ATOM      9  C   LIG d   1      -7.767  89.855 115.074  0.00  0.00     0.028 C 
ATOM     10  C   LIG d   1      -8.915  89.253 115.901  0.00  0.00     0.006 C 
ENDBRANCH   8   9
BRANCH   8  11
ATOM     11  C   LIG d   1      -6.248  91.733 114.707  0.00  0.00     0.028 C 
ATOM     12  C   LIG d   1      -6.382  93.264 114.733  0.00  0.00     0.006 C 
ENDBRANCH   8  11
ENDBRANCH   7   8
ENDBRANCH   1   7
BRANCH   6  13
ATOM     13  N   LIG d   1      -3.690  90.946 118.350  0.00  0.00    -0.311 N 
ATOM     14  C   LIG d   1      -2.443  90.904 117.884  0.00  0.00     0.210 C 
ATOM     15  C   LIG d   1      -1.602  89.729 118.392  0.00  0.00     0.109 C 
ATOM     16  O   LIG d   1      -1.944  91.746 117.123  0.00  0.00    -0.276 OA
ATOM     17  H   LIG d   1      -4.001  90.240 118.989  0.00  0.00     0.149 HD
ENDBRANCH   6  13
BRANCH   5  18
ATOM     18  N   LIG d   1      -3.306  93.945 118.791  0.00  0.00     0.381 N 
ATOM     19  H   LIG d   1      -3.453  94.875 118.453  0.00  0.00    -0.090 HD
ATOM     20  H   LIG d   1      -2.716  93.462 118.137  0.00  0.00    -0.090 HD
ATOM     21  H   LIG d   1      -2.869  93.974 119.686  0.00  0.00    -0.090 HD
ENDBRANCH   5  18
BRANCH   3  22
ATOM     22  C   LIG d   1      -8.070  94.423 118.667  0.00  0.00     0.382 C 
ATOM     23  O   LIG d   1      -9.217  93.916 118.669  0.00  0.00    -0.241 OA
ATOM     24  O   LIG d   1      -7.939  95.646 118.865  0.00  0.00    -0.241 OA
ENDBRANCH   3  22
TORSDOF 7
ENDMDL
MODEL 2
REMARK VINA RESULT:      -4.8      2.383      4.433
REMARK  7 active torsions:
REMARK  status: ('A' for Active; 'I' for Inactive)
REMARK    1  A    between atoms: C_2  and  C_3 
REMARK    2  A    between atoms: C_3  and  O_6 
REMARK    3  A    between atoms: C_3  and  C_4 
REMARK    4  A    between atoms: C_7  and  O_6 
REMARK    5  A    between atoms: C_9  and  C_10 
REMARK    6  A    between atoms: N_15  and  C_14 
REMARK    7  A    between atoms: N_20  and  C_19 
REMARK       I    between atoms: C_22  and  N_20 
ROOT
ATOM      1  C   LIG d   1      -4.785  93.550 117.294  0.00  0.00     0.161 C 
ATOM      2  C   LIG d   1      -5.030  94.765 117.955  0.00  0.00     0.016 C 
ATOM      3  C   LIG d   1      -6.306  95.370 118.025  0.00  0.00     0.038 C 
ATOM      4  C   LIG d   1      -7.460  94.720 117.564  0.00  0.00     0.028 C 
ATOM      5  C   LIG d   1      -7.188  93.724 116.442  0.00  0.00    -0.047 C 
ATOM      6  C   LIG d   1      -6.052  92.772 116.881  0.00  0.00     0.091 C 
ENDROOT
BRANCH   1   7
ATOM      7  O   LIG d   1      -3.927  92.719 118.100  0.00  0.00    -0.368 OA
BRANCH   7   8
ATOM      8  C   LIG d   1      -2.578  92.529 117.608  0.00  0.00     0.119 C 
BRANCH   8   9
ATOM      9  C   LIG d   1      -2.164  91.082 117.937  0.00  0.00     0.028 C 
ATOM     10  C   LIG d   1      -3.358  90.112 117.921  0.00  0.00     0.006 C 
ENDBRANCH   8   9
BRANCH   8  11
ATOM     11  C   LIG d   1      -1.581  93.416 118.360  0.00  0.00     0.028 C 
ATOM     12  C   LIG d   1      -0.768  94.324 117.423  0.00  0.00     0.006 C 
ENDBRANCH   8  11
ENDBRANCH   7   8
ENDBRANCH   1   7
BRANCH   6  13
ATOM     13  N   LIG d   1      -5.665  91.819 115.808  0.00  0.00    -0.311 N 
ATOM     14  C   LIG d   1      -6.258  90.641 115.626  0.00  0.00     0.210 C 
ATOM     15  C   LIG d   1      -5.691  89.803 114.475  0.00  0.00     0.109 C 
ATOM     16  O   LIG d   1      -7.220  90.223 116.287  0.00  0.00    -0.276 OA
ATOM     17  H   LIG d   1      -4.913  92.092 115.206  0.00  0.00     0.149 HD
ENDBRANCH   6  13
BRANCH   5  18
ATOM     18  N   LIG d   1      -8.452  93.022 116.153  0.00  0.00     0.381 N 
ATOM     19  H   LIG d   1      -9.200  93.445 116.665  0.00  0.00    -0.090 HD
ATOM     20  H   LIG d   1      -8.368  92.065 116.450  0.00  0.00    -0.090 HD
ATOM     21  H   LIG d   1      -8.647  93.057 115.176  0.00  0.00    -0.090 HD
ENDBRANCH   5  18
BRANCH   3  22
ATOM     22  C   LIG d   1      -6.430  96.657 118.526  0.00  0.00     0.382 C 
ATOM     23  O   LIG d   1      -7.551  97.221 118.536  0.00  0.00    -0.241 OA
ATOM     24  O   LIG d   1      -5.427  97.278 118.926  0.00  0.00    -0.241 OA
ENDBRANCH   3  22
TORSDOF 7
ENDMDL
MODEL 3
REMARK VINA RESULT:      -4.8      8.493     10.971
REMARK  7 active torsions:
REMARK  status: ('A' for Active; 'I' for Inactive)
REMARK    1  A    between atoms: C_2  and  C_3 
REMARK    2  A    between atoms: C_3  and  O_6 
REMARK    3  A    between atoms: C_3  and  C_4 
REMARK    4  A    between atoms: C_7  and  O_6 
REMARK    5  A    between atoms: C_9  and  C_10 
REMARK    6  A    between atoms: N_15  and  C_14 
REMARK    7  A    between atoms: N_20  and  C_19 
REMARK       I    between atoms: C_22  and  N_20 
ROOT
ATOM      1  C   LIG d   1       2.747  88.189 115.266  0.00  0.00     0.161 C 
ATOM      2  C   LIG d   1       2.378  87.153 114.391  0.00  0.00     0.016 C 
ATOM      3  C   LIG d   1       2.973  86.955 113.124  0.00  0.00     0.038 C 
ATOM      4  C   LIG d   1       4.090  87.694 112.706  0.00  0.00     0.028 C 
ATOM      5  C   LIG d   1       4.172  89.079 113.340  0.00  0.00    -0.047 C 
ATOM      6  C   LIG d   1       4.039  88.937 114.874  0.00  0.00     0.091 C 
ENDROOT
BRANCH   1   7
ATOM      7  O   LIG d   1       2.851  87.679 116.610  0.00  0.00    -0.368 OA
BRANCH   7   8
ATOM      8  C   LIG d   1       1.969  88.280 117.589  0.00  0.00     0.119 C 
BRANCH   8   9
ATOM      9  C   LIG d   1       1.314  87.136 118.386  0.00  0.00     0.028 C 
ATOM     10  C   LIG d   1       1.604  85.754 117.776  0.00  0.00     0.006 C 
ENDBRANCH   8   9
BRANCH   8  11
ATOM     11  C   LIG d   1       0.810  89.020 116.915  0.00  0.00     0.028 C 
ATOM     12  C   LIG d   1       0.807  90.527 117.220  0.00  0.00     0.006 C 
ENDBRANCH   8  11
ENDBRANCH   7   8
ENDBRANCH   1   7
BRANCH   6  13
ATOM     13  N   LIG d   1       4.024  90.252 115.566  0.00  0.00    -0.311 N 
ATOM     14  C   LIG d   1       4.852  90.566 116.560  0.00  0.00     0.210 C 
ATOM     15  C   LIG d   1       4.656  91.967 117.147  0.00  0.00     0.109 C 
ATOM     16  O   LIG d   1       5.753  89.829 116.990  0.00  0.00    -0.276 OA
ATOM     17  H   LIG d   1       3.346  90.921 115.259  0.00  0.00     0.149 HD
ENDBRANCH   6  13
BRANCH   5  18
ATOM     18  N   LIG d   1       5.451  89.684 112.925  0.00  0.00     0.381 N 
ATOM     19  H   LIG d   1       5.279  90.436 112.288  0.00  0.00    -0.090 HD
ATOM     20  H   LIG d   1       6.001  88.989 112.451  0.00  0.00    -0.090 HD
ATOM     21  H   LIG d   1       5.944  90.021 113.722  0.00  0.00    -0.090 HD
ENDBRANCH   5  18
BRANCH   3  22
ATOM     22  C   LIG d   1       2.425  86.035 112.243  0.00  0.00     0.382 C 
ATOM     23  O   LIG d   1       1.199  85.774 112.292  0.00  0.00    -0.241 OA
ATOM     24  O   LIG d   1       3.149  85.430 111.430  0.00  0.00    -0.241 OA
ENDBRANCH   3  22
TORSDOF 7
ENDMDL
MODEL 4
REMARK VINA RESULT:      -4.5      9.505     11.352
REMARK  7 active torsions:
REMARK  status: ('A' for Active; 'I' for Inactive)
REMARK    1  A    between atoms: C_2  and  C_3 
REMARK    2  A    between atoms: C_3  and  O_6 
REMARK    3  A    between atoms: C_3  and  C_4 
REMARK    4  A    between atoms: C_7  and  O_6 
REMARK    5  A    between atoms: C_9  and  C_10 
REMARK    6  A    between atoms: N_15  and  C_14 
REMARK    7  A    between atoms: N_20  and  C_19 
REMARK       I    between atoms: C_22  and  N_20 
ROOT
ATOM      1  C   LIG d   1       2.828  88.409 115.597  0.00  0.00     0.161 C 
ATOM      2  C   LIG d   1       2.191  87.470 114.768  0.00  0.00     0.016 C 
ATOM      3  C   LIG d   1       2.572  87.231 113.427  0.00  0.00     0.038 C 
ATOM      4  C   LIG d   1       3.721  87.811 112.868  0.00  0.00     0.028 C 
ATOM      5  C   LIG d   1       4.097  89.145 113.505  0.00  0.00    -0.047 C 
ATOM      6  C   LIG d   1       4.152  88.970 115.040  0.00  0.00     0.091 C 
ENDROOT
BRANCH   1   7
ATOM      7  O   LIG d   1       3.035  87.843 116.906  0.00  0.00    -0.368 OA
BRANCH   7   8
ATOM      8  C   LIG d   1       2.989  86.397 116.991  0.00  0.00     0.119 C 
BRANCH   8   9
ATOM      9  C   LIG d   1       2.151  86.032 118.232  0.00  0.00     0.028 C 
ATOM     10  C   LIG d   1       0.965  86.988 118.441  0.00  0.00     0.006 C 
ENDBRANCH   8   9
BRANCH   8  11
ATOM     11  C   LIG d   1       4.379  85.810 117.252  0.00  0.00     0.028 C 
ATOM     12  C   LIG d   1       5.148  85.501 115.958  0.00  0.00     0.006 C 
ENDBRANCH   8  11
ENDBRANCH   7   8
ENDBRANCH   1   7
BRANCH   6  13
ATOM     13  N   LIG d   1       4.431  90.248 115.746  0.00  0.00    -0.311 N 
ATOM     14  C   LIG d   1       5.366  90.378 116.686  0.00  0.00     0.210 C 
ATOM     15  C   LIG d   1       5.475  91.777 117.301  0.00  0.00     0.109 C 
ATOM     16  O   LIG d   1       6.136  89.475 117.047  0.00  0.00    -0.276 OA
ATOM     17  H   LIG d   1       3.873  91.040 115.493  0.00  0.00     0.149 HD
ENDBRANCH   6  13
BRANCH   5  18
ATOM     18  N   LIG d   1       5.385  89.569 112.924  0.00  0.00     0.381 N 
ATOM     19  H   LIG d   1       6.045  88.819 112.982  0.00  0.00    -0.090 HD
ATOM     20  H   LIG d   1       5.741  90.344 113.454  0.00  0.00    -0.090 HD
ATOM     21  H   LIG d   1       5.258  89.837 111.973  0.00  0.00    -0.090 HD
ENDBRANCH   5  18
BRANCH   3  22
ATOM     22  C   LIG d   1       1.777  86.433 112.619  0.00  0.00     0.382 C 
ATOM     23  O   LIG d   1       0.539  86.631 112.566  0.00  0.00    -0.241 OA
ATOM     24  O   LIG d   1       2.275  85.490 111.976  0.00  0.00    -0.241 OA
ENDBRANCH   3  22
TORSDOF 7
ENDMDL
MODEL 5
REMARK VINA RESULT:      -4.5      1.690      5.155
REMARK  7 active torsions:
REMARK  status: ('A' for Active; 'I' for Inactive)
REMARK    1  A    between atoms: C_2  and  C_3 
REMARK    2  A    between atoms: C_3  and  O_6 
REMARK    3  A    between atoms: C_3  and  C_4 
REMARK    4  A    between atoms: C_7  and  O_6 
REMARK    5  A    between atoms: C_9  and  C_10 
REMARK    6  A    between atoms: N_15  and  C_14 
REMARK    7  A    between atoms: N_20  and  C_19 
REMARK       I    between atoms: C_22  and  N_20 
ROOT
ATOM      1  C   LIG d   1      -4.126  91.688 116.789  0.00  0.00     0.161 C 
ATOM      2  C   LIG d   1      -3.015  90.829 116.766  0.00  0.00     0.016 C 
ATOM      3  C   LIG d   1      -1.790  91.124 117.408  0.00  0.00     0.038 C 
ATOM      4  C   LIG d   1      -1.643  92.237 118.248  0.00  0.00     0.028 C 
ATOM      5  C   LIG d   1      -2.575  93.391 117.894  0.00  0.00    -0.047 C 
ATOM      6  C   LIG d   1      -4.021  92.855 117.793  0.00  0.00     0.091 C 
ENDROOT
BRANCH   1   7
ATOM      7  O   LIG d   1      -5.327  90.927 117.028  0.00  0.00    -0.368 OA
BRANCH   7   8
ATOM      8  C   LIG d   1      -6.151  90.655 115.869  0.00  0.00     0.119 C 
BRANCH   8   9
ATOM      9  C   LIG d   1      -5.828  91.727 114.810  0.00  0.00     0.028 C 
ATOM     10  C   LIG d   1      -6.954  92.763 114.660  0.00  0.00     0.006 C 
ENDBRANCH   8   9
BRANCH   8  11
ATOM     11  C   LIG d   1      -7.638  90.837 116.188  0.00  0.00     0.028 C 
ATOM     12  C   LIG d   1      -8.467  89.574 115.904  0.00  0.00     0.006 C 
ENDBRANCH   8  11
ENDBRANCH   7   8
ENDBRANCH   1   7
BRANCH   6  13
ATOM     13  N   LIG d   1      -4.986  93.902 117.367  0.00  0.00    -0.311 N 
ATOM     14  C   LIG d   1      -6.169  94.088 117.948  0.00  0.00     0.210 C 
ATOM     15  C   LIG d   1      -7.018  95.210 117.341  0.00  0.00     0.109 C 
ATOM     16  O   LIG d   1      -6.583  93.453 118.929  0.00  0.00    -0.276 OA
ATOM     17  H   LIG d   1      -4.717  94.484 116.598  0.00  0.00     0.149 HD
ENDBRANCH   6  13
BRANCH   5  18
ATOM     18  N   LIG d   1      -2.414  94.428 118.930  0.00  0.00     0.381 N 
ATOM     19  H   LIG d   1      -1.772  94.112 119.629  0.00  0.00    -0.090 HD
ATOM     20  H   LIG d   1      -3.303  94.590 119.369  0.00  0.00    -0.090 HD
ATOM     21  H   LIG d   1      -2.080  95.272 118.519  0.00  0.00    -0.090 HD
ENDBRANCH   5  18
BRANCH   3  22
ATOM     22  C   LIG d   1      -0.683  90.321 117.179  0.00  0.00     0.382 C 
ATOM     23  O   LIG d   1      -0.551  89.242 117.806  0.00  0.00    -0.241 OA
ATOM     24  O   LIG d   1       0.207  90.682 116.387  0.00  0.00    -0.241 OA
ENDBRANCH   3  22
TORSDOF 7
ENDMDL
MODEL 6
REMARK VINA RESULT:      -4.4      2.738      4.759
REMARK  7 active torsions:
REMARK  status: ('A' for Active; 'I' for Inactive)
REMARK    1  A    between atoms: C_2  and  C_3 
REMARK    2  A    between atoms: C_3  and  O_6 
REMARK    3  A    between atoms: C_3  and  C_4 
REMARK    4  A    between atoms: C_7  and  O_6 
REMARK    5  A    between atoms: C_9  and  C_10 
REMARK    6  A    between atoms: N_15  and  C_14 
REMARK    7  A    between atoms: N_20  and  C_19 
REMARK       I    between atoms: C_22  and  N_20 
ROOT
ATOM      1  C   LIG d   1      -4.860  93.164 117.927  0.00  0.00     0.161 C 
ATOM      2  C   LIG d   1      -3.726  93.931 118.242  0.00  0.00     0.016 C 
ATOM      3  C   LIG d   1      -3.776  95.316 118.524  0.00  0.00     0.038 C 
ATOM      4  C   LIG d   1      -4.993  96.001 118.658  0.00  0.00     0.028 C 
ATOM      5  C   LIG d   1      -6.130  95.381 117.853  0.00  0.00    -0.047 C 
ATOM      6  C   LIG d   1      -6.208  93.871 118.177  0.00  0.00     0.091 C 
ENDROOT
BRANCH   1   7
ATOM      7  O   LIG d   1      -4.813  91.909 118.633  0.00  0.00    -0.368 OA
BRANCH   7   8
ATOM      8  C   LIG d   1      -4.677  90.721 117.815  0.00  0.00     0.119 C 
BRANCH   8   9
ATOM      9  C   LIG d   1      -3.445  89.948 118.324  0.00  0.00     0.028 C 
ATOM     10  C   LIG d   1      -2.127  90.507 117.764  0.00  0.00     0.006 C 
ENDBRANCH   8   9
BRANCH   8  11
ATOM     11  C   LIG d   1      -4.357  91.081 116.361  0.00  0.00     0.028 C 
ATOM     12  C   LIG d   1      -5.247  90.335 115.354  0.00  0.00     0.006 C 
ENDBRANCH   8  11
ENDBRANCH   7   8
ENDBRANCH   1   7
BRANCH   6  13
ATOM     13  N   LIG d   1      -7.240  93.171 117.368  0.00  0.00    -0.311 N 
ATOM     14  C   LIG d   1      -7.283  93.214 116.037  0.00  0.00     0.210 C 
ATOM     15  C   LIG d   1      -8.440  92.438 115.402  0.00  0.00     0.109 C 
ATOM     16  O   LIG d   1      -6.453  93.795 115.322  0.00  0.00    -0.276 OA
ATOM     17  H   LIG d   1      -7.934  92.650 117.867  0.00  0.00     0.149 HD
ENDBRANCH   6  13
BRANCH   5  18
ATOM     18  N   LIG d   1      -7.366  96.110 118.192  0.00  0.00     0.381 N 
ATOM     19  H   LIG d   1      -7.891  95.591 118.867  0.00  0.00    -0.090 HD
ATOM     20  H   LIG d   1      -7.925  96.205 117.362  0.00  0.00    -0.090 HD
ATOM     21  H   LIG d   1      -7.142  97.010 118.555  0.00  0.00    -0.090 HD
ENDBRANCH   5  18
BRANCH   3  22
ATOM     22  C   LIG d   1      -2.598  96.038 118.636  0.00  0.00     0.382 C 
ATOM     23  O   LIG d   1      -1.494  95.440 118.638  0.00  0.00    -0.241 OA
ATOM     24  O   LIG d   1      -2.626  97.275 118.779  0.00  0.00    -0.241 OA
ENDBRANCH   3  22
TORSDOF 7
ENDMDL
MODEL 7
REMARK VINA RESULT:      -4.3      2.654      3.739
REMARK  7 active torsions:
REMARK  status: ('A' for Active; 'I' for Inactive)
REMARK    1  A    between atoms: C_2  and  C_3 
REMARK    2  A    between atoms: C_3  and  O_6 
REMARK    3  A    between atoms: C_3  and  C_4 
REMARK    4  A    between atoms: C_7  and  O_6 
REMARK    5  A    between atoms: C_9  and  C_10 
REMARK    6  A    between atoms: N_15  and  C_14 
REMARK    7  A    between atoms: N_20  and  C_19 
REMARK       I    between atoms: C_22  and  N_20 
ROOT
ATOM      1  C   LIG d   1      -2.815  92.185 117.840  0.00  0.00     0.161 C 
ATOM      2  C   LIG d   1      -3.345  93.476 117.999  0.00  0.00     0.016 C 
ATOM      3  C   LIG d   1      -2.546  94.632 118.156  0.00  0.00     0.038 C 
ATOM      4  C   LIG d   1      -1.151  94.593 118.013  0.00  0.00     0.028 C 
ATOM      5  C   LIG d   1      -0.544  93.237 118.354  0.00  0.00    -0.047 C 
ATOM      6  C   LIG d   1      -1.297  92.138 117.569  0.00  0.00     0.091 C 
ENDROOT
BRANCH   1   7
ATOM      7  O   LIG d   1      -3.531  91.488 116.801  0.00  0.00    -0.368 OA
BRANCH   7   8
ATOM      8  C   LIG d   1      -4.927  91.841 116.641  0.00  0.00     0.119 C 
BRANCH   8   9
ATOM      9  C   LIG d   1      -5.704  91.198 117.805  0.00  0.00     0.028 C 
ATOM     10  C   LIG d   1      -6.901  92.053 118.255  0.00  0.00     0.006 C 
ENDBRANCH   8   9
BRANCH   8  11
ATOM     11  C   LIG d   1      -5.516  91.223 115.369  0.00  0.00     0.028 C 
ATOM     12  C   LIG d   1      -6.327  92.229 114.538  0.00  0.00     0.006 C 
ENDBRANCH   8  11
ENDBRANCH   7   8
ENDBRANCH   1   7
BRANCH   6  13
ATOM     13  N   LIG d   1      -0.821  90.772 117.909  0.00  0.00    -0.311 N 
ATOM     14  C   LIG d   1       0.114  90.127 117.214  0.00  0.00     0.210 C 
ATOM     15  C   LIG d   1       0.443  88.720 117.723  0.00  0.00     0.109 C 
ATOM     16  O   LIG d   1       0.725  90.599 116.244  0.00  0.00    -0.276 OA
ATOM     17  H   LIG d   1      -1.242  90.326 118.701  0.00  0.00     0.149 HD
ENDBRANCH   6  13
BRANCH   5  18
ATOM     18  N   LIG d   1       0.894  93.297 118.029  0.00  0.00     0.381 N 
ATOM     19  H   LIG d   1       1.039  93.012 117.082  0.00  0.00    -0.090 HD
ATOM     20  H   LIG d   1       1.389  92.662 118.630  0.00  0.00    -0.090 HD
ATOM     21  H   LIG d   1       1.234  94.224 118.161  0.00  0.00    -0.090 HD
ENDBRANCH   5  18
BRANCH   3  22
ATOM     22  C   LIG d   1      -3.140  95.836 118.500  0.00  0.00     0.382 C 
ATOM     23  O   LIG d   1      -4.371  95.883 118.738  0.00  0.00    -0.241 OA
ATOM     24  O   LIG d   1      -2.468  96.885 118.533  0.00  0.00    -0.241 OA
ENDBRANCH   3  22
TORSDOF 7
ENDMDL
MODEL 8
REMARK VINA RESULT:      -4.3      2.363      5.250
REMARK  7 active torsions:
REMARK  status: ('A' for Active; 'I' for Inactive)
REMARK    1  A    between atoms: C_2  and  C_3 
REMARK    2  A    between atoms: C_3  and  O_6 
REMARK    3  A    between atoms: C_3  and  C_4 
REMARK    4  A    between atoms: C_7  and  O_6 
REMARK    5  A    between atoms: C_9  and  C_10 
REMARK    6  A    between atoms: N_15  and  C_14 
REMARK    7  A    between atoms: N_20  and  C_19 
REMARK       I    between atoms: C_22  and  N_20 
ROOT
ATOM      1  C   LIG d   1      -3.860  92.359 116.875  0.00  0.00     0.161 C 
ATOM      2  C   LIG d   1      -3.172  93.442 117.446  0.00  0.00     0.016 C 
ATOM      3  C   LIG d   1      -3.776  94.375 118.320  0.00  0.00     0.038 C 
ATOM      4  C   LIG d   1      -5.081  94.199 118.804  0.00  0.00     0.028 C 
ATOM      5  C   LIG d   1      -5.975  93.400 117.861  0.00  0.00    -0.047 C 
ATOM      6  C   LIG d   1      -5.254  92.088 117.478  0.00  0.00     0.091 C 
ENDROOT
BRANCH   1   7
ATOM      7  O   LIG d   1      -3.045  91.172 116.941  0.00  0.00    -0.368 OA
BRANCH   7   8
ATOM      8  C   LIG d   1      -1.979  91.185 117.923  0.00  0.00     0.119 C 
BRANCH   8   9
ATOM      9  C   LIG d   1      -0.658  90.919 117.175  0.00  0.00     0.028 C 
ATOM     10  C   LIG d   1       0.289  92.130 117.209  0.00  0.00     0.006 C 
ENDBRANCH   8   9
BRANCH   8  11
ATOM     11  C   LIG d   1      -2.123  90.029 118.916  0.00  0.00     0.028 C 
ATOM     12  C   LIG d   1      -0.933  89.057 118.876  0.00  0.00     0.006 C 
ENDBRANCH   8  11
ENDBRANCH   7   8
ENDBRANCH   1   7
BRANCH   6  13
ATOM     13  N   LIG d   1      -6.023  91.286 116.491  0.00  0.00    -0.311 N 
ATOM     14  C   LIG d   1      -6.271  91.695 115.249  0.00  0.00     0.210 C 
ATOM     15  C   LIG d   1      -7.099  90.724 114.401  0.00  0.00     0.109 C 
ATOM     16  O   LIG d   1      -5.858  92.756 114.757  0.00  0.00    -0.276 OA
ATOM     17  H   LIG d   1      -6.370  90.398 116.797  0.00  0.00     0.149 HD
ENDBRANCH   6  13
BRANCH   5  18
ATOM     18  N   LIG d   1      -7.260  93.175 118.549  0.00  0.00     0.381 N 
ATOM     19  H   LIG d   1      -7.432  92.193 118.632  0.00  0.00    -0.090 HD
ATOM     20  H   LIG d   1      -7.998  93.579 118.000  0.00  0.00    -0.090 HD
ATOM     21  H   LIG d   1      -7.241  93.593 119.453  0.00  0.00    -0.090 HD
ENDBRANCH   5  18
BRANCH   3  22
ATOM     22  C   LIG d   1      -3.086  95.520 118.688  0.00  0.00     0.382 C 
ATOM     23  O   LIG d   1      -3.713  96.580 118.927  0.00  0.00    -0.241 OA
ATOM     24  O   LIG d   1      -1.842  95.518 118.739  0.00  0.00    -0.241 OA
ENDBRANCH   3  22
TORSDOF 7
ENDMDL
MODEL 9
REMARK VINA RESULT:      -4.0     10.399     12.301
REMARK  7 active torsions:
REMARK  status: ('A' for Active; 'I' for Inactive)
REMARK    1  A    between atoms: C_2  and  C_3 
REMARK    2  A    between atoms: C_3  and  O_6 
REMARK    3  A    between atoms: C_3  and  C_4 
REMARK    4  A    between atoms: C_7  and  O_6 
REMARK    5  A    between atoms: C_9  and  C_10 
REMARK    6  A    between atoms: N_15  and  C_14 
REMARK    7  A    between atoms: N_20  and  C_19 
REMARK       I    between atoms: C_22  and  N_20 
ROOT
ATOM      1  C   LIG d   1       5.395  87.682 116.863  0.00  0.00     0.161 C 
ATOM      2  C   LIG d   1       4.513  88.714 116.501  0.00  0.00     0.016 C 
ATOM      3  C   LIG d   1       4.821  90.087 116.645  0.00  0.00     0.038 C 
ATOM      4  C   LIG d   1       6.099  90.524 117.022  0.00  0.00     0.028 C 
ATOM      5  C   LIG d   1       6.856  89.515 117.879  0.00  0.00    -0.047 C 
ATOM      6  C   LIG d   1       6.835  88.141 117.172  0.00  0.00     0.091 C 
ENDROOT
BRANCH   1   7
ATOM      7  O   LIG d   1       5.402  86.665 115.842  0.00  0.00    -0.368 OA
BRANCH   7   8
ATOM      8  C   LIG d   1       4.562  86.914 114.687  0.00  0.00     0.119 C 
BRANCH   8   9
ATOM      9  C   LIG d   1       4.059  85.550 114.177  0.00  0.00     0.028 C 
ATOM     10  C   LIG d   1       2.742  85.667 113.391  0.00  0.00     0.006 C 
ENDBRANCH   8   9
BRANCH   8  11
ATOM     11  C   LIG d   1       5.370  87.508 113.529  0.00  0.00     0.028 C 
ATOM     12  C   LIG d   1       4.741  88.790 112.960  0.00  0.00     0.006 C 
ENDBRANCH   8  11
ENDBRANCH   7   8
ENDBRANCH   1   7
BRANCH   6  13
ATOM     13  N   LIG d   1       7.482  87.077 117.983  0.00  0.00    -0.311 N 
ATOM     14  C   LIG d   1       8.761  86.729 117.850  0.00  0.00     0.210 C 
ATOM     15  C   LIG d   1       9.221  85.594 118.771  0.00  0.00     0.109 C 
ATOM     16  O   LIG d   1       9.566  87.274 117.080  0.00  0.00    -0.276 OA
ATOM     17  H   LIG d   1       6.909  86.603 118.654  0.00  0.00     0.149 HD
ENDBRANCH   6  13
BRANCH   5  18
ATOM     18  N   LIG d   1       8.219  90.039 118.085  0.00  0.00     0.381 N 
ATOM     19  H   LIG d   1       8.614  89.641 118.913  0.00  0.00    -0.090 HD
ATOM     20  H   LIG d   1       8.170  91.036 118.206  0.00  0.00    -0.090 HD
ATOM     21  H   LIG d   1       8.791  89.821 117.298  0.00  0.00    -0.090 HD
ENDBRANCH   5  18
BRANCH   3  22
ATOM     22  C   LIG d   1       3.830  91.037 116.448  0.00  0.00     0.382 C 
ATOM     23  O   LIG d   1       4.116  92.258 116.487  0.00  0.00    -0.241 OA
ATOM     24  O   LIG d   1       2.647  90.690 116.275  0.00  0.00    -0.241 OA
ENDBRANCH   3  22
TORSDOF 7
ENDMDL
