MODEL 1
REMARK VINA RESULT:      -4.4      0.000      0.000
REMARK  7 active torsions:
REMARK  status: ('A' for Active; 'I' for Inactive)
REMARK    1  A    between atoms: C_2  and  C_3 
REMARK    2  A    between atoms: C_3  and  O_6 
REMARK    3  A    between atoms: C_3  and  C_4 
REMARK    4  A    between atoms: C_7  and  O_6 
REMARK    5  A    between atoms: C_9  and  C_10 
REMARK    6  A    between atoms: N_15  and  C_14 
REMARK    7  A    between atoms: N_20  and  C_19 
REMARK       I    between atoms: C_22  and  N_20 
ROOT
ATOM      1  C   LIG d   1       3.044  88.292 115.650  0.00  0.00     0.161 C 
ATOM      2  C   LIG d   1       3.751  88.989 116.644  0.00  0.00     0.016 C 
ATOM      3  C   LIG d   1       5.058  89.494 116.460  0.00  0.00     0.038 C 
ATOM      4  C   LIG d   1       5.694  89.467 115.209  0.00  0.00     0.028 C 
ATOM      5  C   LIG d   1       5.221  88.326 114.314  0.00  0.00    -0.047 C 
ATOM      6  C   LIG d   1       3.677  88.350 114.245  0.00  0.00     0.091 C 
ENDROOT
BRANCH   1   7
ATOM      7  O   LIG d   1       1.680  88.756 115.605  0.00  0.00    -0.368 OA
BRANCH   7   8
ATOM      8  C   LIG d   1       1.058  89.036 116.883  0.00  0.00     0.119 C 
BRANCH   8   9
ATOM      9  C   LIG d   1      -0.098  88.034 117.065  0.00  0.00     0.028 C 
ATOM     10  C   LIG d   1       0.329  86.781 117.850  0.00  0.00     0.006 C 
ENDBRANCH   8   9
BRANCH   8  11
ATOM     11  C   LIG d   1       0.401  90.419 116.892  0.00  0.00     0.028 C 
ATOM     12  C   LIG d   1       1.116  91.412 117.823  0.00  0.00     0.006 C 
ENDBRANCH   8  11
ENDBRANCH   7   8
ENDBRANCH   1   7
BRANCH   6  13
ATOM     13  N   LIG d   1       3.128  87.216 113.456  0.00  0.00    -0.311 N 
ATOM     14  C   LIG d   1       2.789  87.312 112.172  0.00  0.00     0.210 C 
ATOM     15  C   LIG d   1       2.224  86.029 111.555  0.00  0.00     0.109 C 
ATOM     16  O   LIG d   1       2.933  88.329 111.477  0.00  0.00    -0.276 OA
ATOM     17  H   LIG d   1       3.007  86.344 113.934  0.00  0.00     0.149 HD
ENDBRANCH   6  13
BRANCH   5  18
ATOM     18  N   LIG d   1       5.862  88.499 112.997  0.00  0.00     0.381 N 
ATOM     19  H   LIG d   1       6.854  88.564 113.108  0.00  0.00    -0.090 HD
ATOM     20  H   LIG d   1       5.535  89.356 112.586  0.00  0.00    -0.090 HD
ATOM     21  H   LIG d   1       5.637  87.731 112.404  0.00  0.00    -0.090 HD
ENDBRANCH   5  18
BRANCH   3  22
ATOM     22  C   LIG d   1       5.760  89.998 117.544  0.00  0.00     0.382 C 
ATOM     23  O   LIG d   1       6.989  89.771 117.657  0.00  0.00    -0.241 OA
ATOM     24  O   LIG d   1       5.171  90.639 118.435  0.00  0.00    -0.241 OA
ENDBRANCH   3  22
TORSDOF 7
ENDMDL
MODEL 2
REMARK VINA RESULT:      -4.3      6.927      9.513
REMARK  7 active torsions:
REMARK  status: ('A' for Active; 'I' for Inactive)
REMARK    1  A    between atoms: C_2  and  C_3 
REMARK    2  A    between atoms: C_3  and  O_6 
REMARK    3  A    between atoms: C_3  and  C_4 
REMARK    4  A    between atoms: C_7  and  O_6 
REMARK    5  A    between atoms: C_9  and  C_10 
REMARK    6  A    between atoms: N_15  and  C_14 
REMARK    7  A    between atoms: N_20  and  C_19 
REMARK       I    between atoms: C_22  and  N_20 
ROOT
ATOM      1  C   LIG d   1      -4.994  90.502 118.099  0.00  0.00     0.161 C 
ATOM      2  C   LIG d   1      -5.760  91.673 118.233  0.00  0.00     0.016 C 
ATOM      3  C   LIG d   1      -5.195  92.951 118.445  0.00  0.00     0.038 C 
ATOM      4  C   LIG d   1      -3.811  93.170 118.388  0.00  0.00     0.028 C 
ATOM      5  C   LIG d   1      -2.988  91.941 118.759  0.00  0.00    -0.047 C 
ATOM      6  C   LIG d   1      -3.479  90.737 117.923  0.00  0.00     0.091 C 
ENDROOT
BRANCH   1   7
ATOM      7  O   LIG d   1      -5.507  89.704 117.015  0.00  0.00    -0.368 OA
BRANCH   7   8
ATOM      8  C   LIG d   1      -6.725  90.181 116.392  0.00  0.00     0.119 C 
BRANCH   8   9
ATOM      9  C   LIG d   1      -7.813  89.116 116.625  0.00  0.00     0.028 C 
ATOM     10  C   LIG d   1      -8.953  89.205 115.597  0.00  0.00     0.006 C 
ENDBRANCH   8   9
BRANCH   8  11
ATOM     11  C   LIG d   1      -6.572  90.278 114.871  0.00  0.00     0.028 C 
ATOM     12  C   LIG d   1      -6.621  91.726 114.358  0.00  0.00     0.006 C 
ENDBRANCH   8  11
ENDBRANCH   7   8
ENDBRANCH   1   7
BRANCH   6  13
ATOM     13  N   LIG d   1      -2.784  89.474 118.285  0.00  0.00    -0.311 N 
ATOM     14  C   LIG d   1      -1.674  89.050 117.682  0.00  0.00     0.210 C 
ATOM     15  C   LIG d   1      -1.131  87.713 118.195  0.00  0.00     0.109 C 
ATOM     16  O   LIG d   1      -1.070  89.670 116.794  0.00  0.00    -0.276 OA
ATOM     17  H   LIG d   1      -3.188  88.924 119.017  0.00  0.00     0.149 HD
ENDBRANCH   6  13
BRANCH   5  18
ATOM     18  N   LIG d   1      -1.569  92.267 118.525  0.00  0.00     0.381 N 
ATOM     19  H   LIG d   1      -1.064  92.224 119.387  0.00  0.00    -0.090 HD
ATOM     20  H   LIG d   1      -1.505  93.205 118.169  0.00  0.00    -0.090 HD
ATOM     21  H   LIG d   1      -1.176  91.628 117.869  0.00  0.00    -0.090 HD
ENDBRANCH   5  18
BRANCH   3  22
ATOM     22  C   LIG d   1      -6.019  94.022 118.758  0.00  0.00     0.382 C 
ATOM     23  O   LIG d   1      -5.527  95.166 118.915  0.00  0.00    -0.241 OA
ATOM     24  O   LIG d   1      -7.241  93.851 118.930  0.00  0.00    -0.241 OA
ENDBRANCH   3  22
TORSDOF 7
ENDMDL
MODEL 3
REMARK VINA RESULT:      -4.2      2.582      5.669
REMARK  7 active torsions:
REMARK  status: ('A' for Active; 'I' for Inactive)
REMARK    1  A    between atoms: C_2  and  C_3 
REMARK    2  A    between atoms: C_3  and  O_6 
REMARK    3  A    between atoms: C_3  and  C_4 
REMARK    4  A    between atoms: C_7  and  O_6 
REMARK    5  A    between atoms: C_9  and  C_10 
REMARK    6  A    between atoms: N_15  and  C_14 
REMARK    7  A    between atoms: N_20  and  C_19 
REMARK       I    between atoms: C_22  and  N_20 
ROOT
ATOM      1  C   LIG d   1       4.052  86.456 115.251  0.00  0.00     0.161 C 
ATOM      2  C   LIG d   1       2.648  86.490 115.295  0.00  0.00     0.016 C 
ATOM      3  C   LIG d   1       1.917  87.095 116.343  0.00  0.00     0.038 C 
ATOM      4  C   LIG d   1       2.545  87.845 117.349  0.00  0.00     0.028 C 
ATOM      5  C   LIG d   1       3.981  87.410 117.621  0.00  0.00    -0.047 C 
ATOM      6  C   LIG d   1       4.753  87.365 116.282  0.00  0.00     0.091 C 
ENDROOT
BRANCH   1   7
ATOM      7  O   LIG d   1       4.507  86.766 113.919  0.00  0.00    -0.368 OA
BRANCH   7   8
ATOM      8  C   LIG d   1       3.819  87.849 113.246  0.00  0.00     0.119 C 
BRANCH   8   9
ATOM      9  C   LIG d   1       3.473  87.365 111.825  0.00  0.00     0.028 C 
ATOM     10  C   LIG d   1       4.249  86.098 111.431  0.00  0.00     0.006 C 
ENDBRANCH   8   9
BRANCH   8  11
ATOM     11  C   LIG d   1       4.739  89.057 113.051  0.00  0.00     0.028 C 
ATOM     12  C   LIG d   1       6.230  88.688 113.119  0.00  0.00     0.006 C 
ENDBRANCH   8  11
ENDBRANCH   7   8
ENDBRANCH   1   7
BRANCH   6  13
ATOM     13  N   LIG d   1       6.144  86.868 116.447  0.00  0.00    -0.311 N 
ATOM     14  C   LIG d   1       7.198  87.671 116.585  0.00  0.00     0.210 C 
ATOM     15  C   LIG d   1       8.544  86.953 116.721  0.00  0.00     0.109 C 
ATOM     16  O   LIG d   1       7.142  88.908 116.639  0.00  0.00    -0.276 OA
ATOM     17  H   LIG d   1       6.277  85.875 116.446  0.00  0.00     0.149 HD
ENDBRANCH   6  13
BRANCH   5  18
ATOM     18  N   LIG d   1       4.558  88.361 118.589  0.00  0.00     0.381 N 
ATOM     19  H   LIG d   1       4.253  89.290 118.376  0.00  0.00    -0.090 HD
ATOM     20  H   LIG d   1       5.560  88.333 118.515  0.00  0.00    -0.090 HD
ATOM     21  H   LIG d   1       4.280  88.117 119.514  0.00  0.00    -0.090 HD
ENDBRANCH   5  18
BRANCH   3  22
ATOM     22  C   LIG d   1       0.543  86.920 116.413  0.00  0.00     0.382 C 
ATOM     23  O   LIG d   1      -0.047  87.026 117.515  0.00  0.00    -0.241 OA
ATOM     24  O   LIG d   1      -0.107  86.612 115.396  0.00  0.00    -0.241 OA
ENDBRANCH   3  22
TORSDOF 7
ENDMDL
MODEL 4
REMARK VINA RESULT:      -4.1      2.421      5.477
REMARK  7 active torsions:
REMARK  status: ('A' for Active; 'I' for Inactive)
REMARK    1  A    between atoms: C_2  and  C_3 
REMARK    2  A    between atoms: C_3  and  O_6 
REMARK    3  A    between atoms: C_3  and  C_4 
REMARK    4  A    between atoms: C_7  and  O_6 
REMARK    5  A    between atoms: C_9  and  C_10 
REMARK    6  A    between atoms: N_15  and  C_14 
REMARK    7  A    between atoms: N_20  and  C_19 
REMARK       I    between atoms: C_22  and  N_20 
ROOT
ATOM      1  C   LIG d   1       3.487  88.804 115.872  0.00  0.00     0.161 C 
ATOM      2  C   LIG d   1       2.203  89.348 116.042  0.00  0.00     0.016 C 
ATOM      3  C   LIG d   1       1.878  90.272 117.061  0.00  0.00     0.038 C 
ATOM      4  C   LIG d   1       2.858  90.834 117.892  0.00  0.00     0.028 C 
ATOM      5  C   LIG d   1       4.075  89.937 118.086  0.00  0.00    -0.047 C 
ATOM      6  C   LIG d   1       4.594  89.489 116.700  0.00  0.00     0.091 C 
ENDROOT
BRANCH   1   7
ATOM      7  O   LIG d   1       3.835  88.801 114.474  0.00  0.00    -0.368 OA
BRANCH   7   8
ATOM      8  C   LIG d   1       4.065  87.501 113.876  0.00  0.00     0.119 C 
BRANCH   8   9
ATOM      9  C   LIG d   1       5.106  87.684 112.756  0.00  0.00     0.028 C 
ATOM     10  C   LIG d   1       6.134  88.780 113.083  0.00  0.00     0.006 C 
ENDBRANCH   8   9
BRANCH   8  11
ATOM     11  C   LIG d   1       2.806  86.979 113.178  0.00  0.00     0.028 C 
ATOM     12  C   LIG d   1       2.590  87.605 111.792  0.00  0.00     0.006 C 
ENDBRANCH   8  11
ENDBRANCH   7   8
ENDBRANCH   1   7
BRANCH   6  13
ATOM     13  N   LIG d   1       5.733  88.540 116.800  0.00  0.00    -0.311 N 
ATOM     14  C   LIG d   1       7.009  88.923 116.795  0.00  0.00     0.210 C 
ATOM     15  C   LIG d   1       8.027  87.782 116.888  0.00  0.00     0.109 C 
ATOM     16  O   LIG d   1       7.394  90.102 116.755  0.00  0.00    -0.276 OA
ATOM     17  H   LIG d   1       5.511  87.567 116.868  0.00  0.00     0.149 HD
ENDBRANCH   6  13
BRANCH   5  18
ATOM     18  N   LIG d   1       5.074  90.700 118.858  0.00  0.00     0.381 N 
ATOM     19  H   LIG d   1       5.912  90.163 118.952  0.00  0.00    -0.090 HD
ATOM     20  H   LIG d   1       4.708  90.878 119.776  0.00  0.00    -0.090 HD
ATOM     21  H   LIG d   1       5.273  91.562 118.399  0.00  0.00    -0.090 HD
ENDBRANCH   5  18
BRANCH   3  22
ATOM     22  C   LIG d   1       0.552  90.613 117.282  0.00  0.00     0.382 C 
ATOM     23  O   LIG d   1      -0.359  90.045 116.633  0.00  0.00    -0.241 OA
ATOM     24  O   LIG d   1       0.258  91.513 118.092  0.00  0.00    -0.241 OA
ENDBRANCH   3  22
TORSDOF 7
ENDMDL
MODEL 5
REMARK VINA RESULT:      -4.1      2.508      5.079
REMARK  7 active torsions:
REMARK  status: ('A' for Active; 'I' for Inactive)
REMARK    1  A    between atoms: C_2  and  C_3 
REMARK    2  A    between atoms: C_3  and  O_6 
REMARK    3  A    between atoms: C_3  and  C_4 
REMARK    4  A    between atoms: C_7  and  O_6 
REMARK    5  A    between atoms: C_9  and  C_10 
REMARK    6  A    between atoms: N_15  and  C_14 
REMARK    7  A    between atoms: N_20  and  C_19 
REMARK       I    between atoms: C_22  and  N_20 
ROOT
ATOM      1  C   LIG d   1       3.604  87.443 115.916  0.00  0.00     0.161 C 
ATOM      2  C   LIG d   1       2.547  88.367 115.977  0.00  0.00     0.016 C 
ATOM      3  C   LIG d   1       2.612  89.577 116.705  0.00  0.00     0.038 C 
ATOM      4  C   LIG d   1       3.802  90.019 117.303  0.00  0.00     0.028 C 
ATOM      5  C   LIG d   1       4.743  88.884 117.692  0.00  0.00    -0.047 C 
ATOM      6  C   LIG d   1       4.948  87.960 116.470  0.00  0.00     0.091 C 
ENDROOT
BRANCH   1   7
ATOM      7  O   LIG d   1       3.766  86.975 114.562  0.00  0.00    -0.368 OA
BRANCH   7   8
ATOM      8  C   LIG d   1       3.888  87.999 113.544  0.00  0.00     0.119 C 
BRANCH   8   9
ATOM      9  C   LIG d   1       2.924  87.631 112.400  0.00  0.00     0.028 C 
ATOM     10  C   LIG d   1       3.526  86.596 111.435  0.00  0.00     0.006 C 
ENDBRANCH   8   9
BRANCH   8  11
ATOM     11  C   LIG d   1       5.284  87.996 112.915  0.00  0.00     0.028 C 
ATOM     12  C   LIG d   1       6.120  89.224 113.312  0.00  0.00     0.006 C 
ENDBRANCH   8  11
ENDBRANCH   7   8
ENDBRANCH   1   7
BRANCH   6  13
ATOM     13  N   LIG d   1       5.788  86.777 116.788  0.00  0.00    -0.311 N 
ATOM     14  C   LIG d   1       7.112  86.758 116.644  0.00  0.00     0.210 C 
ATOM     15  C   LIG d   1       7.783  85.430 117.010  0.00  0.00     0.109 C 
ATOM     16  O   LIG d   1       7.798  87.724 116.277  0.00  0.00    -0.276 OA
ATOM     17  H   LIG d   1       5.317  85.959 117.121  0.00  0.00     0.149 HD
ENDBRANCH   6  13
BRANCH   5  18
ATOM     18  N   LIG d   1       5.997  89.491 118.175  0.00  0.00     0.381 N 
ATOM     19  H   LIG d   1       6.106  90.403 117.780  0.00  0.00    -0.090 HD
ATOM     20  H   LIG d   1       6.770  88.923 117.875  0.00  0.00    -0.090 HD
ATOM     21  H   LIG d   1       5.987  89.551 119.170  0.00  0.00    -0.090 HD
ENDBRANCH   5  18
BRANCH   3  22
ATOM     22  C   LIG d   1       1.467  90.340 116.875  0.00  0.00     0.382 C 
ATOM     23  O   LIG d   1       0.385  89.969 116.360  0.00  0.00    -0.241 OA
ATOM     24  O   LIG d   1       1.512  91.417 117.498  0.00  0.00    -0.241 OA
ENDBRANCH   3  22
TORSDOF 7
ENDMDL
MODEL 6
REMARK VINA RESULT:      -4.1      3.092      6.254
REMARK  7 active torsions:
REMARK  status: ('A' for Active; 'I' for Inactive)
REMARK    1  A    between atoms: C_2  and  C_3 
REMARK    2  A    between atoms: C_3  and  O_6 
REMARK    3  A    between atoms: C_3  and  C_4 
REMARK    4  A    between atoms: C_7  and  O_6 
REMARK    5  A    between atoms: C_9  and  C_10 
REMARK    6  A    between atoms: N_15  and  C_14 
REMARK    7  A    between atoms: N_20  and  C_19 
REMARK       I    between atoms: C_22  and  N_20 
ROOT
ATOM      1  C   LIG d   1       0.833  88.268 117.051  0.00  0.00     0.161 C 
ATOM      2  C   LIG d   1      -0.572  88.253 117.052  0.00  0.00     0.016 C 
ATOM      3  C   LIG d   1      -1.361  89.323 117.532  0.00  0.00     0.038 C 
ATOM      4  C   LIG d   1      -0.795  90.551 117.906  0.00  0.00     0.028 C 
ATOM      5  C   LIG d   1       0.644  90.431 118.397  0.00  0.00    -0.047 C 
ATOM      6  C   LIG d   1       1.466  89.642 117.352  0.00  0.00     0.091 C 
ENDROOT
BRANCH   1   7
ATOM      7  O   LIG d   1       1.326  87.753 115.798  0.00  0.00    -0.368 OA
BRANCH   7   8
ATOM      8  C   LIG d   1       2.188  86.592 115.881  0.00  0.00     0.119 C 
BRANCH   8   9
ATOM      9  C   LIG d   1       3.532  86.965 115.226  0.00  0.00     0.028 C 
ATOM     10  C   LIG d   1       3.395  88.124 114.224  0.00  0.00     0.006 C 
ENDBRANCH   8   9
BRANCH   8  11
ATOM     11  C   LIG d   1       1.640  85.430 115.047  0.00  0.00     0.028 C 
ATOM     12  C   LIG d   1       0.386  85.812 114.245  0.00  0.00     0.006 C 
ENDBRANCH   8  11
ENDBRANCH   7   8
ENDBRANCH   1   7
BRANCH   6  13
ATOM     13  N   LIG d   1       2.865  89.406 117.793  0.00  0.00    -0.311 N 
ATOM     14  C   LIG d   1       3.902  90.117 117.353  0.00  0.00     0.210 C 
ATOM     15  C   LIG d   1       5.262  89.697 117.920  0.00  0.00     0.109 C 
ATOM     16  O   LIG d   1       3.821  91.077 116.572  0.00  0.00    -0.276 OA
ATOM     17  H   LIG d   1       3.018  88.667 118.450  0.00  0.00     0.149 HD
ENDBRANCH   6  13
BRANCH   5  18
ATOM     18  N   LIG d   1       1.153  91.797 118.622  0.00  0.00     0.381 N 
ATOM     19  H   LIG d   1       1.739  92.070 117.859  0.00  0.00    -0.090 HD
ATOM     20  H   LIG d   1       1.706  91.803 119.462  0.00  0.00    -0.090 HD
ATOM     21  H   LIG d   1       0.393  92.434 118.712  0.00  0.00    -0.090 HD
ENDBRANCH   5  18
BRANCH   3  22
ATOM     22  C   LIG d   1      -2.729  89.157 117.678  0.00  0.00     0.382 C 
ATOM     23  O   LIG d   1      -3.176  88.187 118.338  0.00  0.00    -0.241 OA
ATOM     24  O   LIG d   1      -3.524  89.938 117.122  0.00  0.00    -0.241 OA
ENDBRANCH   3  22
TORSDOF 7
ENDMDL
MODEL 7
REMARK VINA RESULT:      -4.0      1.536      2.458
REMARK  7 active torsions:
REMARK  status: ('A' for Active; 'I' for Inactive)
REMARK    1  A    between atoms: C_2  and  C_3 
REMARK    2  A    between atoms: C_3  and  O_6 
REMARK    3  A    between atoms: C_3  and  C_4 
REMARK    4  A    between atoms: C_7  and  O_6 
REMARK    5  A    between atoms: C_9  and  C_10 
REMARK    6  A    between atoms: N_15  and  C_14 
REMARK    7  A    between atoms: N_20  and  C_19 
REMARK       I    between atoms: C_22  and  N_20 
ROOT
ATOM      1  C   LIG d   1       4.673  87.016 115.738  0.00  0.00     0.161 C 
ATOM      2  C   LIG d   1       5.501  87.615 116.703  0.00  0.00     0.016 C 
ATOM      3  C   LIG d   1       6.301  88.752 116.444  0.00  0.00     0.038 C 
ATOM      4  C   LIG d   1       6.212  89.462 115.237  0.00  0.00     0.028 C 
ATOM      5  C   LIG d   1       5.767  88.601 114.059  0.00  0.00    -0.047 C 
ATOM      6  C   LIG d   1       4.478  87.843 114.450  0.00  0.00     0.091 C 
ENDROOT
BRANCH   1   7
ATOM      7  O   LIG d   1       3.396  86.692 116.324  0.00  0.00    -0.368 OA
BRANCH   7   8
ATOM      8  C   LIG d   1       2.328  87.643 116.089  0.00  0.00     0.119 C 
BRANCH   8   9
ATOM      9  C   LIG d   1       2.261  88.576 117.314  0.00  0.00     0.028 C 
ATOM     10  C   LIG d   1       2.644  90.025 116.969  0.00  0.00     0.006 C 
ENDBRANCH   8   9
BRANCH   8  11
ATOM     11  C   LIG d   1       0.965  86.947 116.035  0.00  0.00     0.028 C 
ATOM     12  C   LIG d   1       0.899  85.848 114.962  0.00  0.00     0.006 C 
ENDBRANCH   8  11
ENDBRANCH   7   8
ENDBRANCH   1   7
BRANCH   6  13
ATOM     13  N   LIG d   1       4.023  86.913 113.384  0.00  0.00    -0.311 N 
ATOM     14  C   LIG d   1       3.177  87.265 112.417  0.00  0.00     0.210 C 
ATOM     15  C   LIG d   1       2.822  86.147 111.431  0.00  0.00     0.109 C 
ATOM     16  O   LIG d   1       2.713  88.404 112.263  0.00  0.00    -0.276 OA
ATOM     17  H   LIG d   1       4.375  85.976 113.415  0.00  0.00     0.149 HD
ENDBRANCH   6  13
BRANCH   5  18
ATOM     18  N   LIG d   1       5.584  89.494 112.899  0.00  0.00     0.381 N 
ATOM     19  H   LIG d   1       4.608  89.651 112.744  0.00  0.00    -0.090 HD
ATOM     20  H   LIG d   1       5.965  89.048 112.083  0.00  0.00    -0.090 HD
ATOM     21  H   LIG d   1       6.046  90.361 113.060  0.00  0.00    -0.090 HD
ENDBRANCH   5  18
BRANCH   3  22
ATOM     22  C   LIG d   1       7.232  89.165 117.384  0.00  0.00     0.382 C 
ATOM     23  O   LIG d   1       7.127  90.297 117.915  0.00  0.00    -0.241 OA
ATOM     24  O   LIG d   1       8.201  88.439 117.676  0.00  0.00    -0.241 OA
ENDBRANCH   3  22
TORSDOF 7
ENDMDL
MODEL 8
REMARK VINA RESULT:      -3.8      4.798      8.166
REMARK  7 active torsions:
REMARK  status: ('A' for Active; 'I' for Inactive)
REMARK    1  A    between atoms: C_2  and  C_3 
REMARK    2  A    between atoms: C_3  and  O_6 
REMARK    3  A    between atoms: C_3  and  C_4 
REMARK    4  A    between atoms: C_7  and  O_6 
REMARK    5  A    between atoms: C_9  and  C_10 
REMARK    6  A    between atoms: N_15  and  C_14 
REMARK    7  A    between atoms: N_20  and  C_19 
REMARK       I    between atoms: C_22  and  N_20 
ROOT
ATOM      1  C   LIG d   1      -2.290  89.646 117.597  0.00  0.00     0.161 C 
ATOM      2  C   LIG d   1      -3.623  89.363 117.254  0.00  0.00     0.016 C 
ATOM      3  C   LIG d   1      -4.625  90.354 117.144  0.00  0.00     0.038 C 
ATOM      4  C   LIG d   1      -4.327  91.722 117.222  0.00  0.00     0.028 C 
ATOM      5  C   LIG d   1      -3.093  92.026 118.066  0.00  0.00    -0.047 C 
ATOM      6  C   LIG d   1      -1.921  91.144 117.577  0.00  0.00     0.091 C 
ENDROOT
BRANCH   1   7
ATOM      7  O   LIG d   1      -1.398  88.899 116.746  0.00  0.00    -0.368 OA
BRANCH   7   8
ATOM      8  C   LIG d   1      -0.973  87.607 117.247  0.00  0.00     0.119 C 
BRANCH   8   9
ATOM      9  C   LIG d   1      -0.585  87.789 118.727  0.00  0.00     0.028 C 
ATOM     10  C   LIG d   1       0.935  87.915 118.923  0.00  0.00     0.006 C 
ENDBRANCH   8   9
BRANCH   8  11
ATOM     11  C   LIG d   1       0.303  87.131 116.547  0.00  0.00     0.028 C 
ATOM     12  C   LIG d   1       0.024  86.435 115.206  0.00  0.00     0.006 C 
ENDBRANCH   8  11
ENDBRANCH   7   8
ENDBRANCH   1   7
BRANCH   6  13
ATOM     13  N   LIG d   1      -0.698  91.317 118.403  0.00  0.00    -0.311 N 
ATOM     14  C   LIG d   1       0.535  91.303 117.899  0.00  0.00     0.210 C 
ATOM     15  C   LIG d   1       1.656  91.480 118.928  0.00  0.00     0.109 C 
ATOM     16  O   LIG d   1       0.805  91.193 116.694  0.00  0.00    -0.276 OA
ATOM     17  H   LIG d   1      -0.827  91.444 119.387  0.00  0.00     0.149 HD
ENDBRANCH   6  13
BRANCH   5  18
ATOM     18  N   LIG d   1      -2.817  93.471 117.948  0.00  0.00     0.381 N 
ATOM     19  H   LIG d   1      -2.133  93.741 118.626  0.00  0.00    -0.090 HD
ATOM     20  H   LIG d   1      -3.664  93.979 118.135  0.00  0.00    -0.090 HD
ATOM     21  H   LIG d   1      -2.489  93.682 117.031  0.00  0.00    -0.090 HD
ENDBRANCH   5  18
BRANCH   3  22
ATOM     22  C   LIG d   1      -5.951  89.977 116.993  0.00  0.00     0.382 C 
ATOM     23  O   LIG d   1      -6.861  90.659 117.522  0.00  0.00    -0.241 OA
ATOM     24  O   LIG d   1      -6.245  88.938 116.373  0.00  0.00    -0.241 OA
ENDBRANCH   3  22
TORSDOF 7
ENDMDL
MODEL 9
REMARK VINA RESULT:      -3.7      2.023      4.708
REMARK  7 active torsions:
REMARK  status: ('A' for Active; 'I' for Inactive)
REMARK    1  A    between atoms: C_2  and  C_3 
REMARK    2  A    between atoms: C_3  and  O_6 
REMARK    3  A    between atoms: C_3  and  C_4 
REMARK    4  A    between atoms: C_7  and  O_6 
REMARK    5  A    between atoms: C_9  and  C_10 
REMARK    6  A    between atoms: N_15  and  C_14 
REMARK    7  A    between atoms: N_20  and  C_19 
REMARK       I    between atoms: C_22  and  N_20 
ROOT
ATOM      1  C   LIG d   1       3.440  89.056 116.171  0.00  0.00     0.161 C 
ATOM      2  C   LIG d   1       2.852  90.152 116.824  0.00  0.00     0.016 C 
ATOM      3  C   LIG d   1       1.552  90.121 117.379  0.00  0.00     0.038 C 
ATOM      4  C   LIG d   1       0.804  88.936 117.451  0.00  0.00     0.028 C 
ATOM      5  C   LIG d   1       1.152  87.933 116.356  0.00  0.00    -0.047 C 
ATOM      6  C   LIG d   1       2.683  87.721 116.337  0.00  0.00     0.091 C 
ENDROOT
BRANCH   1   7
ATOM      7  O   LIG d   1       4.810  88.912 116.595  0.00  0.00    -0.368 OA
BRANCH   7   8
ATOM      8  C   LIG d   1       5.801  89.600 115.793  0.00  0.00     0.119 C 
BRANCH   8   9
ATOM      9  C   LIG d   1       6.302  88.609 114.725  0.00  0.00     0.028 C 
ATOM     10  C   LIG d   1       6.022  89.098 113.294  0.00  0.00     0.006 C 
ENDBRANCH   8   9
BRANCH   8  11
ATOM     11  C   LIG d   1       7.037  89.960 116.623  0.00  0.00     0.028 C 
ATOM     12  C   LIG d   1       6.689  90.743 117.899  0.00  0.00     0.006 C 
ENDBRANCH   8  11
ENDBRANCH   7   8
ENDBRANCH   1   7
BRANCH   6  13
ATOM     13  N   LIG d   1       3.117  86.818 115.240  0.00  0.00    -0.311 N 
ATOM     14  C   LIG d   1       2.971  87.110 113.949  0.00  0.00     0.210 C 
ATOM     15  C   LIG d   1       3.467  86.032 112.981  0.00  0.00     0.109 C 
ATOM     16  O   LIG d   1       2.506  88.174 113.513  0.00  0.00    -0.276 OA
ATOM     17  H   LIG d   1       3.533  85.946 115.504  0.00  0.00     0.149 HD
ENDBRANCH   6  13
BRANCH   5  18
ATOM     18  N   LIG d   1       0.401  86.694 116.632  0.00  0.00     0.381 N 
ATOM     19  H   LIG d   1       0.580  86.390 117.569  0.00  0.00    -0.090 HD
ATOM     20  H   LIG d   1       0.715  85.976 116.003  0.00  0.00    -0.090 HD
ATOM     21  H   LIG d   1      -0.575  86.852 116.507  0.00  0.00    -0.090 HD
ENDBRANCH   5  18
BRANCH   3  22
ATOM     22  C   LIG d   1       0.971  91.295 117.834  0.00  0.00     0.382 C 
ATOM     23  O   LIG d   1      -0.102  91.701 117.326  0.00  0.00    -0.241 OA
ATOM     24  O   LIG d   1       1.529  91.976 118.715  0.00  0.00    -0.241 OA
ENDBRANCH   3  22
TORSDOF 7
ENDMDL
