MODEL 1
REMARK VINA RESULT:      -4.8      0.000      0.000
REMARK  7 active torsions:
REMARK  status: ('A' for Active; 'I' for Inactive)
REMARK    1  A    between atoms: C_2  and  C_3 
REMARK    2  A    between atoms: C_3  and  O_6 
REMARK    3  A    between atoms: C_3  and  C_4 
REMARK    4  A    between atoms: C_7  and  O_6 
REMARK    5  A    between atoms: C_9  and  C_10 
REMARK    6  A    between atoms: N_15  and  C_14 
REMARK    7  A    between atoms: N_20  and  C_19 
REMARK       I    between atoms: C_22  and  N_20 
ROOT
ATOM      1  C   LIG d   1      -4.210  91.160 117.039  0.00  0.00     0.161 C 
ATOM      2  C   LIG d   1      -3.023  90.431 117.221  0.00  0.00     0.016 C 
ATOM      3  C   LIG d   1      -1.869  90.964 117.839  0.00  0.00     0.038 C 
ATOM      4  C   LIG d   1      -1.874  92.224 118.458  0.00  0.00     0.028 C 
ATOM      5  C   LIG d   1      -2.890  93.189 117.857  0.00  0.00    -0.047 C 
ATOM      6  C   LIG d   1      -4.272  92.497 117.806  0.00  0.00     0.091 C 
ENDROOT
BRANCH   1   7
ATOM      7  O   LIG d   1      -5.345  90.337 117.374  0.00  0.00    -0.368 OA
BRANCH   7   8
ATOM      8  C   LIG d   1      -6.137  89.859 116.259  0.00  0.00     0.119 C 
BRANCH   8   9
ATOM      9  C   LIG d   1      -5.650  90.594 114.996  0.00  0.00     0.028 C 
ATOM     10  C   LIG d   1      -6.733  91.502 114.390  0.00  0.00     0.006 C 
ENDBRANCH   8   9
BRANCH   8  11
ATOM     11  C   LIG d   1      -7.610  90.251 116.414  0.00  0.00     0.028 C 
ATOM     12  C   LIG d   1      -8.532  89.038 116.612  0.00  0.00     0.006 C 
ENDBRANCH   8  11
ENDBRANCH   7   8
ENDBRANCH   1   7
BRANCH   6  13
ATOM     13  N   LIG d   1      -5.306  93.342 117.154  0.00  0.00    -0.311 N 
ATOM     14  C   LIG d   1      -6.516  93.548 117.671  0.00  0.00     0.210 C 
ATOM     15  C   LIG d   1      -7.436  94.436 116.827  0.00  0.00     0.109 C 
ATOM     16  O   LIG d   1      -6.904  93.107 118.763  0.00  0.00    -0.276 OA
ATOM     17  H   LIG d   1      -5.064  93.765 116.279  0.00  0.00     0.149 HD
ENDBRANCH   6  13
BRANCH   5  18
ATOM     18  N   LIG d   1      -2.886  94.411 118.683  0.00  0.00     0.381 N 
ATOM     19  H   LIG d   1      -3.719  94.939 118.511  0.00  0.00    -0.090 HD
ATOM     20  H   LIG d   1      -2.096  94.976 118.424  0.00  0.00    -0.090 HD
ATOM     21  H   LIG d   1      -2.830  94.171 119.648  0.00  0.00    -0.090 HD
ENDBRANCH   5  18
BRANCH   3  22
ATOM     22  C   LIG d   1      -0.680  90.251 117.808  0.00  0.00     0.382 C 
ATOM     23  O   LIG d   1       0.168  90.485 116.913  0.00  0.00    -0.241 OA
ATOM     24  O   LIG d   1      -0.464  89.346 118.636  0.00  0.00    -0.241 OA
ENDBRANCH   3  22
TORSDOF 7
ENDMDL
MODEL 2
REMARK VINA RESULT:      -4.7      2.562      5.794
REMARK  7 active torsions:
REMARK  status: ('A' for Active; 'I' for Inactive)
REMARK    1  A    between atoms: C_2  and  C_3 
REMARK    2  A    between atoms: C_3  and  O_6 
REMARK    3  A    between atoms: C_3  and  C_4 
REMARK    4  A    between atoms: C_7  and  O_6 
REMARK    5  A    between atoms: C_9  and  C_10 
REMARK    6  A    between atoms: N_15  and  C_14 
REMARK    7  A    between atoms: N_20  and  C_19 
REMARK       I    between atoms: C_22  and  N_20 
ROOT
ATOM      1  C   LIG d   1      -5.378  93.105 117.819  0.00  0.00     0.161 C 
ATOM      2  C   LIG d   1      -5.736  94.305 118.455  0.00  0.00     0.016 C 
ATOM      3  C   LIG d   1      -6.830  95.104 118.051  0.00  0.00     0.038 C 
ATOM      4  C   LIG d   1      -7.738  94.677 117.071  0.00  0.00     0.028 C 
ATOM      5  C   LIG d   1      -7.127  93.714 116.059  0.00  0.00    -0.047 C 
ATOM      6  C   LIG d   1      -6.423  92.567 116.819  0.00  0.00     0.091 C 
ENDROOT
BRANCH   1   7
ATOM      7  O   LIG d   1      -5.066  92.102 118.806  0.00  0.00    -0.368 OA
BRANCH   7   8
ATOM      8  C   LIG d   1      -3.669  91.739 118.927  0.00  0.00     0.119 C 
BRANCH   8   9
ATOM      9  C   LIG d   1      -2.942  92.276 117.679  0.00  0.00     0.028 C 
ATOM     10  C   LIG d   1      -1.861  93.312 118.029  0.00  0.00     0.006 C 
ENDBRANCH   8   9
BRANCH   8  11
ATOM     11  C   LIG d   1      -3.482  90.220 118.883  0.00  0.00     0.028 C 
ATOM     12  C   LIG d   1      -2.612  89.760 117.702  0.00  0.00     0.006 C 
ENDBRANCH   8  11
ENDBRANCH   7   8
ENDBRANCH   1   7
BRANCH   6  13
ATOM     13  N   LIG d   1      -5.727  91.624 115.904  0.00  0.00    -0.311 N 
ATOM     14  C   LIG d   1      -5.937  90.309 115.908  0.00  0.00     0.210 C 
ATOM     15  C   LIG d   1      -5.101  89.518 114.898  0.00  0.00     0.109 C 
ATOM     16  O   LIG d   1      -6.760  89.727 116.630  0.00  0.00    -0.276 OA
ATOM     17  H   LIG d   1      -5.064  92.016 115.264  0.00  0.00     0.149 HD
ENDBRANCH   6  13
BRANCH   5  18
ATOM     18  N   LIG d   1      -8.215  93.242 115.180  0.00  0.00     0.381 N 
ATOM     19  H   LIG d   1      -8.279  92.245 115.226  0.00  0.00    -0.090 HD
ATOM     20  H   LIG d   1      -8.003  93.502 114.233  0.00  0.00    -0.090 HD
ATOM     21  H   LIG d   1      -9.080  93.651 115.459  0.00  0.00    -0.090 HD
ENDBRANCH   5  18
BRANCH   3  22
ATOM     22  C   LIG d   1      -7.001  96.365 118.603  0.00  0.00     0.382 C 
ATOM     23  O   LIG d   1      -8.155  96.840 118.735  0.00  0.00    -0.241 OA
ATOM     24  O   LIG d   1      -6.014  97.050 118.930  0.00  0.00    -0.241 OA
ENDBRANCH   3  22
TORSDOF 7
ENDMDL
MODEL 3
REMARK VINA RESULT:      -4.6      1.725      4.935
REMARK  7 active torsions:
REMARK  status: ('A' for Active; 'I' for Inactive)
REMARK    1  A    between atoms: C_2  and  C_3 
REMARK    2  A    between atoms: C_3  and  O_6 
REMARK    3  A    between atoms: C_3  and  C_4 
REMARK    4  A    between atoms: C_7  and  O_6 
REMARK    5  A    between atoms: C_9  and  C_10 
REMARK    6  A    between atoms: N_15  and  C_14 
REMARK    7  A    between atoms: N_20  and  C_19 
REMARK       I    between atoms: C_22  and  N_20 
ROOT
ATOM      1  C   LIG d   1      -5.768  91.042 118.123  0.00  0.00     0.161 C 
ATOM      2  C   LIG d   1      -6.513  92.231 118.067  0.00  0.00     0.016 C 
ATOM      3  C   LIG d   1      -5.945  93.515 118.238  0.00  0.00     0.038 C 
ATOM      4  C   LIG d   1      -4.558  93.705 118.327  0.00  0.00     0.028 C 
ATOM      5  C   LIG d   1      -3.816  92.500 118.893  0.00  0.00    -0.047 C 
ATOM      6  C   LIG d   1      -4.238  91.237 118.108  0.00  0.00     0.091 C 
ENDROOT
BRANCH   1   7
ATOM      7  O   LIG d   1      -6.172  90.162 117.056  0.00  0.00    -0.368 OA
BRANCH   7   8
ATOM      8  C   LIG d   1      -7.150  90.692 116.128  0.00  0.00     0.119 C 
BRANCH   8   9
ATOM      9  C   LIG d   1      -8.105  89.542 115.754  0.00  0.00     0.028 C 
ATOM     10  C   LIG d   1      -8.838  88.968 116.978  0.00  0.00     0.006 C 
ENDBRANCH   8   9
BRANCH   8  11
ATOM     11  C   LIG d   1      -6.494  91.118 114.811  0.00  0.00     0.028 C 
ATOM     12  C   LIG d   1      -6.647  92.621 114.528  0.00  0.00     0.006 C 
ENDBRANCH   8  11
ENDBRANCH   7   8
ENDBRANCH   1   7
BRANCH   6  13
ATOM     13  N   LIG d   1      -3.621  89.999 118.653  0.00  0.00    -0.311 N 
ATOM     14  C   LIG d   1      -2.440  89.531 118.254  0.00  0.00     0.210 C 
ATOM     15  C   LIG d   1      -1.998  88.229 118.930  0.00  0.00     0.109 C 
ATOM     16  O   LIG d   1      -1.701  90.088 117.428  0.00  0.00    -0.276 OA
ATOM     17  H   LIG d   1      -4.139  89.501 119.351  0.00  0.00     0.149 HD
ENDBRANCH   6  13
BRANCH   5  18
ATOM     18  N   LIG d   1      -2.371  92.782 118.801  0.00  0.00     0.381 N 
ATOM     19  H   LIG d   1      -1.870  92.196 119.438  0.00  0.00    -0.090 HD
ATOM     20  H   LIG d   1      -2.210  93.740 119.060  0.00  0.00    -0.090 HD
ATOM     21  H   LIG d   1      -2.051  92.624 117.871  0.00  0.00    -0.090 HD
ENDBRANCH   5  18
BRANCH   3  22
ATOM     22  C   LIG d   1      -6.771  94.621 118.361  0.00  0.00     0.382 C 
ATOM     23  O   LIG d   1      -7.935  94.591 117.892  0.00  0.00    -0.241 OA
ATOM     24  O   LIG d   1      -6.353  95.666 118.896  0.00  0.00    -0.241 OA
ENDBRANCH   3  22
TORSDOF 7
ENDMDL
MODEL 4
REMARK VINA RESULT:      -4.5      2.386      4.713
REMARK  7 active torsions:
REMARK  status: ('A' for Active; 'I' for Inactive)
REMARK    1  A    between atoms: C_2  and  C_3 
REMARK    2  A    between atoms: C_3  and  O_6 
REMARK    3  A    between atoms: C_3  and  C_4 
REMARK    4  A    between atoms: C_7  and  O_6 
REMARK    5  A    between atoms: C_9  and  C_10 
REMARK    6  A    between atoms: N_15  and  C_14 
REMARK    7  A    between atoms: N_20  and  C_19 
REMARK       I    between atoms: C_22  and  N_20 
ROOT
ATOM      1  C   LIG d   1      -5.638  92.021 117.930  0.00  0.00     0.161 C 
ATOM      2  C   LIG d   1      -5.118  90.938 117.203  0.00  0.00     0.016 C 
ATOM      3  C   LIG d   1      -5.470  90.660 115.862  0.00  0.00     0.038 C 
ATOM      4  C   LIG d   1      -6.256  91.540 115.104  0.00  0.00     0.028 C 
ATOM      5  C   LIG d   1      -7.210  92.380 115.947  0.00  0.00    -0.047 C 
ATOM      6  C   LIG d   1      -6.411  93.056 117.085  0.00  0.00     0.091 C 
ENDROOT
BRANCH   1   7
ATOM      7  O   LIG d   1      -4.582  92.667 118.668  0.00  0.00    -0.368 OA
BRANCH   7   8
ATOM      8  C   LIG d   1      -3.276  92.671 118.040  0.00  0.00     0.119 C 
BRANCH   8   9
ATOM      9  C   LIG d   1      -2.332  91.840 118.930  0.00  0.00     0.028 C 
ATOM     10  C   LIG d   1      -1.485  90.844 118.118  0.00  0.00     0.006 C 
ENDBRANCH   8   9
BRANCH   8  11
ATOM     11  C   LIG d   1      -2.674  94.079 118.015  0.00  0.00     0.028 C 
ATOM     12  C   LIG d   1      -3.625  95.144 118.584  0.00  0.00     0.006 C 
ENDBRANCH   8  11
ENDBRANCH   7   8
ENDBRANCH   1   7
BRANCH   6  13
ATOM     13  N   LIG d   1      -7.283  93.829 118.007  0.00  0.00    -0.311 N 
ATOM     14  C   LIG d   1      -7.542  95.126 117.855  0.00  0.00     0.210 C 
ATOM     15  C   LIG d   1      -8.449  95.735 118.930  0.00  0.00     0.109 C 
ATOM     16  O   LIG d   1      -7.134  95.824 116.914  0.00  0.00    -0.276 OA
ATOM     17  H   LIG d   1      -7.681  93.334 118.781  0.00  0.00     0.149 HD
ENDBRANCH   6  13
BRANCH   5  18
ATOM     18  N   LIG d   1      -7.866  93.347 115.048  0.00  0.00     0.381 N 
ATOM     19  H   LIG d   1      -7.231  93.624 114.326  0.00  0.00    -0.090 HD
ATOM     20  H   LIG d   1      -8.118  94.163 115.577  0.00  0.00    -0.090 HD
ATOM     21  H   LIG d   1      -8.681  92.939 114.644  0.00  0.00    -0.090 HD
ENDBRANCH   5  18
BRANCH   3  22
ATOM     22  C   LIG d   1      -5.066  89.468 115.278  0.00  0.00     0.382 C 
ATOM     23  O   LIG d   1      -5.490  89.152 114.141  0.00  0.00    -0.241 OA
ATOM     24  O   LIG d   1      -4.318  88.685 115.894  0.00  0.00    -0.241 OA
ENDBRANCH   3  22
TORSDOF 7
ENDMDL
MODEL 5
REMARK VINA RESULT:      -4.4      6.577      9.015
REMARK  7 active torsions:
REMARK  status: ('A' for Active; 'I' for Inactive)
REMARK    1  A    between atoms: C_2  and  C_3 
REMARK    2  A    between atoms: C_3  and  O_6 
REMARK    3  A    between atoms: C_3  and  C_4 
REMARK    4  A    between atoms: C_7  and  O_6 
REMARK    5  A    between atoms: C_9  and  C_10 
REMARK    6  A    between atoms: N_15  and  C_14 
REMARK    7  A    between atoms: N_20  and  C_19 
REMARK       I    between atoms: C_22  and  N_20 
ROOT
ATOM      1  C   LIG d   1       2.664  88.505 115.707  0.00  0.00     0.161 C 
ATOM      2  C   LIG d   1       3.138  89.492 116.587  0.00  0.00     0.016 C 
ATOM      3  C   LIG d   1       4.222  90.348 116.284  0.00  0.00     0.038 C 
ATOM      4  C   LIG d   1       4.812  90.376 115.012  0.00  0.00     0.028 C 
ATOM      5  C   LIG d   1       4.699  89.052 114.263  0.00  0.00    -0.047 C 
ATOM      6  C   LIG d   1       3.223  88.595 114.272  0.00  0.00     0.091 C 
ENDROOT
BRANCH   1   7
ATOM      7  O   LIG d   1       1.223  88.521 115.685  0.00  0.00    -0.368 OA
BRANCH   7   8
ATOM      8  C   LIG d   1       0.564  87.340 116.205  0.00  0.00     0.119 C 
BRANCH   8   9
ATOM      9  C   LIG d   1      -0.285  87.778 117.415  0.00  0.00     0.028 C 
ATOM     10  C   LIG d   1      -0.389  89.307 117.535  0.00  0.00     0.006 C 
ENDBRANCH   8   9
BRANCH   8  11
ATOM     11  C   LIG d   1       1.577  86.337 116.762  0.00  0.00     0.028 C 
ATOM     12  C   LIG d   1       1.307  85.970 118.230  0.00  0.00     0.006 C 
ENDBRANCH   8  11
ENDBRANCH   7   8
ENDBRANCH   1   7
BRANCH   6  13
ATOM     13  N   LIG d   1       3.037  87.266 113.632  0.00  0.00    -0.311 N 
ATOM     14  C   LIG d   1       2.637  87.108 112.372  0.00  0.00     0.210 C 
ATOM     15  C   LIG d   1       2.490  85.653 111.917  0.00  0.00     0.109 C 
ATOM     16  O   LIG d   1       2.419  88.036 111.578  0.00  0.00    -0.276 OA
ATOM     17  H   LIG d   1       3.222  86.459 114.196  0.00  0.00     0.149 HD
ENDBRANCH   6  13
BRANCH   5  18
ATOM     18  N   LIG d   1       5.231  89.263 112.903  0.00  0.00     0.381 N 
ATOM     19  H   LIG d   1       5.305  90.243 112.716  0.00  0.00    -0.090 HD
ATOM     20  H   LIG d   1       4.593  88.862 112.239  0.00  0.00    -0.090 HD
ATOM     21  H   LIG d   1       6.126  88.833 112.817  0.00  0.00    -0.090 HD
ENDBRANCH   5  18
BRANCH   3  22
ATOM     22  C   LIG d   1       4.752  91.161 117.274  0.00  0.00     0.382 C 
ATOM     23  O   LIG d   1       4.867  92.395 117.077  0.00  0.00    -0.241 OA
ATOM     24  O   LIG d   1       5.158  90.671 118.344  0.00  0.00    -0.241 OA
ENDBRANCH   3  22
TORSDOF 7
ENDMDL
MODEL 6
REMARK VINA RESULT:      -4.3      7.005      9.510
REMARK  7 active torsions:
REMARK  status: ('A' for Active; 'I' for Inactive)
REMARK    1  A    between atoms: C_2  and  C_3 
REMARK    2  A    between atoms: C_3  and  O_6 
REMARK    3  A    between atoms: C_3  and  C_4 
REMARK    4  A    between atoms: C_7  and  O_6 
REMARK    5  A    between atoms: C_9  and  C_10 
REMARK    6  A    between atoms: N_15  and  C_14 
REMARK    7  A    between atoms: N_20  and  C_19 
REMARK       I    between atoms: C_22  and  N_20 
ROOT
ATOM      1  C   LIG d   1       2.696  87.466 115.324  0.00  0.00     0.161 C 
ATOM      2  C   LIG d   1       3.891  87.906 115.919  0.00  0.00     0.016 C 
ATOM      3  C   LIG d   1       5.123  87.974 115.230  0.00  0.00     0.038 C 
ATOM      4  C   LIG d   1       5.214  87.750 113.848  0.00  0.00     0.028 C 
ATOM      5  C   LIG d   1       4.133  86.815 113.314  0.00  0.00    -0.047 C 
ATOM      6  C   LIG d   1       2.753  87.322 113.789  0.00  0.00     0.091 C 
ENDROOT
BRANCH   1   7
ATOM      7  O   LIG d   1       1.611  88.334 115.707  0.00  0.00    -0.368 OA
BRANCH   7   8
ATOM      8  C   LIG d   1       1.801  89.091 116.927  0.00  0.00     0.119 C 
BRANCH   8   9
ATOM      9  C   LIG d   1       0.634  88.745 117.873  0.00  0.00     0.028 C 
ATOM     10  C   LIG d   1      -0.370  87.772 117.233  0.00  0.00     0.006 C 
ENDBRANCH   8   9
BRANCH   8  11
ATOM     11  C   LIG d   1       1.684  90.597 116.673  0.00  0.00     0.028 C 
ATOM     12  C   LIG d   1       3.006  91.345 116.906  0.00  0.00     0.006 C 
ENDBRANCH   8  11
ENDBRANCH   7   8
ENDBRANCH   1   7
BRANCH   6  13
ATOM     13  N   LIG d   1       1.646  86.418 113.381  0.00  0.00    -0.311 N 
ATOM     14  C   LIG d   1       0.932  86.589 112.269  0.00  0.00     0.210 C 
ATOM     15  C   LIG d   1      -0.176  85.554 112.047  0.00  0.00     0.109 C 
ATOM     16  O   LIG d   1       1.131  87.480 111.430  0.00  0.00    -0.276 OA
ATOM     17  H   LIG d   1       1.436  85.651 113.988  0.00  0.00     0.149 HD
ENDBRANCH   6  13
BRANCH   5  18
ATOM     18  N   LIG d   1       4.262  86.779 111.845  0.00  0.00     0.381 N 
ATOM     19  H   LIG d   1       3.527  86.224 111.454  0.00  0.00    -0.090 HD
ATOM     20  H   LIG d   1       5.140  86.352 111.606  0.00  0.00    -0.090 HD
ATOM     21  H   LIG d   1       4.223  87.703 111.476  0.00  0.00    -0.090 HD
ENDBRANCH   5  18
BRANCH   3  22
ATOM     22  C   LIG d   1       6.290  88.233 115.933  0.00  0.00     0.382 C 
ATOM     23  O   LIG d   1       7.252  87.429 115.869  0.00  0.00    -0.241 OA
ATOM     24  O   LIG d   1       6.377  89.236 116.666  0.00  0.00    -0.241 OA
ENDBRANCH   3  22
TORSDOF 7
ENDMDL
MODEL 7
REMARK VINA RESULT:      -4.1      6.523      9.148
REMARK  7 active torsions:
REMARK  status: ('A' for Active; 'I' for Inactive)
REMARK    1  A    between atoms: C_2  and  C_3 
REMARK    2  A    between atoms: C_3  and  O_6 
REMARK    3  A    between atoms: C_3  and  C_4 
REMARK    4  A    between atoms: C_7  and  O_6 
REMARK    5  A    between atoms: C_9  and  C_10 
REMARK    6  A    between atoms: N_15  and  C_14 
REMARK    7  A    between atoms: N_20  and  C_19 
REMARK       I    between atoms: C_22  and  N_20 
ROOT
ATOM      1  C   LIG d   1       3.288  89.679 116.081  0.00  0.00     0.161 C 
ATOM      2  C   LIG d   1       3.774  90.854 116.678  0.00  0.00     0.016 C 
ATOM      3  C   LIG d   1       2.952  91.773 117.370  0.00  0.00     0.038 C 
ATOM      4  C   LIG d   1       1.603  91.501 117.644  0.00  0.00     0.028 C 
ATOM      5  C   LIG d   1       0.955  90.567 116.628  0.00  0.00    -0.047 C 
ATOM      6  C   LIG d   1       1.840  89.310 116.466  0.00  0.00     0.091 C 
ENDROOT
BRANCH   1   7
ATOM      7  O   LIG d   1       4.178  88.582 116.368  0.00  0.00    -0.368 OA
BRANCH   7   8
ATOM      8  C   LIG d   1       4.713  87.879 115.220  0.00  0.00     0.119 C 
BRANCH   8   9
ATOM      9  C   LIG d   1       6.221  87.675 115.464  0.00  0.00     0.028 C 
ATOM     10  C   LIG d   1       6.737  88.489 116.662  0.00  0.00     0.006 C 
ENDBRANCH   8   9
BRANCH   8  11
ATOM     11  C   LIG d   1       4.619  88.731 113.951  0.00  0.00     0.028 C 
ATOM     12  C   LIG d   1       5.363  88.109 112.758  0.00  0.00     0.006 C 
ENDBRANCH   8  11
ENDBRANCH   7   8
ENDBRANCH   1   7
BRANCH   6  13
ATOM     13  N   LIG d   1       1.322  88.382 115.427  0.00  0.00    -0.311 N 
ATOM     14  C   LIG d   1       1.035  87.103 115.663  0.00  0.00     0.210 C 
ATOM     15  C   LIG d   1       0.532  86.317 114.448  0.00  0.00     0.109 C 
ATOM     16  O   LIG d   1       1.120  86.552 116.772  0.00  0.00    -0.276 OA
ATOM     17  H   LIG d   1       1.193  88.753 114.506  0.00  0.00     0.149 HD
ENDBRANCH   6  13
BRANCH   5  18
ATOM     18  N   LIG d   1      -0.405  90.259 117.109  0.00  0.00     0.381 N 
ATOM     19  H   LIG d   1      -0.483  90.497 118.078  0.00  0.00    -0.090 HD
ATOM     20  H   LIG d   1      -0.567  89.272 117.013  0.00  0.00    -0.090 HD
ATOM     21  H   LIG d   1      -1.078  90.767 116.579  0.00  0.00    -0.090 HD
ENDBRANCH   5  18
BRANCH   3  22
ATOM     22  C   LIG d   1       3.469  92.999 117.761  0.00  0.00     0.382 C 
ATOM     23  O   LIG d   1       4.379  93.539 117.087  0.00  0.00    -0.241 OA
ATOM     24  O   LIG d   1       3.068  93.550 118.803  0.00  0.00    -0.241 OA
ENDBRANCH   3  22
TORSDOF 7
ENDMDL
MODEL 8
REMARK VINA RESULT:      -4.1      2.223      4.825
REMARK  7 active torsions:
REMARK  status: ('A' for Active; 'I' for Inactive)
REMARK    1  A    between atoms: C_2  and  C_3 
REMARK    2  A    between atoms: C_3  and  O_6 
REMARK    3  A    between atoms: C_3  and  C_4 
REMARK    4  A    between atoms: C_7  and  O_6 
REMARK    5  A    between atoms: C_9  and  C_10 
REMARK    6  A    between atoms: N_15  and  C_14 
REMARK    7  A    between atoms: N_20  and  C_19 
REMARK       I    between atoms: C_22  and  N_20 
ROOT
ATOM      1  C   LIG d   1      -4.742  91.493 117.067  0.00  0.00     0.161 C 
ATOM      2  C   LIG d   1      -4.324  90.411 116.274  0.00  0.00     0.016 C 
ATOM      3  C   LIG d   1      -5.082  89.896 115.198  0.00  0.00     0.038 C 
ATOM      4  C   LIG d   1      -6.248  90.530 114.742  0.00  0.00     0.028 C 
ATOM      5  C   LIG d   1      -6.969  91.324 115.827  0.00  0.00    -0.047 C 
ATOM      6  C   LIG d   1      -5.957  92.268 116.515  0.00  0.00     0.091 C 
ENDROOT
BRANCH   1   7
ATOM      7  O   LIG d   1      -3.636  92.391 117.290  0.00  0.00    -0.368 OA
BRANCH   7   8
ATOM      8  C   LIG d   1      -2.900  92.200 118.524  0.00  0.00     0.119 C 
BRANCH   8   9
ATOM      9  C   LIG d   1      -2.316  93.567 118.930  0.00  0.00     0.028 C 
ATOM     10  C   LIG d   1      -3.231  94.738 118.533  0.00  0.00     0.006 C 
ENDBRANCH   8   9
BRANCH   8  11
ATOM     11  C   LIG d   1      -1.688  91.287 118.315  0.00  0.00     0.028 C 
ATOM     12  C   LIG d   1      -0.608  91.925 117.428  0.00  0.00     0.006 C 
ENDBRANCH   8  11
ENDBRANCH   7   8
ENDBRANCH   1   7
BRANCH   6  13
ATOM     13  N   LIG d   1      -6.562  93.020 117.645  0.00  0.00    -0.311 N 
ATOM     14  C   LIG d   1      -7.174  94.194 117.500  0.00  0.00     0.210 C 
ATOM     15  C   LIG d   1      -7.709  94.808 118.797  0.00  0.00     0.109 C 
ATOM     16  O   LIG d   1      -7.354  94.769 116.416  0.00  0.00    -0.276 OA
ATOM     17  H   LIG d   1      -6.489  92.611 118.556  0.00  0.00     0.149 HD
ENDBRANCH   6  13
BRANCH   5  18
ATOM     18  N   LIG d   1      -8.086  92.042 115.185  0.00  0.00     0.381 N 
ATOM     19  H   LIG d   1      -8.434  92.749 115.802  0.00  0.00    -0.090 HD
ATOM     20  H   LIG d   1      -8.829  91.391 115.000  0.00  0.00    -0.090 HD
ATOM     21  H   LIG d   1      -7.779  92.458 114.333  0.00  0.00    -0.090 HD
ENDBRANCH   5  18
BRANCH   3  22
ATOM     22  C   LIG d   1      -4.697  88.711 114.590  0.00  0.00     0.382 C 
ATOM     23  O   LIG d   1      -3.926  87.922 115.188  0.00  0.00    -0.241 OA
ATOM     24  O   LIG d   1      -5.074  88.442 113.434  0.00  0.00    -0.241 OA
ENDBRANCH   3  22
TORSDOF 7
ENDMDL
MODEL 9
REMARK VINA RESULT:      -4.0      5.428      8.479
REMARK  7 active torsions:
REMARK  status: ('A' for Active; 'I' for Inactive)
REMARK    1  A    between atoms: C_2  and  C_3 
REMARK    2  A    between atoms: C_3  and  O_6 
REMARK    3  A    between atoms: C_3  and  C_4 
REMARK    4  A    between atoms: C_7  and  O_6 
REMARK    5  A    between atoms: C_9  and  C_10 
REMARK    6  A    between atoms: N_15  and  C_14 
REMARK    7  A    between atoms: N_20  and  C_19 
REMARK       I    between atoms: C_22  and  N_20 
ROOT
ATOM      1  C   LIG d   1       2.652  89.712 116.880  0.00  0.00     0.161 C 
ATOM      2  C   LIG d   1       3.193  90.953 117.256  0.00  0.00     0.016 C 
ATOM      3  C   LIG d   1       4.482  91.388 116.874  0.00  0.00     0.038 C 
ATOM      4  C   LIG d   1       5.265  90.671 115.956  0.00  0.00     0.028 C 
ATOM      5  C   LIG d   1       4.969  89.175 115.947  0.00  0.00    -0.047 C 
ATOM      6  C   LIG d   1       3.446  88.965 115.788  0.00  0.00     0.091 C 
ENDROOT
BRANCH   1   7
ATOM      7  O   LIG d   1       1.279  89.881 116.473  0.00  0.00    -0.368 OA
BRANCH   7   8
ATOM      8  C   LIG d   1       0.279  89.658 117.498  0.00  0.00     0.119 C 
BRANCH   8   9
ATOM      9  C   LIG d   1      -0.377  88.293 117.214  0.00  0.00     0.028 C 
ATOM     10  C   LIG d   1       0.170  87.178 118.122  0.00  0.00     0.006 C 
ENDBRANCH   8   9
BRANCH   8  11
ATOM     11  C   LIG d   1      -0.856  90.681 117.401  0.00  0.00     0.028 C 
ATOM     12  C   LIG d   1      -2.215  90.106 117.828  0.00  0.00     0.006 C 
ENDBRANCH   8  11
ENDBRANCH   7   8
ENDBRANCH   1   7
BRANCH   6  13
ATOM     13  N   LIG d   1       3.061  87.531 115.854  0.00  0.00    -0.311 N 
ATOM     14  C   LIG d   1       2.404  86.903 114.880  0.00  0.00     0.210 C 
ATOM     15  C   LIG d   1       2.089  85.430 115.159  0.00  0.00     0.109 C 
ATOM     16  O   LIG d   1       2.081  87.417 113.799  0.00  0.00    -0.276 OA
ATOM     17  H   LIG d   1       3.312  87.029 116.683  0.00  0.00     0.149 HD
ENDBRANCH   6  13
BRANCH   5  18
ATOM     18  N   LIG d   1       5.754  88.572 114.853  0.00  0.00     0.381 N 
ATOM     19  H   LIG d   1       5.196  88.523 114.024  0.00  0.00    -0.090 HD
ATOM     20  H   LIG d   1       6.012  87.637 115.115  0.00  0.00    -0.090 HD
ATOM     21  H   LIG d   1       6.571  89.115 114.681  0.00  0.00    -0.090 HD
ENDBRANCH   5  18
BRANCH   3  22
ATOM     22  C   LIG d   1       5.018  92.534 117.442  0.00  0.00     0.382 C 
ATOM     23  O   LIG d   1       5.936  92.441 118.293  0.00  0.00    -0.241 OA
ATOM     24  O   LIG d   1       4.565  93.656 117.148  0.00  0.00    -0.241 OA
ENDBRANCH   3  22
TORSDOF 7
ENDMDL
