MODEL 1
REMARK VINA RESULT:      -5.1      0.000      0.000
REMARK  7 active torsions:
REMARK  status: ('A' for Active; 'I' for Inactive)
REMARK    1  A    between atoms: C_2  and  C_3 
REMARK    2  A    between atoms: C_3  and  O_6 
REMARK    3  A    between atoms: C_3  and  C_4 
REMARK    4  A    between atoms: C_7  and  O_6 
REMARK    5  A    between atoms: C_9  and  C_10 
REMARK    6  A    between atoms: N_15  and  C_14 
REMARK    7  A    between atoms: N_20  and  C_19 
REMARK       I    between atoms: C_22  and  N_20 
ROOT
ATOM      1  C   LIG d   1       4.662  89.669 116.281  0.00  0.00     0.161 C 
ATOM      2  C   LIG d   1       3.503  90.104 115.617  0.00  0.00     0.016 C 
ATOM      3  C   LIG d   1       3.356  90.080 114.211  0.00  0.00     0.038 C 
ATOM      4  C   LIG d   1       4.307  89.476 113.376  0.00  0.00     0.028 C 
ATOM      5  C   LIG d   1       5.716  89.480 113.960  0.00  0.00    -0.047 C 
ATOM      6  C   LIG d   1       5.666  88.903 115.394  0.00  0.00     0.091 C 
ENDROOT
BRANCH   1   7
ATOM      7  O   LIG d   1       4.300  88.875 117.428  0.00  0.00    -0.368 OA
BRANCH   7   8
ATOM      8  C   LIG d   1       4.354  89.546 118.711  0.00  0.00     0.119 C 
BRANCH   8   9
ATOM      9  C   LIG d   1       3.329  90.696 118.675  0.00  0.00     0.028 C 
ATOM     10  C   LIG d   1       1.890  90.207 118.913  0.00  0.00     0.006 C 
ENDBRANCH   8   9
BRANCH   8  11
ATOM     11  C   LIG d   1       5.712  90.220 118.930  0.00  0.00     0.028 C 
ATOM     12  C   LIG d   1       5.649  91.749 118.779  0.00  0.00     0.006 C 
ENDBRANCH   8  11
ENDBRANCH   7   8
ENDBRANCH   1   7
BRANCH   6  13
ATOM     13  N   LIG d   1       6.989  88.950 116.069  0.00  0.00    -0.311 N 
ATOM     14  C   LIG d   1       7.513  87.916 116.726  0.00  0.00     0.210 C 
ATOM     15  C   LIG d   1       8.879  88.183 117.367  0.00  0.00     0.109 C 
ATOM     16  O   LIG d   1       6.992  86.794 116.812  0.00  0.00    -0.276 OA
ATOM     17  H   LIG d   1       7.495  89.812 116.023  0.00  0.00     0.149 HD
ENDBRANCH   6  13
BRANCH   5  18
ATOM     18  N   LIG d   1       6.577  88.700 113.052  0.00  0.00     0.381 N 
ATOM     19  H   LIG d   1       6.585  87.740 113.334  0.00  0.00    -0.090 HD
ATOM     20  H   LIG d   1       7.516  89.053 113.111  0.00  0.00    -0.090 HD
ATOM     21  H   LIG d   1       6.244  88.776 112.117  0.00  0.00    -0.090 HD
ENDBRANCH   5  18
BRANCH   3  22
ATOM     22  C   LIG d   1       2.264  90.702 113.624  0.00  0.00     0.382 C 
ATOM     23  O   LIG d   1       1.148  90.683 114.197  0.00  0.00    -0.241 OA
ATOM     24  O   LIG d   1       2.371  91.244 112.508  0.00  0.00    -0.241 OA
ENDBRANCH   3  22
TORSDOF 7
ENDMDL
MODEL 2
REMARK VINA RESULT:      -5.0      2.249      4.305
REMARK  7 active torsions:
REMARK  status: ('A' for Active; 'I' for Inactive)
REMARK    1  A    between atoms: C_2  and  C_3 
REMARK    2  A    between atoms: C_3  and  O_6 
REMARK    3  A    between atoms: C_3  and  C_4 
REMARK    4  A    between atoms: C_7  and  O_6 
REMARK    5  A    between atoms: C_9  and  C_10 
REMARK    6  A    between atoms: N_15  and  C_14 
REMARK    7  A    between atoms: N_20  and  C_19 
REMARK       I    between atoms: C_22  and  N_20 
ROOT
ATOM      1  C   LIG d   1       3.809  87.349 115.485  0.00  0.00     0.161 C 
ATOM      2  C   LIG d   1       2.827  88.238 115.016  0.00  0.00     0.016 C 
ATOM      3  C   LIG d   1       2.655  89.546 115.525  0.00  0.00     0.038 C 
ATOM      4  C   LIG d   1       3.558  90.111 116.439  0.00  0.00     0.028 C 
ATOM      5  C   LIG d   1       4.262  89.077 117.311  0.00  0.00    -0.047 C 
ATOM      6  C   LIG d   1       4.873  87.986 116.403  0.00  0.00     0.091 C 
ENDROOT
BRANCH   1   7
ATOM      7  O   LIG d   1       4.440  86.687 114.371  0.00  0.00    -0.368 OA
BRANCH   7   8
ATOM      8  C   LIG d   1       4.449  87.416 113.118  0.00  0.00     0.119 C 
BRANCH   8   9
ATOM      9  C   LIG d   1       4.346  86.381 111.980  0.00  0.00     0.028 C 
ATOM     10  C   LIG d   1       2.916  86.254 111.430  0.00  0.00     0.006 C 
ENDBRANCH   8   9
BRANCH   8  11
ATOM     11  C   LIG d   1       5.786  88.129 112.898  0.00  0.00     0.028 C 
ATOM     12  C   LIG d   1       5.747  89.609 113.312  0.00  0.00     0.006 C 
ENDBRANCH   8  11
ENDBRANCH   7   8
ENDBRANCH   1   7
BRANCH   6  13
ATOM     13  N   LIG d   1       5.509  86.891 117.181  0.00  0.00    -0.311 N 
ATOM     14  C   LIG d   1       6.817  86.830 117.425  0.00  0.00     0.210 C 
ATOM     15  C   LIG d   1       7.268  85.606 118.229  0.00  0.00     0.109 C 
ATOM     16  O   LIG d   1       7.642  87.688 117.080  0.00  0.00    -0.276 OA
ATOM     17  H   LIG d   1       4.909  86.168 117.526  0.00  0.00     0.149 HD
ENDBRANCH   6  13
BRANCH   5  18
ATOM     18  N   LIG d   1       5.271  89.789 118.119  0.00  0.00     0.381 N 
ATOM     19  H   LIG d   1       6.133  89.843 117.613  0.00  0.00    -0.090 HD
ATOM     20  H   LIG d   1       5.434  89.273 118.965  0.00  0.00    -0.090 HD
ATOM     21  H   LIG d   1       4.948  90.706 118.337  0.00  0.00    -0.090 HD
ENDBRANCH   5  18
BRANCH   3  22
ATOM     22  C   LIG d   1       1.547  90.290 115.149  0.00  0.00     0.382 C 
ATOM     23  O   LIG d   1       1.567  90.948 114.081  0.00  0.00    -0.241 OA
ATOM     24  O   LIG d   1       0.544  90.346 115.886  0.00  0.00    -0.241 OA
ENDBRANCH   3  22
TORSDOF 7
ENDMDL
MODEL 3
REMARK VINA RESULT:      -4.9      2.341      4.970
REMARK  7 active torsions:
REMARK  status: ('A' for Active; 'I' for Inactive)
REMARK    1  A    between atoms: C_2  and  C_3 
REMARK    2  A    between atoms: C_3  and  O_6 
REMARK    3  A    between atoms: C_3  and  C_4 
REMARK    4  A    between atoms: C_7  and  O_6 
REMARK    5  A    between atoms: C_9  and  C_10 
REMARK    6  A    between atoms: N_15  and  C_14 
REMARK    7  A    between atoms: N_20  and  C_19 
REMARK       I    between atoms: C_22  and  N_20 
ROOT
ATOM      1  C   LIG d   1       3.977  87.472 115.853  0.00  0.00     0.161 C 
ATOM      2  C   LIG d   1       4.744  87.852 116.967  0.00  0.00     0.016 C 
ATOM      3  C   LIG d   1       5.877  88.694 116.881  0.00  0.00     0.038 C 
ATOM      4  C   LIG d   1       6.233  89.339 115.687  0.00  0.00     0.028 C 
ATOM      5  C   LIG d   1       5.788  88.587 114.437  0.00  0.00    -0.047 C 
ATOM      6  C   LIG d   1       4.283  88.255 114.560  0.00  0.00     0.091 C 
ENDROOT
BRANCH   1   7
ATOM      7  O   LIG d   1       2.574  87.562 116.173  0.00  0.00    -0.368 OA
BRANCH   7   8
ATOM      8  C   LIG d   1       2.145  88.786 116.819  0.00  0.00     0.119 C 
BRANCH   8   9
ATOM      9  C   LIG d   1       1.325  88.390 118.062  0.00  0.00     0.028 C 
ATOM     10  C   LIG d   1       1.401  86.883 118.360  0.00  0.00     0.006 C 
ENDBRANCH   8   9
BRANCH   8  11
ATOM     11  C   LIG d   1       1.179  89.575 115.930  0.00  0.00     0.028 C 
ATOM     12  C   LIG d   1       0.072  90.278 116.731  0.00  0.00     0.006 C 
ENDBRANCH   8  11
ENDBRANCH   7   8
ENDBRANCH   1   7
BRANCH   6  13
ATOM     13  N   LIG d   1       3.786  87.446 113.416  0.00  0.00    -0.311 N 
ATOM     14  C   LIG d   1       2.884  87.889 112.543  0.00  0.00     0.210 C 
ATOM     15  C   LIG d   1       2.495  86.887 111.451  0.00  0.00     0.109 C 
ATOM     16  O   LIG d   1       2.392  89.027 112.549  0.00  0.00    -0.276 OA
ATOM     17  H   LIG d   1       4.156  86.521 113.317  0.00  0.00     0.149 HD
ENDBRANCH   6  13
BRANCH   5  18
ATOM     18  N   LIG d   1       6.100  89.436 113.272  0.00  0.00     0.381 N 
ATOM     19  H   LIG d   1       5.486  90.226 113.254  0.00  0.00    -0.090 HD
ATOM     20  H   LIG d   1       5.952  88.904 112.433  0.00  0.00    -0.090 HD
ATOM     21  H   LIG d   1       7.047  89.743 113.317  0.00  0.00    -0.090 HD
ENDBRANCH   5  18
BRANCH   3  22
ATOM     22  C   LIG d   1       6.692  88.866 117.990  0.00  0.00     0.382 C 
ATOM     23  O   LIG d   1       7.238  89.975 118.201  0.00  0.00    -0.241 OA
ATOM     24  O   LIG d   1       6.923  87.912 118.758  0.00  0.00    -0.241 OA
ENDBRANCH   3  22
TORSDOF 7
ENDMDL
MODEL 4
REMARK VINA RESULT:      -4.9      2.658      4.640
REMARK  7 active torsions:
REMARK  status: ('A' for Active; 'I' for Inactive)
REMARK    1  A    between atoms: C_2  and  C_3 
REMARK    2  A    between atoms: C_3  and  O_6 
REMARK    3  A    between atoms: C_3  and  C_4 
REMARK    4  A    between atoms: C_7  and  O_6 
REMARK    5  A    between atoms: C_9  and  C_10 
REMARK    6  A    between atoms: N_15  and  C_14 
REMARK    7  A    between atoms: N_20  and  C_19 
REMARK       I    between atoms: C_22  and  N_20 
ROOT
ATOM      1  C   LIG d   1       3.903  88.038 115.960  0.00  0.00     0.161 C 
ATOM      2  C   LIG d   1       4.451  87.290 114.905  0.00  0.00     0.016 C 
ATOM      3  C   LIG d   1       4.267  87.617 113.542  0.00  0.00     0.038 C 
ATOM      4  C   LIG d   1       3.644  88.809 113.143  0.00  0.00     0.028 C 
ATOM      5  C   LIG d   1       2.637  89.336 114.160  0.00  0.00    -0.047 C 
ATOM      6  C   LIG d   1       3.314  89.404 115.548  0.00  0.00     0.091 C 
ENDROOT
BRANCH   1   7
ATOM      7  O   LIG d   1       4.887  88.210 116.999  0.00  0.00    -0.368 OA
BRANCH   7   8
ATOM      8  C   LIG d   1       6.266  88.296 116.563  0.00  0.00     0.119 C 
BRANCH   8   9
ATOM      9  C   LIG d   1       7.086  87.314 117.423  0.00  0.00     0.028 C 
ATOM     10  C   LIG d   1       8.588  87.361 117.098  0.00  0.00     0.006 C 
ENDBRANCH   8   9
BRANCH   8  11
ATOM     11  C   LIG d   1       6.858  89.679 116.853  0.00  0.00     0.028 C 
ATOM     12  C   LIG d   1       6.035  90.476 117.877  0.00  0.00     0.006 C 
ENDBRANCH   8  11
ENDBRANCH   7   8
ENDBRANCH   1   7
BRANCH   6  13
ATOM     13  N   LIG d   1       2.374  89.829 116.617  0.00  0.00    -0.311 N 
ATOM     14  C   LIG d   1       2.142  91.105 116.924  0.00  0.00     0.210 C 
ATOM     15  C   LIG d   1       1.152  91.323 118.073  0.00  0.00     0.109 C 
ATOM     16  O   LIG d   1       2.636  92.076 116.332  0.00  0.00    -0.276 OA
ATOM     17  H   LIG d   1       1.906  89.106 117.127  0.00  0.00     0.149 HD
ENDBRANCH   6  13
BRANCH   5  18
ATOM     18  N   LIG d   1       2.167  90.650 113.682  0.00  0.00     0.381 N 
ATOM     19  H   LIG d   1       2.950  91.247 113.506  0.00  0.00    -0.090 HD
ATOM     20  H   LIG d   1       1.602  91.073 114.397  0.00  0.00    -0.090 HD
ATOM     21  H   LIG d   1       1.632  90.538 112.849  0.00  0.00    -0.090 HD
ENDBRANCH   5  18
BRANCH   3  22
ATOM     22  C   LIG d   1       4.674  86.727 112.560  0.00  0.00     0.382 C 
ATOM     23  O   LIG d   1       4.705  85.496 112.804  0.00  0.00    -0.241 OA
ATOM     24  O   LIG d   1       5.052  87.141 111.448  0.00  0.00    -0.241 OA
ENDBRANCH   3  22
TORSDOF 7
ENDMDL
MODEL 5
REMARK VINA RESULT:      -4.6      2.469      3.232
REMARK  7 active torsions:
REMARK  status: ('A' for Active; 'I' for Inactive)
REMARK    1  A    between atoms: C_2  and  C_3 
REMARK    2  A    between atoms: C_3  and  O_6 
REMARK    3  A    between atoms: C_3  and  C_4 
REMARK    4  A    between atoms: C_7  and  O_6 
REMARK    5  A    between atoms: C_9  and  C_10 
REMARK    6  A    between atoms: N_15  and  C_14 
REMARK    7  A    between atoms: N_20  and  C_19 
REMARK       I    between atoms: C_22  and  N_20 
ROOT
ATOM      1  C   LIG d   1       3.367  90.118 115.172  0.00  0.00     0.161 C 
ATOM      2  C   LIG d   1       2.893  89.502 114.002  0.00  0.00     0.016 C 
ATOM      3  C   LIG d   1       2.995  88.113 113.757  0.00  0.00     0.038 C 
ATOM      4  C   LIG d   1       3.446  87.219 114.739  0.00  0.00     0.028 C 
ATOM      5  C   LIG d   1       4.404  87.853 115.742  0.00  0.00    -0.047 C 
ATOM      6  C   LIG d   1       3.762  89.143 116.301  0.00  0.00     0.091 C 
ENDROOT
BRANCH   1   7
ATOM      7  O   LIG d   1       2.399  91.072 115.649  0.00  0.00    -0.368 OA
BRANCH   7   8
ATOM      8  C   LIG d   1       1.662  90.692 116.838  0.00  0.00     0.119 C 
BRANCH   8   9
ATOM      9  C   LIG d   1       0.223  90.355 116.402  0.00  0.00     0.028 C 
ATOM     10  C   LIG d   1      -0.786  90.493 117.555  0.00  0.00     0.006 C 
ENDBRANCH   8   9
BRANCH   8  11
ATOM     11  C   LIG d   1       1.527  91.868 117.809  0.00  0.00     0.028 C 
ATOM     12  C   LIG d   1       2.620  92.931 117.614  0.00  0.00     0.006 C 
ENDBRANCH   8  11
ENDBRANCH   7   8
ENDBRANCH   1   7
BRANCH   6  13
ATOM     13  N   LIG d   1       4.668  89.871 117.227  0.00  0.00    -0.311 N 
ATOM     14  C   LIG d   1       5.987  89.943 117.057  0.00  0.00     0.210 C 
ATOM     15  C   LIG d   1       6.737  90.726 118.139  0.00  0.00     0.109 C 
ATOM     16  O   LIG d   1       6.604  89.459 116.096  0.00  0.00    -0.276 OA
ATOM     17  H   LIG d   1       4.248  90.320 118.018  0.00  0.00     0.149 HD
ENDBRANCH   6  13
BRANCH   5  18
ATOM     18  N   LIG d   1       4.686  86.849 116.785  0.00  0.00     0.381 N 
ATOM     19  H   LIG d   1       4.499  87.236 117.688  0.00  0.00    -0.090 HD
ATOM     20  H   LIG d   1       5.659  86.601 116.743  0.00  0.00    -0.090 HD
ATOM     21  H   LIG d   1       4.123  86.039 116.640  0.00  0.00    -0.090 HD
ENDBRANCH   5  18
BRANCH   3  22
ATOM     22  C   LIG d   1       2.680  87.611 112.503  0.00  0.00     0.382 C 
ATOM     23  O   LIG d   1       1.549  87.111 112.294  0.00  0.00    -0.241 OA
ATOM     24  O   LIG d   1       3.528  87.612 111.591  0.00  0.00    -0.241 OA
ENDBRANCH   3  22
TORSDOF 7
ENDMDL
MODEL 6
REMARK VINA RESULT:      -4.5      1.908      2.373
REMARK  7 active torsions:
REMARK  status: ('A' for Active; 'I' for Inactive)
REMARK    1  A    between atoms: C_2  and  C_3 
REMARK    2  A    between atoms: C_3  and  O_6 
REMARK    3  A    between atoms: C_3  and  C_4 
REMARK    4  A    between atoms: C_7  and  O_6 
REMARK    5  A    between atoms: C_9  and  C_10 
REMARK    6  A    between atoms: N_15  and  C_14 
REMARK    7  A    between atoms: N_20  and  C_19 
REMARK       I    between atoms: C_22  and  N_20 
ROOT
ATOM      1  C   LIG d   1       5.190  89.436 115.830  0.00  0.00     0.161 C 
ATOM      2  C   LIG d   1       4.209  89.748 114.874  0.00  0.00     0.016 C 
ATOM      3  C   LIG d   1       3.531  88.773 114.107  0.00  0.00     0.038 C 
ATOM      4  C   LIG d   1       3.682  87.400 114.352  0.00  0.00     0.028 C 
ATOM      5  C   LIG d   1       5.033  87.038 114.959  0.00  0.00    -0.047 C 
ATOM      6  C   LIG d   1       5.288  87.938 116.190  0.00  0.00     0.091 C 
ENDROOT
BRANCH   1   7
ATOM      7  O   LIG d   1       4.984  90.224 117.018  0.00  0.00    -0.368 OA
BRANCH   7   8
ATOM      8  C   LIG d   1       3.608  90.548 117.337  0.00  0.00     0.119 C 
BRANCH   8   9
ATOM      9  C   LIG d   1       3.610  91.903 118.072  0.00  0.00     0.028 C 
ATOM     10  C   LIG d   1       2.632  92.911 117.446  0.00  0.00     0.006 C 
ENDBRANCH   8   9
BRANCH   8  11
ATOM     11  C   LIG d   1       3.016  89.547 118.334  0.00  0.00     0.028 C 
ATOM     12  C   LIG d   1       1.899  88.687 117.722  0.00  0.00     0.006 C 
ENDBRANCH   8  11
ENDBRANCH   7   8
ENDBRANCH   1   7
BRANCH   6  13
ATOM     13  N   LIG d   1       6.626  87.708 116.793  0.00  0.00    -0.311 N 
ATOM     14  C   LIG d   1       6.841  86.862 117.800  0.00  0.00     0.210 C 
ATOM     15  C   LIG d   1       8.292  86.789 118.286  0.00  0.00     0.109 C 
ATOM     16  O   LIG d   1       5.973  86.141 118.315  0.00  0.00    -0.276 OA
ATOM     17  H   LIG d   1       7.393  88.229 116.416  0.00  0.00     0.149 HD
ENDBRANCH   6  13
BRANCH   5  18
ATOM     18  N   LIG d   1       5.003  85.601 115.290  0.00  0.00     0.381 N 
ATOM     19  H   LIG d   1       5.276  85.064 114.492  0.00  0.00    -0.090 HD
ATOM     20  H   LIG d   1       4.063  85.344 115.536  0.00  0.00    -0.090 HD
ATOM     21  H   LIG d   1       5.616  85.414 116.052  0.00  0.00    -0.090 HD
ENDBRANCH   5  18
BRANCH   3  22
ATOM     22  C   LIG d   1       2.721  89.169 113.053  0.00  0.00     0.382 C 
ATOM     23  O   LIG d   1       2.394  88.342 112.169  0.00  0.00    -0.241 OA
ATOM     24  O   LIG d   1       2.349  90.354 112.953  0.00  0.00    -0.241 OA
ENDBRANCH   3  22
TORSDOF 7
ENDMDL
MODEL 7
REMARK VINA RESULT:      -4.5      2.518      4.471
REMARK  7 active torsions:
REMARK  status: ('A' for Active; 'I' for Inactive)
REMARK    1  A    between atoms: C_2  and  C_3 
REMARK    2  A    between atoms: C_3  and  O_6 
REMARK    3  A    between atoms: C_3  and  C_4 
REMARK    4  A    between atoms: C_7  and  O_6 
REMARK    5  A    between atoms: C_9  and  C_10 
REMARK    6  A    between atoms: N_15  and  C_14 
REMARK    7  A    between atoms: N_20  and  C_19 
REMARK       I    between atoms: C_22  and  N_20 
ROOT
ATOM      1  C   LIG d   1       2.678  87.722 116.258  0.00  0.00     0.161 C 
ATOM      2  C   LIG d   1       1.714  88.744 116.289  0.00  0.00     0.016 C 
ATOM      3  C   LIG d   1       1.940  90.008 116.880  0.00  0.00     0.038 C 
ATOM      4  C   LIG d   1       3.205  90.392 117.350  0.00  0.00     0.028 C 
ATOM      5  C   LIG d   1       4.068  89.217 117.796  0.00  0.00    -0.047 C 
ATOM      6  C   LIG d   1       4.100  88.161 116.667  0.00  0.00     0.091 C 
ENDROOT
BRANCH   1   7
ATOM      7  O   LIG d   1       2.698  87.109 114.954  0.00  0.00    -0.368 OA
BRANCH   7   8
ATOM      8  C   LIG d   1       3.761  87.536 114.066  0.00  0.00     0.119 C 
BRANCH   8   9
ATOM      9  C   LIG d   1       3.126  88.421 112.976  0.00  0.00     0.028 C 
ATOM     10  C   LIG d   1       3.331  89.921 113.246  0.00  0.00     0.006 C 
ENDBRANCH   8   9
BRANCH   8  11
ATOM     11  C   LIG d   1       4.372  86.347 113.317  0.00  0.00     0.028 C 
ATOM     12  C   LIG d   1       4.572  86.626 111.819  0.00  0.00     0.006 C 
ENDBRANCH   8  11
ENDBRANCH   7   8
ENDBRANCH   1   7
BRANCH   6  13
ATOM     13  N   LIG d   1       4.854  86.940 117.053  0.00  0.00    -0.311 N 
ATOM     14  C   LIG d   1       6.151  86.771 116.805  0.00  0.00     0.210 C 
ATOM     15  C   LIG d   1       6.729  85.430 117.269  0.00  0.00     0.109 C 
ATOM     16  O   LIG d   1       6.886  87.616 116.272  0.00  0.00    -0.276 OA
ATOM     17  H   LIG d   1       4.342  86.216 117.518  0.00  0.00     0.149 HD
ENDBRANCH   6  13
BRANCH   5  18
ATOM     18  N   LIG d   1       5.403  89.746 118.130  0.00  0.00     0.381 N 
ATOM     19  H   LIG d   1       5.326  90.419 118.866  0.00  0.00    -0.090 HD
ATOM     20  H   LIG d   1       5.783  90.206 117.321  0.00  0.00    -0.090 HD
ATOM     21  H   LIG d   1       6.004  89.003 118.411  0.00  0.00    -0.090 HD
ENDBRANCH   5  18
BRANCH   3  22
ATOM     22  C   LIG d   1       0.882  90.890 117.042  0.00  0.00     0.382 C 
ATOM     23  O   LIG d   1      -0.257  90.588 116.610  0.00  0.00    -0.241 OA
ATOM     24  O   LIG d   1       1.061  92.001 117.574  0.00  0.00    -0.241 OA
ENDBRANCH   3  22
TORSDOF 7
ENDMDL
MODEL 8
REMARK VINA RESULT:      -4.4      2.039      2.823
REMARK  7 active torsions:
REMARK  status: ('A' for Active; 'I' for Inactive)
REMARK    1  A    between atoms: C_2  and  C_3 
REMARK    2  A    between atoms: C_3  and  O_6 
REMARK    3  A    between atoms: C_3  and  C_4 
REMARK    4  A    between atoms: C_7  and  O_6 
REMARK    5  A    between atoms: C_9  and  C_10 
REMARK    6  A    between atoms: N_15  and  C_14 
REMARK    7  A    between atoms: N_20  and  C_19 
REMARK       I    between atoms: C_22  and  N_20 
ROOT
ATOM      1  C   LIG d   1       4.123  90.260 116.675  0.00  0.00     0.161 C 
ATOM      2  C   LIG d   1       3.447  90.426 115.455  0.00  0.00     0.016 C 
ATOM      3  C   LIG d   1       3.368  89.419 114.466  0.00  0.00     0.038 C 
ATOM      4  C   LIG d   1       3.836  88.116 114.695  0.00  0.00     0.028 C 
ATOM      5  C   LIG d   1       4.970  88.050 115.712  0.00  0.00    -0.047 C 
ATOM      6  C   LIG d   1       4.544  88.810 116.989  0.00  0.00     0.091 C 
ENDROOT
BRANCH   1   7
ATOM      7  O   LIG d   1       3.328  90.796 117.751  0.00  0.00    -0.368 OA
BRANCH   7   8
ATOM      8  C   LIG d   1       2.131  91.514 117.363  0.00  0.00     0.119 C 
BRANCH   8   9
ATOM      9  C   LIG d   1       2.189  92.903 118.029  0.00  0.00     0.028 C 
ATOM     10  C   LIG d   1       0.859  93.290 118.697  0.00  0.00     0.006 C 
ENDBRANCH   8   9
BRANCH   8  11
ATOM     11  C   LIG d   1       0.873  90.847 117.926  0.00  0.00     0.028 C 
ATOM     12  C   LIG d   1      -0.031  90.261 116.830  0.00  0.00     0.006 C 
ENDBRANCH   8  11
ENDBRANCH   7   8
ENDBRANCH   1   7
BRANCH   6  13
ATOM     13  N   LIG d   1       5.629  88.866 118.004  0.00  0.00    -0.311 N 
ATOM     14  C   LIG d   1       6.848  89.339 117.748  0.00  0.00     0.210 C 
ATOM     15  C   LIG d   1       7.822  89.287 118.930  0.00  0.00     0.109 C 
ATOM     16  O   LIG d   1       7.205  89.825 116.665  0.00  0.00    -0.276 OA
ATOM     17  H   LIG d   1       5.416  88.520 118.919  0.00  0.00     0.149 HD
ENDBRANCH   6  13
BRANCH   5  18
ATOM     18  N   LIG d   1       5.267  86.626 115.957  0.00  0.00     0.381 N 
ATOM     19  H   LIG d   1       6.256  86.492 116.021  0.00  0.00    -0.090 HD
ATOM     20  H   LIG d   1       4.924  86.085 115.183  0.00  0.00    -0.090 HD
ATOM     21  H   LIG d   1       4.829  86.327 116.801  0.00  0.00    -0.090 HD
ENDBRANCH   5  18
BRANCH   3  22
ATOM     22  C   LIG d   1       2.851  89.723 113.216  0.00  0.00     0.382 C 
ATOM     23  O   LIG d   1       2.650  90.919 112.894  0.00  0.00    -0.241 OA
ATOM     24  O   LIG d   1       2.543  88.814 112.422  0.00  0.00    -0.241 OA
ENDBRANCH   3  22
TORSDOF 7
ENDMDL
MODEL 9
REMARK VINA RESULT:      -4.4      2.718      4.138
REMARK  7 active torsions:
REMARK  status: ('A' for Active; 'I' for Inactive)
REMARK    1  A    between atoms: C_2  and  C_3 
REMARK    2  A    between atoms: C_3  and  O_6 
REMARK    3  A    between atoms: C_3  and  C_4 
REMARK    4  A    between atoms: C_7  and  O_6 
REMARK    5  A    between atoms: C_9  and  C_10 
REMARK    6  A    between atoms: N_15  and  C_14 
REMARK    7  A    between atoms: N_20  and  C_19 
REMARK       I    between atoms: C_22  and  N_20 
ROOT
ATOM      1  C   LIG d   1       4.852  89.541 116.526  0.00  0.00     0.161 C 
ATOM      2  C   LIG d   1       4.447  90.739 117.137  0.00  0.00     0.016 C 
ATOM      3  C   LIG d   1       3.112  91.206 117.126  0.00  0.00     0.038 C 
ATOM      4  C   LIG d   1       2.058  90.425 116.630  0.00  0.00     0.028 C 
ATOM      5  C   LIG d   1       2.491  89.435 115.554  0.00  0.00    -0.047 C 
ATOM      6  C   LIG d   1       3.697  88.622 116.077  0.00  0.00     0.091 C 
ENDROOT
BRANCH   1   7
ATOM      7  O   LIG d   1       5.750  88.827 117.399  0.00  0.00    -0.368 OA
BRANCH   7   8
ATOM      8  C   LIG d   1       7.159  88.914 117.072  0.00  0.00     0.119 C 
BRANCH   8   9
ATOM      9  C   LIG d   1       7.670  87.479 116.841  0.00  0.00     0.028 C 
ATOM     10  C   LIG d   1       6.707  86.416 117.397  0.00  0.00     0.006 C 
ENDBRANCH   8   9
BRANCH   8  11
ATOM     11  C   LIG d   1       7.973  89.448 118.255  0.00  0.00     0.028 C 
ATOM     12  C   LIG d   1       7.961  90.982 118.341  0.00  0.00     0.006 C 
ENDBRANCH   8  11
ENDBRANCH   7   8
ENDBRANCH   1   7
BRANCH   6  13
ATOM     13  N   LIG d   1       4.238  87.688 115.054  0.00  0.00    -0.311 N 
ATOM     14  C   LIG d   1       3.765  86.458 114.862  0.00  0.00     0.210 C 
ATOM     15  C   LIG d   1       4.479  85.654 113.771  0.00  0.00     0.109 C 
ATOM     16  O   LIG d   1       2.802  85.967 115.471  0.00  0.00    -0.276 OA
ATOM     17  H   LIG d   1       5.000  88.016 114.495  0.00  0.00     0.149 HD
ENDBRANCH   6  13
BRANCH   5  18
ATOM     18  N   LIG d   1       1.325  88.594 115.225  0.00  0.00     0.381 N 
ATOM     19  H   LIG d   1       0.486  89.132 115.305  0.00  0.00    -0.090 HD
ATOM     20  H   LIG d   1       1.276  87.835 115.882  0.00  0.00    -0.090 HD
ATOM     21  H   LIG d   1       1.412  88.236 114.300  0.00  0.00    -0.090 HD
ENDBRANCH   5  18
BRANCH   3  22
ATOM     22  C   LIG d   1       2.827  92.485 117.580  0.00  0.00     0.382 C 
ATOM     23  O   LIG d   1       2.352  93.338 116.792  0.00  0.00    -0.241 OA
ATOM     24  O   LIG d   1       3.080  92.809 118.755  0.00  0.00    -0.241 OA
ENDBRANCH   3  22
TORSDOF 7
ENDMDL
