MODEL 1
REMARK VINA RESULT:      -5.9      0.000      0.000
REMARK  7 active torsions:
REMARK  status: ('A' for Active; 'I' for Inactive)
REMARK    1  A    between atoms: C_2  and  C_3 
REMARK    2  A    between atoms: C_3  and  O_6 
REMARK    3  A    between atoms: C_3  and  C_4 
REMARK    4  A    between atoms: C_7  and  O_6 
REMARK    5  A    between atoms: C_9  and  C_10 
REMARK    6  A    between atoms: N_15  and  C_14 
REMARK    7  A    between atoms: N_20  and  C_19 
REMARK       I    between atoms: C_22  and  N_20 
ROOT
ATOM      1  C   LIG d   1      -4.614  91.064 116.738  0.00  0.00     0.161 C 
ATOM      2  C   LIG d   1      -3.447  90.283 116.694  0.00  0.00     0.016 C 
ATOM      3  C   LIG d   1      -2.242  90.648 117.337  0.00  0.00     0.038 C 
ATOM      4  C   LIG d   1      -2.167  91.752 118.200  0.00  0.00     0.028 C 
ATOM      5  C   LIG d   1      -3.177  92.846 117.873  0.00  0.00    -0.047 C 
ATOM      6  C   LIG d   1      -4.584  92.215 117.766  0.00  0.00     0.091 C 
ENDROOT
BRANCH   1   7
ATOM      7  O   LIG d   1      -5.759  90.218 116.966  0.00  0.00    -0.368 OA
BRANCH   7   8
ATOM      8  C   LIG d   1      -6.593  89.951 115.813  0.00  0.00     0.119 C 
BRANCH   8   9
ATOM      9  C   LIG d   1      -6.210  90.966 114.718  0.00  0.00     0.028 C 
ATOM     10  C   LIG d   1      -7.352  91.948 114.403  0.00  0.00     0.006 C 
ENDBRANCH   8   9
BRANCH   8  11
ATOM     11  C   LIG d   1      -8.070  90.221 116.118  0.00  0.00     0.028 C 
ATOM     12  C   LIG d   1      -8.861  88.938 116.417  0.00  0.00     0.006 C 
ENDBRANCH   8  11
ENDBRANCH   7   8
ENDBRANCH   1   7
BRANCH   6  13
ATOM     13  N   LIG d   1      -5.620  93.202 117.365  0.00  0.00    -0.311 N 
ATOM     14  C   LIG d   1      -6.817  93.283 117.942  0.00  0.00     0.210 C 
ATOM     15  C   LIG d   1      -7.742  94.359 117.365  0.00  0.00     0.109 C 
ATOM     16  O   LIG d   1      -7.190  92.588 118.899  0.00  0.00    -0.276 OA
ATOM     17  H   LIG d   1      -5.390  93.827 116.617  0.00  0.00     0.149 HD
ENDBRANCH   6  13
BRANCH   5  18
ATOM     18  N   LIG d   1      -3.082  93.871 118.930  0.00  0.00     0.381 N 
ATOM     19  H   LIG d   1      -3.132  94.783 118.523  0.00  0.00    -0.090 HD
ATOM     20  H   LIG d   1      -2.195  93.779 119.392  0.00  0.00    -0.090 HD
ATOM     21  H   LIG d   1      -3.821  93.751 119.587  0.00  0.00    -0.090 HD
ENDBRANCH   5  18
BRANCH   3  22
ATOM     22  C   LIG d   1      -1.084  89.927 117.087  0.00  0.00     0.382 C 
ATOM     23  O   LIG d   1      -0.041  90.522 116.724  0.00  0.00    -0.241 OA
ATOM     24  O   LIG d   1      -1.082  88.685 117.178  0.00  0.00    -0.241 OA
ENDBRANCH   3  22
TORSDOF 7
ENDMDL
MODEL 2
REMARK VINA RESULT:      -4.9      7.889     10.657
REMARK  7 active torsions:
REMARK  status: ('A' for Active; 'I' for Inactive)
REMARK    1  A    between atoms: C_2  and  C_3 
REMARK    2  A    between atoms: C_3  and  O_6 
REMARK    3  A    between atoms: C_3  and  C_4 
REMARK    4  A    between atoms: C_7  and  O_6 
REMARK    5  A    between atoms: C_9  and  C_10 
REMARK    6  A    between atoms: N_15  and  C_14 
REMARK    7  A    between atoms: N_20  and  C_19 
REMARK       I    between atoms: C_22  and  N_20 
ROOT
ATOM      1  C   LIG d   1       3.597  87.839 115.467  0.00  0.00     0.161 C 
ATOM      2  C   LIG d   1       2.805  87.450 114.373  0.00  0.00     0.016 C 
ATOM      3  C   LIG d   1       3.268  87.457 113.037  0.00  0.00     0.038 C 
ATOM      4  C   LIG d   1       4.610  87.711 112.718  0.00  0.00     0.028 C 
ATOM      5  C   LIG d   1       5.317  88.598 113.737  0.00  0.00    -0.047 C 
ATOM      6  C   LIG d   1       5.097  88.012 115.150  0.00  0.00     0.091 C 
ENDROOT
BRANCH   1   7
ATOM      7  O   LIG d   1       3.418  86.909 116.554  0.00  0.00    -0.368 OA
BRANCH   7   8
ATOM      8  C   LIG d   1       2.634  87.383 117.675  0.00  0.00     0.119 C 
BRANCH   8   9
ATOM      9  C   LIG d   1       1.204  86.835 117.505  0.00  0.00     0.028 C 
ATOM     10  C   LIG d   1       0.199  87.929 117.105  0.00  0.00     0.006 C 
ENDBRANCH   8   9
BRANCH   8  11
ATOM     11  C   LIG d   1       2.489  88.908 117.650  0.00  0.00     0.028 C 
ATOM     12  C   LIG d   1       3.236  89.597 118.803  0.00  0.00     0.006 C 
ENDBRANCH   8  11
ENDBRANCH   7   8
ENDBRANCH   1   7
BRANCH   6  13
ATOM     13  N   LIG d   1       5.685  88.866 116.215  0.00  0.00    -0.311 N 
ATOM     14  C   LIG d   1       6.910  88.686 116.705  0.00  0.00     0.210 C 
ATOM     15  C   LIG d   1       7.314  89.665 117.813  0.00  0.00     0.109 C 
ATOM     16  O   LIG d   1       7.713  87.830 116.306  0.00  0.00    -0.276 OA
ATOM     17  H   LIG d   1       5.114  89.605 116.575  0.00  0.00     0.149 HD
ENDBRANCH   6  13
BRANCH   5  18
ATOM     18  N   LIG d   1       6.740  88.668 113.355  0.00  0.00     0.381 N 
ATOM     19  H   LIG d   1       6.914  88.059 112.581  0.00  0.00    -0.090 HD
ATOM     20  H   LIG d   1       7.300  88.359 114.130  0.00  0.00    -0.090 HD
ATOM     21  H   LIG d   1       6.983  89.603 113.112  0.00  0.00    -0.090 HD
ENDBRANCH   5  18
BRANCH   3  22
ATOM     22  C   LIG d   1       2.373  87.246 111.999  0.00  0.00     0.382 C 
ATOM     23  O   LIG d   1       1.673  88.196 111.572  0.00  0.00    -0.241 OA
ATOM     24  O   LIG d   1       2.224  86.108 111.514  0.00  0.00    -0.241 OA
ENDBRANCH   3  22
TORSDOF 7
ENDMDL
MODEL 3
REMARK VINA RESULT:      -4.7      8.364     10.164
REMARK  7 active torsions:
REMARK  status: ('A' for Active; 'I' for Inactive)
REMARK    1  A    between atoms: C_2  and  C_3 
REMARK    2  A    between atoms: C_3  and  O_6 
REMARK    3  A    between atoms: C_3  and  C_4 
REMARK    4  A    between atoms: C_7  and  O_6 
REMARK    5  A    between atoms: C_9  and  C_10 
REMARK    6  A    between atoms: N_15  and  C_14 
REMARK    7  A    between atoms: N_20  and  C_19 
REMARK       I    between atoms: C_22  and  N_20 
ROOT
ATOM      1  C   LIG d   1       3.655  88.255 115.443  0.00  0.00     0.161 C 
ATOM      2  C   LIG d   1       2.847  87.699 114.437  0.00  0.00     0.016 C 
ATOM      3  C   LIG d   1       3.278  87.520 113.103  0.00  0.00     0.038 C 
ATOM      4  C   LIG d   1       4.607  87.746 112.716  0.00  0.00     0.028 C 
ATOM      5  C   LIG d   1       5.321  88.782 113.578  0.00  0.00    -0.047 C 
ATOM      6  C   LIG d   1       5.144  88.404 115.067  0.00  0.00     0.091 C 
ENDROOT
BRANCH   1   7
ATOM      7  O   LIG d   1       3.520  87.490 116.657  0.00  0.00    -0.368 OA
BRANCH   7   8
ATOM      8  C   LIG d   1       2.530  87.964 117.602  0.00  0.00     0.119 C 
BRANCH   8   9
ATOM      9  C   LIG d   1       3.270  88.789 118.673  0.00  0.00     0.028 C 
ATOM     10  C   LIG d   1       2.707  90.214 118.809  0.00  0.00     0.006 C 
ENDBRANCH   8   9
BRANCH   8  11
ATOM     11  C   LIG d   1       1.883  86.802 118.362  0.00  0.00     0.028 C 
ATOM     12  C   LIG d   1       0.403  87.056 118.690  0.00  0.00     0.006 C 
ENDBRANCH   8  11
ENDBRANCH   7   8
ENDBRANCH   1   7
BRANCH   6  13
ATOM     13  N   LIG d   1       5.741  89.412 115.982  0.00  0.00    -0.311 N 
ATOM     14  C   LIG d   1       5.273  90.652 116.111  0.00  0.00     0.210 C 
ATOM     15  C   LIG d   1       6.047  91.536 117.094  0.00  0.00     0.109 C 
ATOM     16  O   LIG d   1       4.271  91.095 115.529  0.00  0.00    -0.276 OA
ATOM     17  H   LIG d   1       6.538  89.128 116.516  0.00  0.00     0.149 HD
ENDBRANCH   6  13
BRANCH   5  18
ATOM     18  N   LIG d   1       6.733  88.818 113.154  0.00  0.00     0.381 N 
ATOM     19  H   LIG d   1       6.857  88.249 112.341  0.00  0.00    -0.090 HD
ATOM     20  H   LIG d   1       7.303  88.443 113.891  0.00  0.00    -0.090 HD
ATOM     21  H   LIG d   1       7.006  89.756 112.957  0.00  0.00    -0.090 HD
ENDBRANCH   5  18
BRANCH   3  22
ATOM     22  C   LIG d   1       2.363  87.147 112.130  0.00  0.00     0.382 C 
ATOM     23  O   LIG d   1       2.220  85.936 111.835  0.00  0.00    -0.241 OA
ATOM     24  O   LIG d   1       1.712  88.010 111.511  0.00  0.00    -0.241 OA
ENDBRANCH   3  22
TORSDOF 7
ENDMDL
MODEL 4
REMARK VINA RESULT:      -4.6      6.580      9.300
REMARK  7 active torsions:
REMARK  status: ('A' for Active; 'I' for Inactive)
REMARK    1  A    between atoms: C_2  and  C_3 
REMARK    2  A    between atoms: C_3  and  O_6 
REMARK    3  A    between atoms: C_3  and  C_4 
REMARK    4  A    between atoms: C_7  and  O_6 
REMARK    5  A    between atoms: C_9  and  C_10 
REMARK    6  A    between atoms: N_15  and  C_14 
REMARK    7  A    between atoms: N_20  and  C_19 
REMARK       I    between atoms: C_22  and  N_20 
ROOT
ATOM      1  C   LIG d   1       3.141  88.474 116.024  0.00  0.00     0.161 C 
ATOM      2  C   LIG d   1       3.498  89.299 117.104  0.00  0.00     0.016 C 
ATOM      3  C   LIG d   1       4.489  90.304 117.021  0.00  0.00     0.038 C 
ATOM      4  C   LIG d   1       5.088  90.656 115.802  0.00  0.00     0.028 C 
ATOM      5  C   LIG d   1       5.124  89.514 114.793  0.00  0.00    -0.047 C 
ATOM      6  C   LIG d   1       3.704  88.918 114.658  0.00  0.00     0.091 C 
ENDROOT
BRANCH   1   7
ATOM      7  O   LIG d   1       1.707  88.349 115.958  0.00  0.00    -0.368 OA
BRANCH   7   8
ATOM      8  C   LIG d   1       1.029  88.112 117.217  0.00  0.00     0.119 C 
BRANCH   8   9
ATOM      9  C   LIG d   1       1.166  86.612 117.540  0.00  0.00     0.028 C 
ATOM     10  C   LIG d   1       0.586  86.254 118.919  0.00  0.00     0.006 C 
ENDBRANCH   8   9
BRANCH   8  11
ATOM     11  C   LIG d   1      -0.476  88.366 117.096  0.00  0.00     0.028 C 
ATOM     12  C   LIG d   1      -0.939  89.597 117.891  0.00  0.00     0.006 C 
ENDBRANCH   8  11
ENDBRANCH   7   8
ENDBRANCH   1   7
BRANCH   6  13
ATOM     13  N   LIG d   1       3.667  87.740 113.752  0.00  0.00    -0.311 N 
ATOM     14  C   LIG d   1       2.908  87.679 112.659  0.00  0.00     0.210 C 
ATOM     15  C   LIG d   1       3.005  86.365 111.878  0.00  0.00     0.109 C 
ATOM     16  O   LIG d   1       2.189  88.600 112.246  0.00  0.00    -0.276 OA
ATOM     17  H   LIG d   1       4.245  86.959 113.996  0.00  0.00     0.149 HD
ENDBRANCH   6  13
BRANCH   5  18
ATOM     18  N   LIG d   1       5.646  90.056 113.524  0.00  0.00     0.381 N 
ATOM     19  H   LIG d   1       4.990  89.889 112.788  0.00  0.00    -0.090 HD
ATOM     20  H   LIG d   1       6.503  89.583 113.296  0.00  0.00    -0.090 HD
ATOM     21  H   LIG d   1       5.813  91.034 113.615  0.00  0.00    -0.090 HD
ENDBRANCH   5  18
BRANCH   3  22
ATOM     22  C   LIG d   1       4.920  90.942 118.175  0.00  0.00     0.382 C 
ATOM     23  O   LIG d   1       4.088  91.500 118.930  0.00  0.00    -0.241 OA
ATOM     24  O   LIG d   1       6.133  91.004 118.447  0.00  0.00    -0.241 OA
ENDBRANCH   3  22
TORSDOF 7
ENDMDL
MODEL 5
REMARK VINA RESULT:      -4.5      6.691      9.652
REMARK  7 active torsions:
REMARK  status: ('A' for Active; 'I' for Inactive)
REMARK    1  A    between atoms: C_2  and  C_3 
REMARK    2  A    between atoms: C_3  and  O_6 
REMARK    3  A    between atoms: C_3  and  C_4 
REMARK    4  A    between atoms: C_7  and  O_6 
REMARK    5  A    between atoms: C_9  and  C_10 
REMARK    6  A    between atoms: N_15  and  C_14 
REMARK    7  A    between atoms: N_20  and  C_19 
REMARK       I    between atoms: C_22  and  N_20 
ROOT
ATOM      1  C   LIG d   1       2.975  87.941 115.505  0.00  0.00     0.161 C 
ATOM      2  C   LIG d   1       4.134  88.343 116.190  0.00  0.00     0.016 C 
ATOM      3  C   LIG d   1       5.418  88.368 115.600  0.00  0.00     0.038 C 
ATOM      4  C   LIG d   1       5.609  88.134 114.230  0.00  0.00     0.028 C 
ATOM      5  C   LIG d   1       4.543  87.235 113.614  0.00  0.00    -0.047 C 
ATOM      6  C   LIG d   1       3.147  87.790 113.979  0.00  0.00     0.091 C 
ENDROOT
BRANCH   1   7
ATOM      7  O   LIG d   1       1.894  88.847 115.800  0.00  0.00    -0.368 OA
BRANCH   7   8
ATOM      8  C   LIG d   1       1.637  89.097 117.204  0.00  0.00     0.119 C 
BRANCH   8   9
ATOM      9  C   LIG d   1       0.511  88.142 117.645  0.00  0.00     0.028 C 
ATOM     10  C   LIG d   1      -0.885  88.667 117.268  0.00  0.00     0.006 C 
ENDBRANCH   8   9
BRANCH   8  11
ATOM     11  C   LIG d   1       1.083  90.508 117.426  0.00  0.00     0.028 C 
ATOM     12  C   LIG d   1       2.171  91.591 117.367  0.00  0.00     0.006 C 
ENDBRANCH   8  11
ENDBRANCH   7   8
ENDBRANCH   1   7
BRANCH   6  13
ATOM     13  N   LIG d   1       2.045  86.921 113.486  0.00  0.00    -0.311 N 
ATOM     14  C   LIG d   1       1.431  87.108 112.320  0.00  0.00     0.210 C 
ATOM     15  C   LIG d   1       0.309  86.110 112.013  0.00  0.00     0.109 C 
ATOM     16  O   LIG d   1       1.730  87.984 111.495  0.00  0.00    -0.276 OA
ATOM     17  H   LIG d   1       1.760  86.166 114.079  0.00  0.00     0.149 HD
ENDBRANCH   6  13
BRANCH   5  18
ATOM     18  N   LIG d   1       4.785  87.188 112.160  0.00  0.00     0.381 N 
ATOM     19  H   LIG d   1       4.515  88.056 111.743  0.00  0.00    -0.090 HD
ATOM     20  H   LIG d   1       4.222  86.458 111.760  0.00  0.00    -0.090 HD
ATOM     21  H   LIG d   1       5.748  87.010 111.980  0.00  0.00    -0.090 HD
ENDBRANCH   5  18
BRANCH   3  22
ATOM     22  C   LIG d   1       6.534  88.590 116.392  0.00  0.00     0.382 C 
ATOM     23  O   LIG d   1       7.583  87.929 116.197  0.00  0.00    -0.241 OA
ATOM     24  O   LIG d   1       6.492  89.411 117.328  0.00  0.00    -0.241 OA
ENDBRANCH   3  22
TORSDOF 7
ENDMDL
MODEL 6
REMARK VINA RESULT:      -4.4      8.966     10.647
REMARK  7 active torsions:
REMARK  status: ('A' for Active; 'I' for Inactive)
REMARK    1  A    between atoms: C_2  and  C_3 
REMARK    2  A    between atoms: C_3  and  O_6 
REMARK    3  A    between atoms: C_3  and  C_4 
REMARK    4  A    between atoms: C_7  and  O_6 
REMARK    5  A    between atoms: C_9  and  C_10 
REMARK    6  A    between atoms: N_15  and  C_14 
REMARK    7  A    between atoms: N_20  and  C_19 
REMARK       I    between atoms: C_22  and  N_20 
ROOT
ATOM      1  C   LIG d   1       3.476  88.938 115.702  0.00  0.00     0.161 C 
ATOM      2  C   LIG d   1       2.754  88.097 114.839  0.00  0.00     0.016 C 
ATOM      3  C   LIG d   1       3.168  87.795 113.521  0.00  0.00     0.038 C 
ATOM      4  C   LIG d   1       4.418  88.196 113.026  0.00  0.00     0.028 C 
ATOM      5  C   LIG d   1       4.952  89.464 113.684  0.00  0.00    -0.047 C 
ATOM      6  C   LIG d   1       4.897  89.294 115.219  0.00  0.00     0.091 C 
ENDROOT
BRANCH   1   7
ATOM      7  O   LIG d   1       3.526  88.357 117.021  0.00  0.00    -0.368 OA
BRANCH   7   8
ATOM      8  C   LIG d   1       3.465  86.911 117.083  0.00  0.00     0.119 C 
BRANCH   8   9
ATOM      9  C   LIG d   1       2.686  86.535 118.358  0.00  0.00     0.028 C 
ATOM     10  C   LIG d   1       1.308  85.928 118.047  0.00  0.00     0.006 C 
ENDBRANCH   8   9
BRANCH   8  11
ATOM     11  C   LIG d   1       4.858  86.302 117.264  0.00  0.00     0.028 C 
ATOM     12  C   LIG d   1       5.287  85.431 116.072  0.00  0.00     0.006 C 
ENDBRANCH   8  11
ENDBRANCH   7   8
ENDBRANCH   1   7
BRANCH   6  13
ATOM     13  N   LIG d   1       5.322  90.522 115.941  0.00  0.00    -0.311 N 
ATOM     14  C   LIG d   1       6.203  90.518 116.939  0.00  0.00     0.210 C 
ATOM     15  C   LIG d   1       6.486  91.890 117.559  0.00  0.00     0.109 C 
ATOM     16  O   LIG d   1       6.802  89.512 117.350  0.00  0.00    -0.276 OA
ATOM     17  H   LIG d   1       4.910  91.387 115.651  0.00  0.00     0.149 HD
ENDBRANCH   6  13
BRANCH   5  18
ATOM     18  N   LIG d   1       6.318  89.690 113.175  0.00  0.00     0.381 N 
ATOM     19  H   LIG d   1       6.464  89.149 112.346  0.00  0.00    -0.090 HD
ATOM     20  H   LIG d   1       6.977  89.386 113.869  0.00  0.00    -0.090 HD
ATOM     21  H   LIG d   1       6.453  90.657 112.978  0.00  0.00    -0.090 HD
ENDBRANCH   5  18
BRANCH   3  22
ATOM     22  C   LIG d   1       2.309  87.118 112.669  0.00  0.00     0.382 C 
ATOM     23  O   LIG d   1       1.197  86.718 113.088  0.00  0.00    -0.241 OA
ATOM     24  O   LIG d   1       2.652  86.862 111.499  0.00  0.00    -0.241 OA
ENDBRANCH   3  22
TORSDOF 7
ENDMDL
MODEL 7
REMARK VINA RESULT:      -4.4      8.800     11.383
REMARK  7 active torsions:
REMARK  status: ('A' for Active; 'I' for Inactive)
REMARK    1  A    between atoms: C_2  and  C_3 
REMARK    2  A    between atoms: C_3  and  O_6 
REMARK    3  A    between atoms: C_3  and  C_4 
REMARK    4  A    between atoms: C_7  and  O_6 
REMARK    5  A    between atoms: C_9  and  C_10 
REMARK    6  A    between atoms: N_15  and  C_14 
REMARK    7  A    between atoms: N_20  and  C_19 
REMARK       I    between atoms: C_22  and  N_20 
ROOT
ATOM      1  C   LIG d   1       4.895  88.631 116.756  0.00  0.00     0.161 C 
ATOM      2  C   LIG d   1       4.106  89.792 116.699  0.00  0.00     0.016 C 
ATOM      3  C   LIG d   1       4.608  91.088 116.957  0.00  0.00     0.038 C 
ATOM      4  C   LIG d   1       5.978  91.329 117.142  0.00  0.00     0.028 C 
ATOM      5  C   LIG d   1       6.732  90.130 117.708  0.00  0.00    -0.047 C 
ATOM      6  C   LIG d   1       6.414  88.886 116.848  0.00  0.00     0.091 C 
ENDROOT
BRANCH   1   7
ATOM      7  O   LIG d   1       4.596  87.782 115.631  0.00  0.00    -0.368 OA
BRANCH   7   8
ATOM      8  C   LIG d   1       3.573  88.261 114.724  0.00  0.00     0.119 C 
BRANCH   8   9
ATOM      9  C   LIG d   1       2.510  87.153 114.598  0.00  0.00     0.028 C 
ATOM     10  C   LIG d   1       1.596  87.073 115.832  0.00  0.00     0.006 C 
ENDBRANCH   8   9
BRANCH   8  11
ATOM     11  C   LIG d   1       4.128  88.454 113.309  0.00  0.00     0.028 C 
ATOM     12  C   LIG d   1       5.664  88.458 113.268  0.00  0.00     0.006 C 
ENDBRANCH   8  11
ENDBRANCH   7   8
ENDBRANCH   1   7
BRANCH   6  13
ATOM     13  N   LIG d   1       7.045  87.651 117.382  0.00  0.00    -0.311 N 
ATOM     14  C   LIG d   1       7.903  86.906 116.687  0.00  0.00     0.210 C 
ATOM     15  C   LIG d   1       8.421  85.664 117.418  0.00  0.00     0.109 C 
ATOM     16  O   LIG d   1       8.309  87.175 115.546  0.00  0.00    -0.276 OA
ATOM     17  H   LIG d   1       6.796  87.377 118.312  0.00  0.00     0.149 HD
ENDBRANCH   6  13
BRANCH   5  18
ATOM     18  N   LIG d   1       8.167  90.472 117.721  0.00  0.00     0.381 N 
ATOM     19  H   LIG d   1       8.708  89.675 117.451  0.00  0.00    -0.090 HD
ATOM     20  H   LIG d   1       8.431  90.731 118.655  0.00  0.00    -0.090 HD
ATOM     21  H   LIG d   1       8.343  91.228 117.096  0.00  0.00    -0.090 HD
ENDBRANCH   5  18
BRANCH   3  22
ATOM     22  C   LIG d   1       3.731  92.156 117.070  0.00  0.00     0.382 C 
ATOM     23  O   LIG d   1       4.171  93.331 117.085  0.00  0.00    -0.241 OA
ATOM     24  O   LIG d   1       2.508  91.957 117.203  0.00  0.00    -0.241 OA
ENDBRANCH   3  22
TORSDOF 7
ENDMDL
MODEL 8
REMARK VINA RESULT:      -4.3      7.309     10.297
REMARK  7 active torsions:
REMARK  status: ('A' for Active; 'I' for Inactive)
REMARK    1  A    between atoms: C_2  and  C_3 
REMARK    2  A    between atoms: C_3  and  O_6 
REMARK    3  A    between atoms: C_3  and  C_4 
REMARK    4  A    between atoms: C_7  and  O_6 
REMARK    5  A    between atoms: C_9  and  C_10 
REMARK    6  A    between atoms: N_15  and  C_14 
REMARK    7  A    between atoms: N_20  and  C_19 
REMARK       I    between atoms: C_22  and  N_20 
ROOT
ATOM      1  C   LIG d   1       3.392  87.880 116.833  0.00  0.00     0.161 C 
ATOM      2  C   LIG d   1       2.289  88.748 116.878  0.00  0.00     0.016 C 
ATOM      3  C   LIG d   1       2.398  90.152 116.756  0.00  0.00     0.038 C 
ATOM      4  C   LIG d   1       3.611  90.776 116.427  0.00  0.00     0.028 C 
ATOM      5  C   LIG d   1       4.838  89.987 116.872  0.00  0.00    -0.047 C 
ATOM      6  C   LIG d   1       4.710  88.532 116.365  0.00  0.00     0.091 C 
ENDROOT
BRANCH   1   7
ATOM      7  O   LIG d   1       3.081  86.735 116.014  0.00  0.00    -0.368 OA
BRANCH   7   8
ATOM      8  C   LIG d   1       2.635  87.019 114.665  0.00  0.00     0.119 C 
BRANCH   8   9
ATOM      9  C   LIG d   1       1.299  86.282 114.454  0.00  0.00     0.028 C 
ATOM     10  C   LIG d   1       0.856  86.279 112.982  0.00  0.00     0.006 C 
ENDBRANCH   8   9
BRANCH   8  11
ATOM     11  C   LIG d   1       3.593  86.428 113.626  0.00  0.00     0.028 C 
ATOM     12  C   LIG d   1       4.357  87.505 112.839  0.00  0.00     0.006 C 
ENDBRANCH   8  11
ENDBRANCH   7   8
ENDBRANCH   1   7
BRANCH   6  13
ATOM     13  N   LIG d   1       5.828  87.670 116.828  0.00  0.00    -0.311 N 
ATOM     14  C   LIG d   1       6.922  87.437 116.105  0.00  0.00     0.210 C 
ATOM     15  C   LIG d   1       7.944  86.502 116.760  0.00  0.00     0.109 C 
ATOM     16  O   LIG d   1       7.158  87.941 114.996  0.00  0.00    -0.276 OA
ATOM     17  H   LIG d   1       5.734  87.246 117.730  0.00  0.00     0.149 HD
ENDBRANCH   6  13
BRANCH   5  18
ATOM     18  N   LIG d   1       6.029  90.680 116.346  0.00  0.00     0.381 N 
ATOM     19  H   LIG d   1       6.856  90.196 116.632  0.00  0.00    -0.090 HD
ATOM     20  H   LIG d   1       6.059  91.609 116.729  0.00  0.00    -0.090 HD
ATOM     21  H   LIG d   1       5.987  90.723 115.352  0.00  0.00    -0.090 HD
ENDBRANCH   5  18
BRANCH   3  22
ATOM     22  C   LIG d   1       1.292  90.951 117.003  0.00  0.00     0.382 C 
ATOM     23  O   LIG d   1       0.141  90.529 116.736  0.00  0.00    -0.241 OA
ATOM     24  O   LIG d   1       1.434  92.106 117.447  0.00  0.00    -0.241 OA
ENDBRANCH   3  22
TORSDOF 7
ENDMDL
MODEL 9
REMARK VINA RESULT:      -4.0      8.911     11.071
REMARK  7 active torsions:
REMARK  status: ('A' for Active; 'I' for Inactive)
REMARK    1  A    between atoms: C_2  and  C_3 
REMARK    2  A    between atoms: C_3  and  O_6 
REMARK    3  A    between atoms: C_3  and  C_4 
REMARK    4  A    between atoms: C_7  and  O_6 
REMARK    5  A    between atoms: C_9  and  C_10 
REMARK    6  A    between atoms: N_15  and  C_14 
REMARK    7  A    between atoms: N_20  and  C_19 
REMARK       I    between atoms: C_22  and  N_20 
ROOT
ATOM      1  C   LIG d   1       4.523  89.189 116.564  0.00  0.00     0.161 C 
ATOM      2  C   LIG d   1       3.938  90.462 116.668  0.00  0.00     0.016 C 
ATOM      3  C   LIG d   1       4.647  91.612 117.087  0.00  0.00     0.038 C 
ATOM      4  C   LIG d   1       6.035  91.596 117.286  0.00  0.00     0.028 C 
ATOM      5  C   LIG d   1       6.574  90.225 117.681  0.00  0.00    -0.047 C 
ATOM      6  C   LIG d   1       6.062  89.174 116.670  0.00  0.00     0.091 C 
ENDROOT
BRANCH   1   7
ATOM      7  O   LIG d   1       4.099  88.555 115.341  0.00  0.00    -0.368 OA
BRANCH   7   8
ATOM      8  C   LIG d   1       3.603  87.200 115.464  0.00  0.00     0.119 C 
BRANCH   8   9
ATOM      9  C   LIG d   1       3.981  86.449 114.172  0.00  0.00     0.028 C 
ATOM     10  C   LIG d   1       4.539  87.388 113.090  0.00  0.00     0.006 C 
ENDBRANCH   8   9
BRANCH   8  11
ATOM     11  C   LIG d   1       2.073  87.169 115.518  0.00  0.00     0.028 C 
ATOM     12  C   LIG d   1       1.534  86.562 116.823  0.00  0.00     0.006 C 
ENDBRANCH   8  11
ENDBRANCH   7   8
ENDBRANCH   1   7
BRANCH   6  13
ATOM     13  N   LIG d   1       6.474  87.792 117.031  0.00  0.00    -0.311 N 
ATOM     14  C   LIG d   1       7.316  87.064 116.300  0.00  0.00     0.210 C 
ATOM     15  C   LIG d   1       7.592  85.657 116.841  0.00  0.00     0.109 C 
ATOM     16  O   LIG d   1       7.885  87.460 115.272  0.00  0.00    -0.276 OA
ATOM     17  H   LIG d   1       6.084  87.404 117.867  0.00  0.00     0.149 HD
ENDBRANCH   6  13
BRANCH   5  18
ATOM     18  N   LIG d   1       8.046  90.320 117.722  0.00  0.00     0.381 N 
ATOM     19  H   LIG d   1       8.334  90.750 118.578  0.00  0.00    -0.090 HD
ATOM     20  H   LIG d   1       8.356  90.896 116.959  0.00  0.00    -0.090 HD
ATOM     21  H   LIG d   1       8.448  89.411 117.646  0.00  0.00    -0.090 HD
ENDBRANCH   5  18
BRANCH   3  22
ATOM     22  C   LIG d   1       3.957  92.786 117.349  0.00  0.00     0.382 C 
ATOM     23  O   LIG d   1       2.743  92.744 117.660  0.00  0.00    -0.241 OA
ATOM     24  O   LIG d   1       4.523  93.890 117.234  0.00  0.00    -0.241 OA
ENDBRANCH   3  22
TORSDOF 7
ENDMDL
