MODEL 1
REMARK VINA RESULT:      -4.7      0.000      0.000
REMARK  7 active torsions:
REMARK  status: ('A' for Active; 'I' for Inactive)
REMARK    1  A    between atoms: C_2  and  C_3 
REMARK    2  A    between atoms: C_3  and  O_6 
REMARK    3  A    between atoms: C_3  and  C_4 
REMARK    4  A    between atoms: C_7  and  O_6 
REMARK    5  A    between atoms: C_9  and  C_10 
REMARK    6  A    between atoms: N_15  and  C_14 
REMARK    7  A    between atoms: N_20  and  C_19 
REMARK       I    between atoms: C_22  and  N_20 
ROOT
ATOM      1  C   LIG d   1       3.438  87.936 115.775  0.00  0.00     0.161 C 
ATOM      2  C   LIG d   1       3.997  88.478 116.944  0.00  0.00     0.016 C 
ATOM      3  C   LIG d   1       5.195  89.228 116.959  0.00  0.00     0.038 C 
ATOM      4  C   LIG d   1       5.841  89.618 115.776  0.00  0.00     0.028 C 
ATOM      5  C   LIG d   1       5.590  88.669 114.609  0.00  0.00    -0.047 C 
ATOM      6  C   LIG d   1       4.068  88.445 114.461  0.00  0.00     0.091 C 
ENDROOT
BRANCH   1   7
ATOM      7  O   LIG d   1       2.014  88.158 115.766  0.00  0.00    -0.368 OA
BRANCH   7   8
ATOM      8  C   LIG d   1       1.413  88.497 117.040  0.00  0.00     0.119 C 
BRANCH   8   9
ATOM      9  C   LIG d   1       0.361  87.417 117.358  0.00  0.00     0.028 C 
ATOM     10  C   LIG d   1      -0.932  88.011 117.942  0.00  0.00     0.006 C 
ENDBRANCH   8   9
BRANCH   8  11
ATOM     11  C   LIG d   1       0.633  89.811 116.956  0.00  0.00     0.028 C 
ATOM     12  C   LIG d   1       1.388  90.994 117.582  0.00  0.00     0.006 C 
ENDBRANCH   8  11
ENDBRANCH   7   8
ENDBRANCH   1   7
BRANCH   6  13
ATOM     13  N   LIG d   1       3.740  87.462 113.396  0.00  0.00    -0.311 N 
ATOM     14  C   LIG d   1       2.873  87.707 112.415  0.00  0.00     0.210 C 
ATOM     15  C   LIG d   1       2.666  86.550 111.432  0.00  0.00     0.109 C 
ATOM     16  O   LIG d   1       2.279  88.783 112.248  0.00  0.00    -0.276 OA
ATOM     17  H   LIG d   1       4.200  86.574 113.437  0.00  0.00     0.149 HD
ENDBRANCH   6  13
BRANCH   5  18
ATOM     18  N   LIG d   1       6.206  89.266 113.409  0.00  0.00     0.381 N 
ATOM     19  H   LIG d   1       5.534  89.308 112.669  0.00  0.00    -0.090 HD
ATOM     20  H   LIG d   1       6.968  88.683 113.110  0.00  0.00    -0.090 HD
ATOM     21  H   LIG d   1       6.540  90.181 113.616  0.00  0.00    -0.090 HD
ENDBRANCH   5  18
BRANCH   3  22
ATOM     22  C   LIG d   1       5.782  89.563 118.170  0.00  0.00     0.382 C 
ATOM     23  O   LIG d   1       6.819  88.968 118.549  0.00  0.00    -0.241 OA
ATOM     24  O   LIG d   1       5.262  90.421 118.908  0.00  0.00    -0.241 OA
ENDBRANCH   3  22
TORSDOF 7
ENDMDL
MODEL 2
REMARK VINA RESULT:      -4.6      1.924      4.614
REMARK  7 active torsions:
REMARK  status: ('A' for Active; 'I' for Inactive)
REMARK    1  A    between atoms: C_2  and  C_3 
REMARK    2  A    between atoms: C_3  and  O_6 
REMARK    3  A    between atoms: C_3  and  C_4 
REMARK    4  A    between atoms: C_7  and  O_6 
REMARK    5  A    between atoms: C_9  and  C_10 
REMARK    6  A    between atoms: N_15  and  C_14 
REMARK    7  A    between atoms: N_20  and  C_19 
REMARK       I    between atoms: C_22  and  N_20 
ROOT
ATOM      1  C   LIG d   1       2.847  89.071 116.177  0.00  0.00     0.161 C 
ATOM      2  C   LIG d   1       2.556  88.599 114.886  0.00  0.00     0.016 C 
ATOM      3  C   LIG d   1       3.543  88.371 113.900  0.00  0.00     0.038 C 
ATOM      4  C   LIG d   1       4.913  88.455 114.189  0.00  0.00     0.028 C 
ATOM      5  C   LIG d   1       5.233  89.414 115.331  0.00  0.00    -0.047 C 
ATOM      6  C   LIG d   1       4.345  89.062 116.546  0.00  0.00     0.091 C 
ENDROOT
BRANCH   1   7
ATOM      7  O   LIG d   1       2.087  88.328 117.151  0.00  0.00    -0.368 OA
BRANCH   7   8
ATOM      8  C   LIG d   1       0.737  88.793 117.395  0.00  0.00     0.119 C 
BRANCH   8   9
ATOM      9  C   LIG d   1       0.792  89.781 118.576  0.00  0.00     0.028 C 
ATOM     10  C   LIG d   1       0.492  91.227 118.146  0.00  0.00     0.006 C 
ENDBRANCH   8   9
BRANCH   8  11
ATOM     11  C   LIG d   1      -0.169  87.651 117.864  0.00  0.00     0.028 C 
ATOM     12  C   LIG d   1      -1.591  88.121 118.209  0.00  0.00     0.006 C 
ENDBRANCH   8  11
ENDBRANCH   7   8
ENDBRANCH   1   7
BRANCH   6  13
ATOM     13  N   LIG d   1       4.535  90.005 117.679  0.00  0.00    -0.311 N 
ATOM     14  C   LIG d   1       4.227  91.299 117.615  0.00  0.00     0.210 C 
ATOM     15  C   LIG d   1       4.520  92.098 118.889  0.00  0.00     0.109 C 
ATOM     16  O   LIG d   1       3.708  91.855 116.635  0.00  0.00    -0.276 OA
ATOM     17  H   LIG d   1       4.922  89.632 118.523  0.00  0.00     0.149 HD
ENDBRANCH   6  13
BRANCH   5  18
ATOM     18  N   LIG d   1       6.676  89.301 115.616  0.00  0.00     0.381 N 
ATOM     19  H   LIG d   1       7.051  90.203 115.829  0.00  0.00    -0.090 HD
ATOM     20  H   LIG d   1       7.143  88.950 114.798  0.00  0.00    -0.090 HD
ATOM     21  H   LIG d   1       6.824  88.682 116.383  0.00  0.00    -0.090 HD
ENDBRANCH   5  18
BRANCH   3  22
ATOM     22  C   LIG d   1       3.160  88.093 112.597  0.00  0.00     0.382 C 
ATOM     23  O   LIG d   1       3.934  87.461 111.838  0.00  0.00    -0.241 OA
ATOM     24  O   LIG d   1       2.070  88.504 112.157  0.00  0.00    -0.241 OA
ENDBRANCH   3  22
TORSDOF 7
ENDMDL
MODEL 3
REMARK VINA RESULT:      -4.5      8.576     11.311
REMARK  7 active torsions:
REMARK  status: ('A' for Active; 'I' for Inactive)
REMARK    1  A    between atoms: C_2  and  C_3 
REMARK    2  A    between atoms: C_3  and  O_6 
REMARK    3  A    between atoms: C_3  and  C_4 
REMARK    4  A    between atoms: C_7  and  O_6 
REMARK    5  A    between atoms: C_9  and  C_10 
REMARK    6  A    between atoms: N_15  and  C_14 
REMARK    7  A    between atoms: N_20  and  C_19 
REMARK       I    between atoms: C_22  and  N_20 
ROOT
ATOM      1  C   LIG d   1      -6.271  91.803 117.851  0.00  0.00     0.161 C 
ATOM      2  C   LIG d   1      -7.328  92.728 117.829  0.00  0.00     0.016 C 
ATOM      3  C   LIG d   1      -7.170  94.098 118.141  0.00  0.00     0.038 C 
ATOM      4  C   LIG d   1      -5.906  94.670 118.350  0.00  0.00     0.028 C 
ATOM      5  C   LIG d   1      -4.873  93.680 118.877  0.00  0.00    -0.047 C 
ATOM      6  C   LIG d   1      -4.866  92.430 117.968  0.00  0.00     0.091 C 
ENDROOT
BRANCH   1   7
ATOM      7  O   LIG d   1      -6.344  90.951 116.691  0.00  0.00    -0.368 OA
BRANCH   7   8
ATOM      8  C   LIG d   1      -7.467  91.177 115.803  0.00  0.00     0.119 C 
BRANCH   8   9
ATOM      9  C   LIG d   1      -8.072  89.802 115.461  0.00  0.00     0.028 C 
ATOM     10  C   LIG d   1      -8.867  89.203 116.633  0.00  0.00     0.006 C 
ENDBRANCH   8   9
BRANCH   8  11
ATOM     11  C   LIG d   1      -7.009  91.763 114.464  0.00  0.00     0.028 C 
ATOM     12  C   LIG d   1      -7.329  90.846 113.272  0.00  0.00     0.006 C 
ENDBRANCH   8  11
ENDBRANCH   7   8
ENDBRANCH   1   7
BRANCH   6  13
ATOM     13  N   LIG d   1      -3.943  91.375 118.462  0.00  0.00    -0.311 N 
ATOM     14  C   LIG d   1      -2.626  91.402 118.264  0.00  0.00     0.210 C 
ATOM     15  C   LIG d   1      -1.861  90.206 118.839  0.00  0.00     0.109 C 
ATOM     16  O   LIG d   1      -2.015  92.319 117.695  0.00  0.00    -0.276 OA
ATOM     17  H   LIG d   1      -4.351  90.609 118.961  0.00  0.00     0.149 HD
ENDBRANCH   6  13
BRANCH   5  18
ATOM     18  N   LIG d   1      -3.572  94.373 118.918  0.00  0.00     0.381 N 
ATOM     19  H   LIG d   1      -2.942  93.875 119.515  0.00  0.00    -0.090 HD
ATOM     20  H   LIG d   1      -3.706  95.293 119.299  0.00  0.00    -0.090 HD
ATOM     21  H   LIG d   1      -3.191  94.437 118.000  0.00  0.00    -0.090 HD
ENDBRANCH   5  18
BRANCH   3  22
ATOM     22  C   LIG d   1      -8.289  94.904 118.285  0.00  0.00     0.382 C 
ATOM     23  O   LIG d   1      -8.173  96.152 118.242  0.00  0.00    -0.241 OA
ATOM     24  O   LIG d   1      -9.407  94.399 118.502  0.00  0.00    -0.241 OA
ENDBRANCH   3  22
TORSDOF 7
ENDMDL
MODEL 4
REMARK VINA RESULT:      -4.4      2.291      5.206
REMARK  7 active torsions:
REMARK  status: ('A' for Active; 'I' for Inactive)
REMARK    1  A    between atoms: C_2  and  C_3 
REMARK    2  A    between atoms: C_3  and  O_6 
REMARK    3  A    between atoms: C_3  and  C_4 
REMARK    4  A    between atoms: C_7  and  O_6 
REMARK    5  A    between atoms: C_9  and  C_10 
REMARK    6  A    between atoms: N_15  and  C_14 
REMARK    7  A    between atoms: N_20  and  C_19 
REMARK       I    between atoms: C_22  and  N_20 
ROOT
ATOM      1  C   LIG d   1       3.727  88.034 116.248  0.00  0.00     0.161 C 
ATOM      2  C   LIG d   1       2.377  88.424 116.268  0.00  0.00     0.016 C 
ATOM      3  C   LIG d   1       1.903  89.550 116.979  0.00  0.00     0.038 C 
ATOM      4  C   LIG d   1       2.776  90.457 117.599  0.00  0.00     0.028 C 
ATOM      5  C   LIG d   1       4.097  89.828 118.029  0.00  0.00    -0.047 C 
ATOM      6  C   LIG d   1       4.709  89.073 116.827  0.00  0.00     0.091 C 
ENDROOT
BRANCH   1   7
ATOM      7  O   LIG d   1       4.111  87.674 114.907  0.00  0.00    -0.368 OA
BRANCH   7   8
ATOM      8  C   LIG d   1       3.500  88.441 113.841  0.00  0.00     0.119 C 
BRANCH   8   9
ATOM      9  C   LIG d   1       3.380  87.516 112.614  0.00  0.00     0.028 C 
ATOM     10  C   LIG d   1       2.151  87.845 111.749  0.00  0.00     0.006 C 
ENDBRANCH   8   9
BRANCH   8  11
ATOM     11  C   LIG d   1       4.405  89.592 113.393  0.00  0.00     0.028 C 
ATOM     12  C   LIG d   1       5.898  89.227 113.434  0.00  0.00     0.006 C 
ENDBRANCH   8  11
ENDBRANCH   7   8
ENDBRANCH   1   7
BRANCH   6  13
ATOM     13  N   LIG d   1       5.962  88.358 117.185  0.00  0.00    -0.311 N 
ATOM     14  C   LIG d   1       7.174  88.893 117.055  0.00  0.00     0.210 C 
ATOM     15  C   LIG d   1       8.332  87.978 117.463  0.00  0.00     0.109 C 
ATOM     16  O   LIG d   1       7.399  90.051 116.672  0.00  0.00    -0.276 OA
ATOM     17  H   LIG d   1       5.870  87.424 117.534  0.00  0.00     0.149 HD
ENDBRANCH   6  13
BRANCH   5  18
ATOM     18  N   LIG d   1       4.963  90.911 118.534  0.00  0.00     0.381 N 
ATOM     19  H   LIG d   1       4.887  90.968 119.530  0.00  0.00    -0.090 HD
ATOM     20  H   LIG d   1       4.653  91.783 118.143  0.00  0.00    -0.090 HD
ATOM     21  H   LIG d   1       5.909  90.739 118.274  0.00  0.00    -0.090 HD
ENDBRANCH   5  18
BRANCH   3  22
ATOM     22  C   LIG d   1       0.538  89.757 117.108  0.00  0.00     0.382 C 
ATOM     23  O   LIG d   1       0.092  90.921 117.254  0.00  0.00    -0.241 OA
ATOM     24  O   LIG d   1      -0.248  88.792 117.125  0.00  0.00    -0.241 OA
ENDBRANCH   3  22
TORSDOF 7
ENDMDL
MODEL 5
REMARK VINA RESULT:      -4.4      3.449      6.365
REMARK  7 active torsions:
REMARK  status: ('A' for Active; 'I' for Inactive)
REMARK    1  A    between atoms: C_2  and  C_3 
REMARK    2  A    between atoms: C_3  and  O_6 
REMARK    3  A    between atoms: C_3  and  C_4 
REMARK    4  A    between atoms: C_7  and  O_6 
REMARK    5  A    between atoms: C_9  and  C_10 
REMARK    6  A    between atoms: N_15  and  C_14 
REMARK    7  A    between atoms: N_20  and  C_19 
REMARK       I    between atoms: C_22  and  N_20 
ROOT
ATOM      1  C   LIG d   1       0.916  89.416 117.497  0.00  0.00     0.161 C 
ATOM      2  C   LIG d   1      -0.484  89.298 117.523  0.00  0.00     0.016 C 
ATOM      3  C   LIG d   1      -1.347  90.354 117.896  0.00  0.00     0.038 C 
ATOM      4  C   LIG d   1      -0.872  91.655 118.124  0.00  0.00     0.028 C 
ATOM      5  C   LIG d   1       0.576  91.695 118.601  0.00  0.00    -0.047 C 
ATOM      6  C   LIG d   1       1.446  90.859 117.636  0.00  0.00     0.091 C 
ENDROOT
BRANCH   1   7
ATOM      7  O   LIG d   1       1.436  88.804 116.300  0.00  0.00    -0.368 OA
BRANCH   7   8
ATOM      8  C   LIG d   1       2.319  87.673 116.495  0.00  0.00     0.119 C 
BRANCH   8   9
ATOM      9  C   LIG d   1       3.419  87.753 115.418  0.00  0.00     0.028 C 
ATOM     10  C   LIG d   1       3.552  89.164 114.820  0.00  0.00     0.006 C 
ENDBRANCH   8   9
BRANCH   8  11
ATOM     11  C   LIG d   1       1.594  86.348 116.236  0.00  0.00     0.028 C 
ATOM     12  C   LIG d   1       1.925  85.748 114.860  0.00  0.00     0.006 C 
ENDBRANCH   8  11
ENDBRANCH   7   8
ENDBRANCH   1   7
BRANCH   6  13
ATOM     13  N   LIG d   1       2.863  90.776 118.076  0.00  0.00    -0.311 N 
ATOM     14  C   LIG d   1       3.812  91.609 117.652  0.00  0.00     0.210 C 
ATOM     15  C   LIG d   1       5.210  91.337 118.215  0.00  0.00     0.109 C 
ATOM     16  O   LIG d   1       3.622  92.568 116.888  0.00  0.00    -0.276 OA
ATOM     17  H   LIG d   1       3.099  90.047 118.720  0.00  0.00     0.149 HD
ENDBRANCH   6  13
BRANCH   5  18
ATOM     18  N   LIG d   1       0.984  93.111 118.667  0.00  0.00     0.381 N 
ATOM     19  H   LIG d   1       0.421  93.595 119.338  0.00  0.00    -0.090 HD
ATOM     20  H   LIG d   1       0.836  93.535 117.767  0.00  0.00    -0.090 HD
ATOM     21  H   LIG d   1       1.945  93.178 118.919  0.00  0.00    -0.090 HD
ENDBRANCH   5  18
BRANCH   3  22
ATOM     22  C   LIG d   1      -2.698  90.105 118.082  0.00  0.00     0.382 C 
ATOM     23  O   LIG d   1      -3.087  88.949 118.377  0.00  0.00    -0.241 OA
ATOM     24  O   LIG d   1      -3.537  91.010 117.916  0.00  0.00    -0.241 OA
ENDBRANCH   3  22
TORSDOF 7
ENDMDL
MODEL 6
REMARK VINA RESULT:      -4.0      5.964      8.259
REMARK  7 active torsions:
REMARK  status: ('A' for Active; 'I' for Inactive)
REMARK    1  A    between atoms: C_2  and  C_3 
REMARK    2  A    between atoms: C_3  and  O_6 
REMARK    3  A    between atoms: C_3  and  C_4 
REMARK    4  A    between atoms: C_7  and  O_6 
REMARK    5  A    between atoms: C_9  and  C_10 
REMARK    6  A    between atoms: N_15  and  C_14 
REMARK    7  A    between atoms: N_20  and  C_19 
REMARK       I    between atoms: C_22  and  N_20 
ROOT
ATOM      1  C   LIG d   1      -3.551  90.890 118.549  0.00  0.00     0.161 C 
ATOM      2  C   LIG d   1      -3.633  92.292 118.506  0.00  0.00     0.016 C 
ATOM      3  C   LIG d   1      -2.502  93.134 118.400  0.00  0.00     0.038 C 
ATOM      4  C   LIG d   1      -1.215  92.623 118.176  0.00  0.00     0.028 C 
ATOM      5  C   LIG d   1      -1.022  91.210 118.718  0.00  0.00    -0.047 C 
ATOM      6  C   LIG d   1      -2.165  90.311 118.195  0.00  0.00     0.091 C 
ENDROOT
BRANCH   1   7
ATOM      7  O   LIG d   1      -4.566  90.315 117.702  0.00  0.00    -0.368 OA
BRANCH   7   8
ATOM      8  C   LIG d   1      -5.333  91.249 116.903  0.00  0.00     0.119 C 
BRANCH   8   9
ATOM      9  C   LIG d   1      -6.550  91.686 117.742  0.00  0.00     0.028 C 
ATOM     10  C   LIG d   1      -7.009  93.115 117.410  0.00  0.00     0.006 C 
ENDBRANCH   8   9
BRANCH   8  11
ATOM     11  C   LIG d   1      -5.920  90.570 115.662  0.00  0.00     0.028 C 
ATOM     12  C   LIG d   1      -7.320  89.986 115.908  0.00  0.00     0.006 C 
ENDBRANCH   8  11
ENDBRANCH   7   8
ENDBRANCH   1   7
BRANCH   6  13
ATOM     13  N   LIG d   1      -2.099  88.932 118.745  0.00  0.00    -0.311 N 
ATOM     14  C   LIG d   1      -1.344  87.969 118.220  0.00  0.00     0.210 C 
ATOM     15  C   LIG d   1      -1.438  86.615 118.929  0.00  0.00     0.109 C 
ATOM     16  O   LIG d   1      -0.581  88.116 117.253  0.00  0.00    -0.276 OA
ATOM     17  H   LIG d   1      -2.663  88.734 119.548  0.00  0.00     0.149 HD
ENDBRANCH   6  13
BRANCH   5  18
ATOM     18  N   LIG d   1       0.314  90.750 118.295  0.00  0.00     0.381 N 
ATOM     19  H   LIG d   1       0.224  90.073 117.565  0.00  0.00    -0.090 HD
ATOM     20  H   LIG d   1       0.770  90.313 119.077  0.00  0.00    -0.090 HD
ATOM     21  H   LIG d   1       0.856  91.523 117.976  0.00  0.00    -0.090 HD
ENDBRANCH   5  18
BRANCH   3  22
ATOM     22  C   LIG d   1      -2.649  94.504 118.558  0.00  0.00     0.382 C 
ATOM     23  O   LIG d   1      -3.749  94.978 118.930  0.00  0.00    -0.241 OA
ATOM     24  O   LIG d   1      -1.707  95.275 118.291  0.00  0.00    -0.241 OA
ENDBRANCH   3  22
TORSDOF 7
ENDMDL
MODEL 7
REMARK VINA RESULT:      -3.9      8.292     11.338
REMARK  7 active torsions:
REMARK  status: ('A' for Active; 'I' for Inactive)
REMARK    1  A    between atoms: C_2  and  C_3 
REMARK    2  A    between atoms: C_3  and  O_6 
REMARK    3  A    between atoms: C_3  and  C_4 
REMARK    4  A    between atoms: C_7  and  O_6 
REMARK    5  A    between atoms: C_9  and  C_10 
REMARK    6  A    between atoms: N_15  and  C_14 
REMARK    7  A    between atoms: N_20  and  C_19 
REMARK       I    between atoms: C_22  and  N_20 
ROOT
ATOM      1  C   LIG d   1      -5.893  92.951 117.342  0.00  0.00     0.161 C 
ATOM      2  C   LIG d   1      -7.005  92.245 116.853  0.00  0.00     0.016 C 
ATOM      3  C   LIG d   1      -6.954  90.887 116.463  0.00  0.00     0.038 C 
ATOM      4  C   LIG d   1      -5.816  90.096 116.679  0.00  0.00     0.028 C 
ATOM      5  C   LIG d   1      -4.518  90.895 116.701  0.00  0.00    -0.047 C 
ATOM      6  C   LIG d   1      -4.671  92.074 117.688  0.00  0.00     0.091 C 
ENDROOT
BRANCH   1   7
ATOM      7  O   LIG d   1      -6.280  93.744 118.481  0.00  0.00    -0.368 OA
BRANCH   7   8
ATOM      8  C   LIG d   1      -6.884  95.028 118.189  0.00  0.00     0.119 C 
BRANCH   8   9
ATOM      9  C   LIG d   1      -6.066  96.104 118.930  0.00  0.00     0.028 C 
ATOM     10  C   LIG d   1      -5.850  97.367 118.079  0.00  0.00     0.006 C 
ENDBRANCH   8   9
BRANCH   8  11
ATOM     11  C   LIG d   1      -8.298  95.124 118.768  0.00  0.00     0.028 C 
ATOM     12  C   LIG d   1      -9.280  95.841 117.828  0.00  0.00     0.006 C 
ENDBRANCH   8  11
ENDBRANCH   7   8
ENDBRANCH   1   7
BRANCH   6  13
ATOM     13  N   LIG d   1      -3.476  92.957 117.708  0.00  0.00    -0.311 N 
ATOM     14  C   LIG d   1      -2.344  92.644 118.336  0.00  0.00     0.210 C 
ATOM     15  C   LIG d   1      -1.241  93.703 118.248  0.00  0.00     0.109 C 
ATOM     16  O   LIG d   1      -2.137  91.575 118.930  0.00  0.00    -0.276 OA
ATOM     17  H   LIG d   1      -3.546  93.831 117.224  0.00  0.00     0.149 HD
ENDBRANCH   6  13
BRANCH   5  18
ATOM     18  N   LIG d   1      -3.431  89.969 117.071  0.00  0.00     0.381 N 
ATOM     19  H   LIG d   1      -2.871  90.376 117.794  0.00  0.00    -0.090 HD
ATOM     20  H   LIG d   1      -2.846  89.817 116.268  0.00  0.00    -0.090 HD
ATOM     21  H   LIG d   1      -3.811  89.103 117.382  0.00  0.00    -0.090 HD
ENDBRANCH   5  18
BRANCH   3  22
ATOM     22  C   LIG d   1      -8.039  90.318 115.813  0.00  0.00     0.382 C 
ATOM     23  O   LIG d   1      -8.269  89.090 115.934  0.00  0.00    -0.241 OA
ATOM     24  O   LIG d   1      -8.764  91.007 115.072  0.00  0.00    -0.241 OA
ENDBRANCH   3  22
TORSDOF 7
ENDMDL
MODEL 8
REMARK VINA RESULT:      -3.8      2.080      4.472
REMARK  7 active torsions:
REMARK  status: ('A' for Active; 'I' for Inactive)
REMARK    1  A    between atoms: C_2  and  C_3 
REMARK    2  A    between atoms: C_3  and  O_6 
REMARK    3  A    between atoms: C_3  and  C_4 
REMARK    4  A    between atoms: C_7  and  O_6 
REMARK    5  A    between atoms: C_9  and  C_10 
REMARK    6  A    between atoms: N_15  and  C_14 
REMARK    7  A    between atoms: N_20  and  C_19 
REMARK       I    between atoms: C_22  and  N_20 
ROOT
ATOM      1  C   LIG d   1       2.675  89.220 115.573  0.00  0.00     0.161 C 
ATOM      2  C   LIG d   1       1.596  89.557 116.407  0.00  0.00     0.016 C 
ATOM      3  C   LIG d   1       0.889  88.612 117.185  0.00  0.00     0.038 C 
ATOM      4  C   LIG d   1       1.312  87.279 117.298  0.00  0.00     0.028 C 
ATOM      5  C   LIG d   1       2.089  86.785 116.082  0.00  0.00    -0.047 C 
ATOM      6  C   LIG d   1       3.221  87.790 115.768  0.00  0.00     0.091 C 
ENDROOT
BRANCH   1   7
ATOM      7  O   LIG d   1       3.733  90.186 115.728  0.00  0.00    -0.368 OA
BRANCH   7   8
ATOM      8  C   LIG d   1       4.095  90.522 117.090  0.00  0.00     0.119 C 
BRANCH   8   9
ATOM      9  C   LIG d   1       3.867  92.035 117.269  0.00  0.00     0.028 C 
ATOM     10  C   LIG d   1       2.850  92.348 118.380  0.00  0.00     0.006 C 
ENDBRANCH   8   9
BRANCH   8  11
ATOM     11  C   LIG d   1       5.590  90.305 117.339  0.00  0.00     0.028 C 
ATOM     12  C   LIG d   1       6.308  89.668 116.139  0.00  0.00     0.006 C 
ENDBRANCH   8  11
ENDBRANCH   7   8
ENDBRANCH   1   7
BRANCH   6  13
ATOM     13  N   LIG d   1       3.978  87.426 114.542  0.00  0.00    -0.311 N 
ATOM     14  C   LIG d   1       3.422  87.343 113.335  0.00  0.00     0.210 C 
ATOM     15  C   LIG d   1       4.378  86.933 112.210  0.00  0.00     0.109 C 
ATOM     16  O   LIG d   1       2.236  87.602 113.083  0.00  0.00    -0.276 OA
ATOM     17  H   LIG d   1       4.954  87.230 114.650  0.00  0.00     0.149 HD
ENDBRANCH   6  13
BRANCH   5  18
ATOM     18  N   LIG d   1       2.587  85.431 116.391  0.00  0.00     0.381 N 
ATOM     19  H   LIG d   1       2.672  85.320 117.382  0.00  0.00    -0.090 HD
ATOM     20  H   LIG d   1       3.497  85.318 115.981  0.00  0.00    -0.090 HD
ATOM     21  H   LIG d   1       1.962  84.747 116.026  0.00  0.00    -0.090 HD
ENDBRANCH   5  18
BRANCH   3  22
ATOM     22  C   LIG d   1      -0.280  88.989 117.829  0.00  0.00     0.382 C 
ATOM     23  O   LIG d   1      -0.892  90.022 117.464  0.00  0.00    -0.241 OA
ATOM     24  O   LIG d   1      -0.706  88.334 118.799  0.00  0.00    -0.241 OA
ENDBRANCH   3  22
TORSDOF 7
ENDMDL
MODEL 9
REMARK VINA RESULT:      -3.7      2.823      5.346
REMARK  7 active torsions:
REMARK  status: ('A' for Active; 'I' for Inactive)
REMARK    1  A    between atoms: C_2  and  C_3 
REMARK    2  A    between atoms: C_3  and  O_6 
REMARK    3  A    between atoms: C_3  and  C_4 
REMARK    4  A    between atoms: C_7  and  O_6 
REMARK    5  A    between atoms: C_9  and  C_10 
REMARK    6  A    between atoms: N_15  and  C_14 
REMARK    7  A    between atoms: N_20  and  C_19 
REMARK       I    between atoms: C_22  and  N_20 
ROOT
ATOM      1  C   LIG d   1       3.821  87.109 116.119  0.00  0.00     0.161 C 
ATOM      2  C   LIG d   1       4.406  87.675 114.974  0.00  0.00     0.016 C 
ATOM      3  C   LIG d   1       4.224  89.024 114.594  0.00  0.00     0.038 C 
ATOM      4  C   LIG d   1       3.564  89.945 115.421  0.00  0.00     0.028 C 
ATOM      5  C   LIG d   1       2.529  89.303 116.338  0.00  0.00    -0.047 C 
ATOM      6  C   LIG d   1       3.189  88.126 117.092  0.00  0.00     0.091 C 
ENDROOT
BRANCH   1   7
ATOM      7  O   LIG d   1       4.788  86.290 116.807  0.00  0.00    -0.368 OA
BRANCH   7   8
ATOM      8  C   LIG d   1       5.639  86.974 117.760  0.00  0.00     0.119 C 
BRANCH   8   9
ATOM      9  C   LIG d   1       6.969  87.290 117.048  0.00  0.00     0.028 C 
ATOM     10  C   LIG d   1       7.286  88.795 117.039  0.00  0.00     0.006 C 
ENDBRANCH   8   9
BRANCH   8  11
ATOM     11  C   LIG d   1       6.012  86.059 118.930  0.00  0.00     0.028 C 
ATOM     12  C   LIG d   1       7.406  85.430 118.773  0.00  0.00     0.006 C 
ENDBRANCH   8  11
ENDBRANCH   7   8
ENDBRANCH   1   7
BRANCH   6  13
ATOM     13  N   LIG d   1       2.224  87.389 117.949  0.00  0.00    -0.311 N 
ATOM     14  C   LIG d   1       1.076  86.888 117.496  0.00  0.00     0.210 C 
ATOM     15  C   LIG d   1       0.218  86.181 118.550  0.00  0.00     0.109 C 
ATOM     16  O   LIG d   1       0.702  86.933 116.314  0.00  0.00    -0.276 OA
ATOM     17  H   LIG d   1       2.463  87.278 118.915  0.00  0.00     0.149 HD
ENDBRANCH   6  13
BRANCH   5  18
ATOM     18  N   LIG d   1       2.019  90.353 117.239  0.00  0.00     0.381 N 
ATOM     19  H   LIG d   1       1.887  91.203 116.728  0.00  0.00    -0.090 HD
ATOM     20  H   LIG d   1       2.697  90.521 117.961  0.00  0.00    -0.090 HD
ATOM     21  H   LIG d   1       1.156  90.064 117.645  0.00  0.00    -0.090 HD
ENDBRANCH   5  18
BRANCH   3  22
ATOM     22  C   LIG d   1       4.673  89.456 113.355  0.00  0.00     0.382 C 
ATOM     23  O   LIG d   1       3.925  90.149 112.624  0.00  0.00    -0.241 OA
ATOM     24  O   LIG d   1       5.799  89.123 112.939  0.00  0.00    -0.241 OA
ENDBRANCH   3  22
TORSDOF 7
ENDMDL
