MODEL 1
REMARK VINA RESULT:      -4.9      0.000      0.000
REMARK  7 active torsions:
REMARK  status: ('A' for Active; 'I' for Inactive)
REMARK    1  A    between atoms: C_2  and  C_3 
REMARK    2  A    between atoms: C_3  and  O_6 
REMARK    3  A    between atoms: C_3  and  C_4 
REMARK    4  A    between atoms: C_7  and  O_6 
REMARK    5  A    between atoms: C_9  and  C_10 
REMARK    6  A    between atoms: N_15  and  C_14 
REMARK    7  A    between atoms: N_20  and  C_19 
REMARK       I    between atoms: C_22  and  N_20 
ROOT
ATOM      1  C   LIG d   1       3.056  89.294 115.881  0.00  0.00     0.161 C 
ATOM      2  C   LIG d   1       3.056  88.848 114.548  0.00  0.00     0.016 C 
ATOM      3  C   LIG d   1       4.233  88.689 113.782  0.00  0.00     0.038 C 
ATOM      4  C   LIG d   1       5.510  88.820 114.347  0.00  0.00     0.028 C 
ATOM      5  C   LIG d   1       5.546  89.758 115.549  0.00  0.00    -0.047 C 
ATOM      6  C   LIG d   1       4.446  89.335 116.549  0.00  0.00     0.091 C 
ENDROOT
BRANCH   1   7
ATOM      7  O   LIG d   1       2.147  88.494 116.663  0.00  0.00    -0.368 OA
BRANCH   7   8
ATOM      8  C   LIG d   1       0.788  88.985 116.762  0.00  0.00     0.119 C 
BRANCH   8   9
ATOM      9  C   LIG d   1       0.744  89.992 117.928  0.00  0.00     0.028 C 
ATOM     10  C   LIG d   1       0.429  91.422 117.457  0.00  0.00     0.006 C 
ENDBRANCH   8   9
BRANCH   8  11
ATOM     11  C   LIG d   1      -0.182  87.867 117.155  0.00  0.00     0.028 C 
ATOM     12  C   LIG d   1      -1.596  88.384 117.459  0.00  0.00     0.006 C 
ENDBRANCH   8  11
ENDBRANCH   7   8
ENDBRANCH   1   7
BRANCH   6  13
ATOM     13  N   LIG d   1       4.357  90.253 117.715  0.00  0.00    -0.311 N 
ATOM     14  C   LIG d   1       4.133  91.561 117.604  0.00  0.00     0.210 C 
ATOM     15  C   LIG d   1       4.098  92.326 118.930  0.00  0.00     0.109 C 
ATOM     16  O   LIG d   1       3.927  92.154 116.534  0.00  0.00    -0.276 OA
ATOM     17  H   LIG d   1       4.481  89.849 118.623  0.00  0.00     0.149 HD
ENDBRANCH   6  13
BRANCH   5  18
ATOM     18  N   LIG d   1       6.904  89.695 116.123  0.00  0.00     0.381 N 
ATOM     19  H   LIG d   1       7.489  89.124 115.546  0.00  0.00    -0.090 HD
ATOM     20  H   LIG d   1       6.852  89.275 117.034  0.00  0.00    -0.090 HD
ATOM     21  H   LIG d   1       7.287  90.612 116.193  0.00  0.00    -0.090 HD
ENDBRANCH   5  18
BRANCH   3  22
ATOM     22  C   LIG d   1       4.138  88.432 112.422  0.00  0.00     0.382 C 
ATOM     23  O   LIG d   1       3.134  88.822 111.779  0.00  0.00    -0.241 OA
ATOM     24  O   LIG d   1       5.024  87.778 111.839  0.00  0.00    -0.241 OA
ENDBRANCH   3  22
TORSDOF 7
ENDMDL
MODEL 2
REMARK VINA RESULT:      -4.9      2.078      4.725
REMARK  7 active torsions:
REMARK  status: ('A' for Active; 'I' for Inactive)
REMARK    1  A    between atoms: C_2  and  C_3 
REMARK    2  A    between atoms: C_3  and  O_6 
REMARK    3  A    between atoms: C_3  and  C_4 
REMARK    4  A    between atoms: C_7  and  O_6 
REMARK    5  A    between atoms: C_9  and  C_10 
REMARK    6  A    between atoms: N_15  and  C_14 
REMARK    7  A    between atoms: N_20  and  C_19 
REMARK       I    between atoms: C_22  and  N_20 
ROOT
ATOM      1  C   LIG d   1       3.075  88.309 115.594  0.00  0.00     0.161 C 
ATOM      2  C   LIG d   1       3.315  89.200 116.653  0.00  0.00     0.016 C 
ATOM      3  C   LIG d   1       4.263  90.247 116.590  0.00  0.00     0.038 C 
ATOM      4  C   LIG d   1       4.933  90.570 115.401  0.00  0.00     0.028 C 
ATOM      5  C   LIG d   1       5.094  89.385 114.455  0.00  0.00    -0.047 C 
ATOM      6  C   LIG d   1       3.716  88.715 114.250  0.00  0.00     0.091 C 
ENDROOT
BRANCH   1   7
ATOM      7  O   LIG d   1       1.656  88.112 115.433  0.00  0.00    -0.368 OA
BRANCH   7   8
ATOM      8  C   LIG d   1       1.143  86.818 115.832  0.00  0.00     0.119 C 
BRANCH   8   9
ATOM      9  C   LIG d   1       0.243  87.036 117.064  0.00  0.00     0.028 C 
ATOM     10  C   LIG d   1      -0.232  88.494 117.191  0.00  0.00     0.006 C 
ENDBRANCH   8   9
BRANCH   8  11
ATOM     11  C   LIG d   1       2.269  85.896 116.312  0.00  0.00     0.028 C 
ATOM     12  C   LIG d   1       2.079  85.430 117.764  0.00  0.00     0.006 C 
ENDBRANCH   8  11
ENDBRANCH   7   8
ENDBRANCH   1   7
BRANCH   6  13
ATOM     13  N   LIG d   1       3.798  87.496 113.404  0.00  0.00    -0.311 N 
ATOM     14  C   LIG d   1       3.479  87.477 112.111  0.00  0.00     0.210 C 
ATOM     15  C   LIG d   1       3.617  86.112 111.431  0.00  0.00     0.109 C 
ATOM     16  O   LIG d   1       3.127  88.469 111.456  0.00  0.00    -0.276 OA
ATOM     17  H   LIG d   1       4.105  86.653 113.848  0.00  0.00     0.149 HD
ENDBRANCH   6  13
BRANCH   5  18
ATOM     18  N   LIG d   1       5.683  89.892 113.201  0.00  0.00     0.381 N 
ATOM     19  H   LIG d   1       5.426  89.295 112.440  0.00  0.00    -0.090 HD
ATOM     20  H   LIG d   1       6.684  89.882 113.285  0.00  0.00    -0.090 HD
ATOM     21  H   LIG d   1       5.366  90.820 113.026  0.00  0.00    -0.090 HD
ENDBRANCH   5  18
BRANCH   3  22
ATOM     22  C   LIG d   1       4.579  90.958 117.738  0.00  0.00     0.382 C 
ATOM     23  O   LIG d   1       4.946  92.154 117.653  0.00  0.00    -0.241 OA
ATOM     24  O   LIG d   1       4.544  90.405 118.853  0.00  0.00    -0.241 OA
ENDBRANCH   3  22
TORSDOF 7
ENDMDL
MODEL 3
REMARK VINA RESULT:      -4.9      1.872      2.666
REMARK  7 active torsions:
REMARK  status: ('A' for Active; 'I' for Inactive)
REMARK    1  A    between atoms: C_2  and  C_3 
REMARK    2  A    between atoms: C_3  and  O_6 
REMARK    3  A    between atoms: C_3  and  C_4 
REMARK    4  A    between atoms: C_7  and  O_6 
REMARK    5  A    between atoms: C_9  and  C_10 
REMARK    6  A    between atoms: N_15  and  C_14 
REMARK    7  A    between atoms: N_20  and  C_19 
REMARK       I    between atoms: C_22  and  N_20 
ROOT
ATOM      1  C   LIG d   1       2.900  88.067 115.101  0.00  0.00     0.161 C 
ATOM      2  C   LIG d   1       2.791  87.057 114.131  0.00  0.00     0.016 C 
ATOM      3  C   LIG d   1       3.532  87.051 112.927  0.00  0.00     0.038 C 
ATOM      4  C   LIG d   1       4.551  87.983 112.679  0.00  0.00     0.028 C 
ATOM      5  C   LIG d   1       4.346  89.311 113.401  0.00  0.00    -0.047 C 
ATOM      6  C   LIG d   1       4.087  89.032 114.899  0.00  0.00     0.091 C 
ENDROOT
BRANCH   1   7
ATOM      7  O   LIG d   1       2.952  87.478 116.416  0.00  0.00    -0.368 OA
BRANCH   7   8
ATOM      8  C   LIG d   1       1.736  87.563 117.200  0.00  0.00     0.119 C 
BRANCH   8   9
ATOM      9  C   LIG d   1       0.981  86.230 117.029  0.00  0.00     0.028 C 
ATOM     10  C   LIG d   1       0.116  85.884 118.252  0.00  0.00     0.006 C 
ENDBRANCH   8   9
BRANCH   8  11
ATOM     11  C   LIG d   1       0.792  88.637 116.651  0.00  0.00     0.028 C 
ATOM     12  C   LIG d   1       0.705  89.873 117.560  0.00  0.00     0.006 C 
ENDBRANCH   8  11
ENDBRANCH   7   8
ENDBRANCH   1   7
BRANCH   6  13
ATOM     13  N   LIG d   1       3.793  90.273 115.663  0.00  0.00    -0.311 N 
ATOM     14  C   LIG d   1       4.724  90.978 116.302  0.00  0.00     0.210 C 
ATOM     15  C   LIG d   1       4.204  92.213 117.045  0.00  0.00     0.109 C 
ATOM     16  O   LIG d   1       5.937  90.717 116.298  0.00  0.00    -0.276 OA
ATOM     17  H   LIG d   1       2.839  90.575 115.693  0.00  0.00     0.149 HD
ENDBRANCH   6  13
BRANCH   5  18
ATOM     18  N   LIG d   1       5.546  90.136 113.165  0.00  0.00     0.381 N 
ATOM     19  H   LIG d   1       5.656  90.301 112.185  0.00  0.00    -0.090 HD
ATOM     20  H   LIG d   1       6.354  89.636 113.493  0.00  0.00    -0.090 HD
ATOM     21  H   LIG d   1       5.464  91.003 113.649  0.00  0.00    -0.090 HD
ENDBRANCH   5  18
BRANCH   3  22
ATOM     22  C   LIG d   1       3.228  86.128 111.938  0.00  0.00     0.382 C 
ATOM     23  O   LIG d   1       4.140  85.431 111.430  0.00  0.00    -0.241 OA
ATOM     24  O   LIG d   1       2.062  86.015 111.516  0.00  0.00    -0.241 OA
ENDBRANCH   3  22
TORSDOF 7
ENDMDL
MODEL 4
REMARK VINA RESULT:      -4.7      2.867      5.348
REMARK  7 active torsions:
REMARK  status: ('A' for Active; 'I' for Inactive)
REMARK    1  A    between atoms: C_2  and  C_3 
REMARK    2  A    between atoms: C_3  and  O_6 
REMARK    3  A    between atoms: C_3  and  C_4 
REMARK    4  A    between atoms: C_7  and  O_6 
REMARK    5  A    between atoms: C_9  and  C_10 
REMARK    6  A    between atoms: N_15  and  C_14 
REMARK    7  A    between atoms: N_20  and  C_19 
REMARK       I    between atoms: C_22  and  N_20 
ROOT
ATOM      1  C   LIG d   1       4.996  87.986 116.418  0.00  0.00     0.161 C 
ATOM      2  C   LIG d   1       4.108  89.069 116.311  0.00  0.00     0.016 C 
ATOM      3  C   LIG d   1       4.502  90.417 116.479  0.00  0.00     0.038 C 
ATOM      4  C   LIG d   1       5.848  90.784 116.616  0.00  0.00     0.028 C 
ATOM      5  C   LIG d   1       6.715  89.691 117.233  0.00  0.00    -0.047 C 
ATOM      6  C   LIG d   1       6.489  88.374 116.457  0.00  0.00     0.091 C 
ENDROOT
BRANCH   1   7
ATOM      7  O   LIG d   1       4.750  87.046 115.353  0.00  0.00    -0.368 OA
BRANCH   7   8
ATOM      8  C   LIG d   1       4.041  87.561 114.199  0.00  0.00     0.119 C 
BRANCH   8   9
ATOM      9  C   LIG d   1       3.126  86.436 113.678  0.00  0.00     0.028 C 
ATOM     10  C   LIG d   1       3.584  85.892 112.314  0.00  0.00     0.006 C 
ENDBRANCH   8   9
BRANCH   8  11
ATOM     11  C   LIG d   1       5.001  87.870 113.047  0.00  0.00     0.028 C 
ATOM     12  C   LIG d   1       5.336  89.366 112.935  0.00  0.00     0.006 C 
ENDBRANCH   8  11
ENDBRANCH   7   8
ENDBRANCH   1   7
BRANCH   6  13
ATOM     13  N   LIG d   1       7.235  87.233 117.048  0.00  0.00    -0.311 N 
ATOM     14  C   LIG d   1       8.497  86.942 116.737  0.00  0.00     0.210 C 
ATOM     15  C   LIG d   1       9.071  85.712 117.446  0.00  0.00     0.109 C 
ATOM     16  O   LIG d   1       9.206  87.606 115.966  0.00  0.00    -0.276 OA
ATOM     17  H   LIG d   1       6.745  86.660 117.707  0.00  0.00     0.149 HD
ENDBRANCH   6  13
BRANCH   5  18
ATOM     18  N   LIG d   1       8.115  90.155 117.190  0.00  0.00     0.381 N 
ATOM     19  H   LIG d   1       8.238  90.919 117.823  0.00  0.00    -0.090 HD
ATOM     20  H   LIG d   1       8.322  90.478 116.261  0.00  0.00    -0.090 HD
ATOM     21  H   LIG d   1       8.728  89.409 117.434  0.00  0.00    -0.090 HD
ENDBRANCH   5  18
BRANCH   3  22
ATOM     22  C   LIG d   1       3.537  91.410 116.550  0.00  0.00     0.382 C 
ATOM     23  O   LIG d   1       3.882  92.613 116.641  0.00  0.00    -0.241 OA
ATOM     24  O   LIG d   1       2.327  91.116 116.568  0.00  0.00    -0.241 OA
ENDBRANCH   3  22
TORSDOF 7
ENDMDL
MODEL 5
REMARK VINA RESULT:      -4.5      2.464      5.508
REMARK  7 active torsions:
REMARK  status: ('A' for Active; 'I' for Inactive)
REMARK    1  A    between atoms: C_2  and  C_3 
REMARK    2  A    between atoms: C_3  and  O_6 
REMARK    3  A    between atoms: C_3  and  C_4 
REMARK    4  A    between atoms: C_7  and  O_6 
REMARK    5  A    between atoms: C_9  and  C_10 
REMARK    6  A    between atoms: N_15  and  C_14 
REMARK    7  A    between atoms: N_20  and  C_19 
REMARK       I    between atoms: C_22  and  N_20 
ROOT
ATOM      1  C   LIG d   1       1.547  87.997 116.200  0.00  0.00     0.161 C 
ATOM      2  C   LIG d   1       0.246  87.775 116.679  0.00  0.00     0.016 C 
ATOM      3  C   LIG d   1      -0.561  88.791 117.240  0.00  0.00     0.038 C 
ATOM      4  C   LIG d   1      -0.175  90.140 117.221  0.00  0.00     0.028 C 
ATOM      5  C   LIG d   1       1.337  90.337 117.206  0.00  0.00    -0.047 C 
ATOM      6  C   LIG d   1       1.943  89.483 116.069  0.00  0.00     0.091 C 
ENDROOT
BRANCH   1   7
ATOM      7  O   LIG d   1       1.727  87.318 114.941  0.00  0.00    -0.368 OA
BRANCH   7   8
ATOM      8  C   LIG d   1       2.587  86.153 114.963  0.00  0.00     0.119 C 
BRANCH   8   9
ATOM      9  C   LIG d   1       3.241  86.086 116.357  0.00  0.00     0.028 C 
ATOM     10  C   LIG d   1       4.777  86.069 116.284  0.00  0.00     0.006 C 
ENDBRANCH   8   9
BRANCH   8  11
ATOM     11  C   LIG d   1       3.749  86.299 113.976  0.00  0.00     0.028 C 
ATOM     12  C   LIG d   1       3.306  86.168 112.510  0.00  0.00     0.006 C 
ENDBRANCH   8  11
ENDBRANCH   7   8
ENDBRANCH   1   7
BRANCH   6  13
ATOM     13  N   LIG d   1       3.427  89.552 116.037  0.00  0.00    -0.311 N 
ATOM     14  C   LIG d   1       4.128  89.765 114.925  0.00  0.00     0.210 C 
ATOM     15  C   LIG d   1       5.648  89.779 115.111  0.00  0.00     0.109 C 
ATOM     16  O   LIG d   1       3.634  89.975 113.807  0.00  0.00    -0.276 OA
ATOM     17  H   LIG d   1       3.908  89.424 116.906  0.00  0.00     0.149 HD
ENDBRANCH   6  13
BRANCH   5  18
ATOM     18  N   LIG d   1       1.597  91.780 117.047  0.00  0.00     0.381 N 
ATOM     19  H   LIG d   1       2.202  91.931 116.266  0.00  0.00    -0.090 HD
ATOM     20  H   LIG d   1       2.057  92.120 117.873  0.00  0.00    -0.090 HD
ATOM     21  H   LIG d   1       0.739  92.268 116.911  0.00  0.00    -0.090 HD
ENDBRANCH   5  18
BRANCH   3  22
ATOM     22  C   LIG d   1      -1.753  88.456 117.864  0.00  0.00     0.382 C 
ATOM     23  O   LIG d   1      -2.838  88.916 117.433  0.00  0.00    -0.241 OA
ATOM     24  O   LIG d   1      -1.753  87.735 118.880  0.00  0.00    -0.241 OA
ENDBRANCH   3  22
TORSDOF 7
ENDMDL
MODEL 6
REMARK VINA RESULT:      -4.5      2.398      3.873
REMARK  7 active torsions:
REMARK  status: ('A' for Active; 'I' for Inactive)
REMARK    1  A    between atoms: C_2  and  C_3 
REMARK    2  A    between atoms: C_3  and  O_6 
REMARK    3  A    between atoms: C_3  and  C_4 
REMARK    4  A    between atoms: C_7  and  O_6 
REMARK    5  A    between atoms: C_9  and  C_10 
REMARK    6  A    between atoms: N_15  and  C_14 
REMARK    7  A    between atoms: N_20  and  C_19 
REMARK       I    between atoms: C_22  and  N_20 
ROOT
ATOM      1  C   LIG d   1       3.306  88.469 116.447  0.00  0.00     0.161 C 
ATOM      2  C   LIG d   1       4.009  89.126 115.423  0.00  0.00     0.016 C 
ATOM      3  C   LIG d   1       3.993  88.703 114.073  0.00  0.00     0.038 C 
ATOM      4  C   LIG d   1       3.146  87.678 113.628  0.00  0.00     0.028 C 
ATOM      5  C   LIG d   1       2.801  86.662 114.712  0.00  0.00    -0.047 C 
ATOM      6  C   LIG d   1       2.289  87.416 115.961  0.00  0.00     0.091 C 
ENDROOT
BRANCH   1   7
ATOM      7  O   LIG d   1       2.658  89.439 117.293  0.00  0.00    -0.368 OA
BRANCH   7   8
ATOM      8  C   LIG d   1       2.040  90.562 116.619  0.00  0.00     0.119 C 
BRANCH   8   9
ATOM      9  C   LIG d   1       2.393  91.833 117.417  0.00  0.00     0.028 C 
ATOM     10  C   LIG d   1       3.776  92.394 117.046  0.00  0.00     0.006 C 
ENDBRANCH   8   9
BRANCH   8  11
ATOM     11  C   LIG d   1       0.512  90.467 116.662  0.00  0.00     0.028 C 
ATOM     12  C   LIG d   1      -0.048  90.536 118.092  0.00  0.00     0.006 C 
ENDBRANCH   8  11
ENDBRANCH   7   8
ENDBRANCH   1   7
BRANCH   6  13
ATOM     13  N   LIG d   1       2.009  86.502 117.099  0.00  0.00    -0.311 N 
ATOM     14  C   LIG d   1       0.823  86.422 117.700  0.00  0.00     0.210 C 
ATOM     15  C   LIG d   1       0.755  85.430 118.866  0.00  0.00     0.109 C 
ATOM     16  O   LIG d   1      -0.187  87.053 117.357  0.00  0.00    -0.276 OA
ATOM     17  H   LIG d   1       2.765  85.930 117.421  0.00  0.00     0.149 HD
ENDBRANCH   6  13
BRANCH   5  18
ATOM     18  N   LIG d   1       1.806  85.730 114.150  0.00  0.00     0.381 N 
ATOM     19  H   LIG d   1       2.015  85.550 113.189  0.00  0.00    -0.090 HD
ATOM     20  H   LIG d   1       0.897  86.157 114.200  0.00  0.00    -0.090 HD
ATOM     21  H   LIG d   1       1.809  84.877 114.664  0.00  0.00    -0.090 HD
ENDBRANCH   5  18
BRANCH   3  22
ATOM     22  C   LIG d   1       4.861  89.284 113.161  0.00  0.00     0.382 C 
ATOM     23  O   LIG d   1       6.012  88.812 113.004  0.00  0.00    -0.241 OA
ATOM     24  O   LIG d   1       4.522  90.300 112.525  0.00  0.00    -0.241 OA
ENDBRANCH   3  22
TORSDOF 7
ENDMDL
MODEL 7
REMARK VINA RESULT:      -4.4      2.503      5.387
REMARK  7 active torsions:
REMARK  status: ('A' for Active; 'I' for Inactive)
REMARK    1  A    between atoms: C_2  and  C_3 
REMARK    2  A    between atoms: C_3  and  O_6 
REMARK    3  A    between atoms: C_3  and  C_4 
REMARK    4  A    between atoms: C_7  and  O_6 
REMARK    5  A    between atoms: C_9  and  C_10 
REMARK    6  A    between atoms: N_15  and  C_14 
REMARK    7  A    between atoms: N_20  and  C_19 
REMARK       I    between atoms: C_22  and  N_20 
ROOT
ATOM      1  C   LIG d   1       1.037  89.112 116.879  0.00  0.00     0.161 C 
ATOM      2  C   LIG d   1      -0.357  88.986 116.998  0.00  0.00     0.016 C 
ATOM      3  C   LIG d   1      -1.191  90.010 117.502  0.00  0.00     0.038 C 
ATOM      4  C   LIG d   1      -0.701  91.294 117.782  0.00  0.00     0.028 C 
ATOM      5  C   LIG d   1       0.777  91.310 118.155  0.00  0.00    -0.047 C 
ATOM      6  C   LIG d   1       1.576  90.545 117.076  0.00  0.00     0.091 C 
ENDROOT
BRANCH   1   7
ATOM      7  O   LIG d   1       1.469  88.584 115.609  0.00  0.00    -0.368 OA
BRANCH   7   8
ATOM      8  C   LIG d   1       2.243  87.360 115.658  0.00  0.00     0.119 C 
BRANCH   8   9
ATOM      9  C   LIG d   1       3.389  87.496 114.637  0.00  0.00     0.028 C 
ATOM     10  C   LIG d   1       3.580  88.945 114.158  0.00  0.00     0.006 C 
ENDBRANCH   8   9
BRANCH   8  11
ATOM     11  C   LIG d   1       1.417  86.161 115.182  0.00  0.00     0.028 C 
ATOM     12  C   LIG d   1       1.989  85.509 113.913  0.00  0.00     0.006 C 
ENDBRANCH   8  11
ENDBRANCH   7   8
ENDBRANCH   1   7
BRANCH   6  13
ATOM     13  N   LIG d   1       3.021  90.441 117.406  0.00  0.00    -0.311 N 
ATOM     14  C   LIG d   1       3.924  91.347 117.038  0.00  0.00     0.210 C 
ATOM     15  C   LIG d   1       5.363  91.038 117.465  0.00  0.00     0.109 C 
ATOM     16  O   LIG d   1       3.667  92.395 116.426  0.00  0.00    -0.276 OA
ATOM     17  H   LIG d   1       3.313  89.637 117.928  0.00  0.00     0.149 HD
ENDBRANCH   6  13
BRANCH   5  18
ATOM     18  N   LIG d   1       1.188  92.721 118.287  0.00  0.00     0.381 N 
ATOM     19  H   LIG d   1       0.405  93.319 118.115  0.00  0.00    -0.090 HD
ATOM     20  H   LIG d   1       1.893  92.920 117.599  0.00  0.00    -0.090 HD
ATOM     21  H   LIG d   1       1.549  92.887 119.200  0.00  0.00    -0.090 HD
ENDBRANCH   5  18
BRANCH   3  22
ATOM     22  C   LIG d   1      -2.525  89.741 117.768  0.00  0.00     0.382 C 
ATOM     23  O   LIG d   1      -3.423  90.435 117.234  0.00  0.00    -0.241 OA
ATOM     24  O   LIG d   1      -2.840  88.841 118.570  0.00  0.00    -0.241 OA
ENDBRANCH   3  22
TORSDOF 7
ENDMDL
MODEL 8
REMARK VINA RESULT:      -4.4      2.307      5.786
REMARK  7 active torsions:
REMARK  status: ('A' for Active; 'I' for Inactive)
REMARK    1  A    between atoms: C_2  and  C_3 
REMARK    2  A    between atoms: C_3  and  O_6 
REMARK    3  A    between atoms: C_3  and  C_4 
REMARK    4  A    between atoms: C_7  and  O_6 
REMARK    5  A    between atoms: C_9  and  C_10 
REMARK    6  A    between atoms: N_15  and  C_14 
REMARK    7  A    between atoms: N_20  and  C_19 
REMARK       I    between atoms: C_22  and  N_20 
ROOT
ATOM      1  C   LIG d   1       4.424  90.075 115.340  0.00  0.00     0.161 C 
ATOM      2  C   LIG d   1       3.741  90.998 116.148  0.00  0.00     0.016 C 
ATOM      3  C   LIG d   1       2.496  90.725 116.761  0.00  0.00     0.038 C 
ATOM      4  C   LIG d   1       1.919  89.447 116.729  0.00  0.00     0.028 C 
ATOM      5  C   LIG d   1       2.323  88.630 115.507  0.00  0.00    -0.047 C 
ATOM      6  C   LIG d   1       3.864  88.638 115.385  0.00  0.00     0.091 C 
ENDROOT
BRANCH   1   7
ATOM      7  O   LIG d   1       5.826  90.076 115.674  0.00  0.00    -0.368 OA
BRANCH   7   8
ATOM      8  C   LIG d   1       6.145  90.052 117.087  0.00  0.00     0.119 C 
BRANCH   8   9
ATOM      9  C   LIG d   1       7.187  91.156 117.346  0.00  0.00     0.028 C 
ATOM     10  C   LIG d   1       6.656  92.259 118.277  0.00  0.00     0.006 C 
ENDBRANCH   8   9
BRANCH   8  11
ATOM     11  C   LIG d   1       6.835  88.742 117.480  0.00  0.00     0.028 C 
ATOM     12  C   LIG d   1       7.608  88.104 116.315  0.00  0.00     0.006 C 
ENDBRANCH   8  11
ENDBRANCH   7   8
ENDBRANCH   1   7
BRANCH   6  13
ATOM     13  N   LIG d   1       4.339  87.931 114.167  0.00  0.00    -0.311 N 
ATOM     14  C   LIG d   1       3.959  88.259 112.934  0.00  0.00     0.210 C 
ATOM     15  C   LIG d   1       4.553  87.389 111.821  0.00  0.00     0.109 C 
ATOM     16  O   LIG d   1       3.212  89.208 112.653  0.00  0.00    -0.276 OA
ATOM     17  H   LIG d   1       4.973  87.167 114.301  0.00  0.00     0.149 HD
ENDBRANCH   6  13
BRANCH   5  18
ATOM     18  N   LIG d   1       1.762  87.276 115.671  0.00  0.00     0.381 N 
ATOM     19  H   LIG d   1       1.644  86.847 114.775  0.00  0.00    -0.090 HD
ATOM     20  H   LIG d   1       0.860  87.348 116.108  0.00  0.00    -0.090 HD
ATOM     21  H   LIG d   1       2.369  86.722 116.234  0.00  0.00    -0.090 HD
ENDBRANCH   5  18
BRANCH   3  22
ATOM     22  C   LIG d   1       1.796  91.749 117.381  0.00  0.00     0.382 C 
ATOM     23  O   LIG d   1       2.414  92.728 117.865  0.00  0.00    -0.241 OA
ATOM     24  O   LIG d   1       0.558  91.685 117.502  0.00  0.00    -0.241 OA
ENDBRANCH   3  22
TORSDOF 7
ENDMDL
MODEL 9
REMARK VINA RESULT:      -4.2      2.090      5.085
REMARK  7 active torsions:
REMARK  status: ('A' for Active; 'I' for Inactive)
REMARK    1  A    between atoms: C_2  and  C_3 
REMARK    2  A    between atoms: C_3  and  O_6 
REMARK    3  A    between atoms: C_3  and  C_4 
REMARK    4  A    between atoms: C_7  and  O_6 
REMARK    5  A    between atoms: C_9  and  C_10 
REMARK    6  A    between atoms: N_15  and  C_14 
REMARK    7  A    between atoms: N_20  and  C_19 
REMARK       I    between atoms: C_22  and  N_20 
ROOT
ATOM      1  C   LIG d   1       3.138  89.318 115.390  0.00  0.00     0.161 C 
ATOM      2  C   LIG d   1       1.799  89.530 115.759  0.00  0.00     0.016 C 
ATOM      3  C   LIG d   1       1.381  90.589 116.597  0.00  0.00     0.038 C 
ATOM      4  C   LIG d   1       2.260  91.604 117.004  0.00  0.00     0.028 C 
ATOM      5  C   LIG d   1       3.715  91.153 117.072  0.00  0.00    -0.047 C 
ATOM      6  C   LIG d   1       4.095  90.479 115.733  0.00  0.00     0.091 C 
ENDROOT
BRANCH   1   7
ATOM      7  O   LIG d   1       3.214  89.005 113.985  0.00  0.00    -0.368 OA
BRANCH   7   8
ATOM      8  C   LIG d   1       4.046  87.874 113.629  0.00  0.00     0.119 C 
BRANCH   8   9
ATOM      9  C   LIG d   1       4.226  87.895 112.098  0.00  0.00     0.028 C 
ATOM     10  C   LIG d   1       3.726  86.604 111.430  0.00  0.00     0.006 C 
ENDBRANCH   8   9
BRANCH   8  11
ATOM     11  C   LIG d   1       3.344  86.547 113.935  0.00  0.00     0.028 C 
ATOM     12  C   LIG d   1       4.091  85.706 114.982  0.00  0.00     0.006 C 
ENDBRANCH   8  11
ENDBRANCH   7   8
ENDBRANCH   1   7
BRANCH   6  13
ATOM     13  N   LIG d   1       5.477  89.934 115.746  0.00  0.00    -0.311 N 
ATOM     14  C   LIG d   1       5.866  88.940 116.542  0.00  0.00     0.210 C 
ATOM     15  C   LIG d   1       7.340  88.544 116.409  0.00  0.00     0.109 C 
ATOM     16  O   LIG d   1       5.123  88.327 117.323  0.00  0.00    -0.276 OA
ATOM     17  H   LIG d   1       6.138  90.352 115.120  0.00  0.00     0.149 HD
ENDBRANCH   6  13
BRANCH   5  18
ATOM     18  N   LIG d   1       4.536  92.341 117.373  0.00  0.00     0.381 N 
ATOM     19  H   LIG d   1       4.588  92.474 118.364  0.00  0.00    -0.090 HD
ATOM     20  H   LIG d   1       4.098  93.150 116.969  0.00  0.00    -0.090 HD
ATOM     21  H   LIG d   1       5.452  92.228 116.998  0.00  0.00    -0.090 HD
ENDBRANCH   5  18
BRANCH   3  22
ATOM     22  C   LIG d   1       0.078  90.618 117.069  0.00  0.00     0.382 C 
ATOM     23  O   LIG d   1      -0.418  91.697 117.476  0.00  0.00    -0.241 OA
ATOM     24  O   LIG d   1      -0.593  89.571 117.136  0.00  0.00    -0.241 OA
ENDBRANCH   3  22
TORSDOF 7
ENDMDL
