MODEL 1
REMARK VINA RESULT:      -5.0      0.000      0.000
REMARK  7 active torsions:
REMARK  status: ('A' for Active; 'I' for Inactive)
REMARK    1  A    between atoms: C_2  and  C_3 
REMARK    2  A    between atoms: C_3  and  O_6 
REMARK    3  A    between atoms: C_3  and  C_4 
REMARK    4  A    between atoms: C_7  and  O_6 
REMARK    5  A    between atoms: C_9  and  C_10 
REMARK    6  A    between atoms: N_15  and  C_14 
REMARK    7  A    between atoms: N_20  and  C_19 
REMARK       I    between atoms: C_22  and  N_20 
ROOT
ATOM      1  C   LIG d   1       3.537  89.147 115.521  0.00  0.00     0.161 C 
ATOM      2  C   LIG d   1       2.314  89.640 116.007  0.00  0.00     0.016 C 
ATOM      3  C   LIG d   1       2.218  90.623 117.018  0.00  0.00     0.038 C 
ATOM      4  C   LIG d   1       3.348  91.295 117.509  0.00  0.00     0.028 C 
ATOM      5  C   LIG d   1       4.630  90.475 117.411  0.00  0.00    -0.047 C 
ATOM      6  C   LIG d   1       4.779  89.948 115.965  0.00  0.00     0.091 C 
ENDROOT
BRANCH   1   7
ATOM      7  O   LIG d   1       3.489  89.053 114.084  0.00  0.00    -0.368 OA
BRANCH   7   8
ATOM      8  C   LIG d   1       3.113  87.764 113.541  0.00  0.00     0.119 C 
BRANCH   8   9
ATOM      9  C   LIG d   1       4.402  86.935 113.381  0.00  0.00     0.028 C 
ATOM     10  C   LIG d   1       5.487  87.685 112.590  0.00  0.00     0.006 C 
ENDBRANCH   8   9
BRANCH   8  11
ATOM     11  C   LIG d   1       2.540  87.899 112.127  0.00  0.00     0.028 C 
ATOM     12  C   LIG d   1       1.923  86.592 111.606  0.00  0.00     0.006 C 
ENDBRANCH   8  11
ENDBRANCH   7   8
ENDBRANCH   1   7
BRANCH   6  13
ATOM     13  N   LIG d   1       5.964  89.066 115.803  0.00  0.00    -0.311 N 
ATOM     14  C   LIG d   1       6.116  87.914 116.455  0.00  0.00     0.210 C 
ATOM     15  C   LIG d   1       7.421  87.169 116.157  0.00  0.00     0.109 C 
ATOM     16  O   LIG d   1       5.279  87.423 117.227  0.00  0.00    -0.276 OA
ATOM     17  H   LIG d   1       6.678  89.372 115.171  0.00  0.00     0.149 HD
ENDBRANCH   6  13
BRANCH   5  18
ATOM     18  N   LIG d   1       5.747  91.343 117.827  0.00  0.00     0.381 N 
ATOM     19  H   LIG d   1       5.391  92.151 118.299  0.00  0.00    -0.090 HD
ATOM     20  H   LIG d   1       6.244  91.649 117.009  0.00  0.00    -0.090 HD
ATOM     21  H   LIG d   1       6.363  90.842 118.430  0.00  0.00    -0.090 HD
ENDBRANCH   5  18
BRANCH   3  22
ATOM     22  C   LIG d   1       0.984  90.915 117.578  0.00  0.00     0.382 C 
ATOM     23  O   LIG d   1       0.873  91.040 118.821  0.00  0.00    -0.241 OA
ATOM     24  O   LIG d   1      -0.029  91.011 116.859  0.00  0.00    -0.241 OA
ENDBRANCH   3  22
TORSDOF 7
ENDMDL
MODEL 2
REMARK VINA RESULT:      -4.9      1.807      2.485
REMARK  7 active torsions:
REMARK  status: ('A' for Active; 'I' for Inactive)
REMARK    1  A    between atoms: C_2  and  C_3 
REMARK    2  A    between atoms: C_3  and  O_6 
REMARK    3  A    between atoms: C_3  and  C_4 
REMARK    4  A    between atoms: C_7  and  O_6 
REMARK    5  A    between atoms: C_9  and  C_10 
REMARK    6  A    between atoms: N_15  and  C_14 
REMARK    7  A    between atoms: N_20  and  C_19 
REMARK       I    between atoms: C_22  and  N_20 
ROOT
ATOM      1  C   LIG d   1       4.357  88.117 116.933  0.00  0.00     0.161 C 
ATOM      2  C   LIG d   1       3.352  89.098 116.932  0.00  0.00     0.016 C 
ATOM      3  C   LIG d   1       3.619  90.486 116.974  0.00  0.00     0.038 C 
ATOM      4  C   LIG d   1       4.922  90.993 116.867  0.00  0.00     0.028 C 
ATOM      5  C   LIG d   1       5.991  90.031 117.374  0.00  0.00    -0.047 C 
ATOM      6  C   LIG d   1       5.785  88.653 116.703  0.00  0.00     0.091 C 
ENDROOT
BRANCH   1   7
ATOM      7  O   LIG d   1       4.043  87.096 115.965  0.00  0.00    -0.368 OA
BRANCH   7   8
ATOM      8  C   LIG d   1       3.282  87.525 114.809  0.00  0.00     0.119 C 
BRANCH   8   9
ATOM      9  C   LIG d   1       2.290  86.398 114.463  0.00  0.00     0.028 C 
ATOM     10  C   LIG d   1       1.336  86.079 115.626  0.00  0.00     0.006 C 
ENDBRANCH   8   9
BRANCH   8  11
ATOM     11  C   LIG d   1       4.178  87.671 113.575  0.00  0.00     0.028 C 
ATOM     12  C   LIG d   1       4.574  89.129 113.294  0.00  0.00     0.006 C 
ENDBRANCH   8  11
ENDBRANCH   7   8
ENDBRANCH   1   7
BRANCH   6  13
ATOM     13  N   LIG d   1       6.737  87.629 117.207  0.00  0.00    -0.311 N 
ATOM     14  C   LIG d   1       7.569  86.951 116.419  0.00  0.00     0.210 C 
ATOM     15  C   LIG d   1       8.452  85.927 117.140  0.00  0.00     0.109 C 
ATOM     16  O   LIG d   1       7.682  87.122 115.196  0.00  0.00    -0.276 OA
ATOM     17  H   LIG d   1       6.733  87.449 118.192  0.00  0.00     0.149 HD
ENDBRANCH   6  13
BRANCH   5  18
ATOM     18  N   LIG d   1       7.306  90.628 117.076  0.00  0.00     0.381 N 
ATOM     19  H   LIG d   1       7.656  91.099 117.887  0.00  0.00    -0.090 HD
ATOM     20  H   LIG d   1       7.197  91.304 116.341  0.00  0.00    -0.090 HD
ATOM     21  H   LIG d   1       7.947  89.919 116.793  0.00  0.00    -0.090 HD
ENDBRANCH   5  18
BRANCH   3  22
ATOM     22  C   LIG d   1       2.578  91.381 117.165  0.00  0.00     0.382 C 
ATOM     23  O   LIG d   1       1.389  90.994 117.055  0.00  0.00    -0.241 OA
ATOM     24  O   LIG d   1       2.812  92.581 117.403  0.00  0.00    -0.241 OA
ENDBRANCH   3  22
TORSDOF 7
ENDMDL
MODEL 3
REMARK VINA RESULT:      -4.7      2.774      5.876
REMARK  7 active torsions:
REMARK  status: ('A' for Active; 'I' for Inactive)
REMARK    1  A    between atoms: C_2  and  C_3 
REMARK    2  A    between atoms: C_3  and  O_6 
REMARK    3  A    between atoms: C_3  and  C_4 
REMARK    4  A    between atoms: C_7  and  O_6 
REMARK    5  A    between atoms: C_9  and  C_10 
REMARK    6  A    between atoms: N_15  and  C_14 
REMARK    7  A    between atoms: N_20  and  C_19 
REMARK       I    between atoms: C_22  and  N_20 
ROOT
ATOM      1  C   LIG d   1       4.275  86.096 115.425  0.00  0.00     0.161 C 
ATOM      2  C   LIG d   1       5.377  86.065 116.296  0.00  0.00     0.016 C 
ATOM      3  C   LIG d   1       6.603  86.714 116.023  0.00  0.00     0.038 C 
ATOM      4  C   LIG d   1       6.760  87.569 114.923  0.00  0.00     0.028 C 
ATOM      5  C   LIG d   1       5.842  87.228 113.754  0.00  0.00    -0.047 C 
ATOM      6  C   LIG d   1       4.390  87.115 114.272  0.00  0.00     0.091 C 
ENDROOT
BRANCH   1   7
ATOM      7  O   LIG d   1       3.065  86.322 116.175  0.00  0.00    -0.368 OA
BRANCH   7   8
ATOM      8  C   LIG d   1       3.094  87.427 117.112  0.00  0.00     0.119 C 
BRANCH   8   9
ATOM      9  C   LIG d   1       2.528  86.913 118.451  0.00  0.00     0.028 C 
ATOM     10  C   LIG d   1       1.993  85.475 118.348  0.00  0.00     0.006 C 
ENDBRANCH   8   9
BRANCH   8  11
ATOM     11  C   LIG d   1       2.149  88.551 116.678  0.00  0.00     0.028 C 
ATOM     12  C   LIG d   1       2.886  89.727 116.019  0.00  0.00     0.006 C 
ENDBRANCH   8  11
ENDBRANCH   7   8
ENDBRANCH   1   7
BRANCH   6  13
ATOM     13  N   LIG d   1       3.439  86.701 113.209  0.00  0.00    -0.311 N 
ATOM     14  C   LIG d   1       2.761  87.565 112.455  0.00  0.00     0.210 C 
ATOM     15  C   LIG d   1       1.818  86.927 111.430  0.00  0.00     0.109 C 
ATOM     16  O   LIG d   1       2.875  88.798 112.516  0.00  0.00    -0.276 OA
ATOM     17  H   LIG d   1       3.309  85.718 113.070  0.00  0.00     0.149 HD
ENDBRANCH   6  13
BRANCH   5  18
ATOM     18  N   LIG d   1       6.012  88.278 112.732  0.00  0.00     0.381 N 
ATOM     19  H   LIG d   1       6.845  88.107 112.206  0.00  0.00    -0.090 HD
ATOM     20  H   LIG d   1       6.105  89.167 113.192  0.00  0.00    -0.090 HD
ATOM     21  H   LIG d   1       5.223  88.292 112.124  0.00  0.00    -0.090 HD
ENDBRANCH   5  18
BRANCH   3  22
ATOM     22  C   LIG d   1       7.701  86.477 116.836  0.00  0.00     0.382 C 
ATOM     23  O   LIG d   1       7.598  85.706 117.821  0.00  0.00    -0.241 OA
ATOM     24  O   LIG d   1       8.782  87.059 116.623  0.00  0.00    -0.241 OA
ENDBRANCH   3  22
TORSDOF 7
ENDMDL
MODEL 4
REMARK VINA RESULT:      -4.6      2.147      5.455
REMARK  7 active torsions:
REMARK  status: ('A' for Active; 'I' for Inactive)
REMARK    1  A    between atoms: C_2  and  C_3 
REMARK    2  A    between atoms: C_3  and  O_6 
REMARK    3  A    between atoms: C_3  and  C_4 
REMARK    4  A    between atoms: C_7  and  O_6 
REMARK    5  A    between atoms: C_9  and  C_10 
REMARK    6  A    between atoms: N_15  and  C_14 
REMARK    7  A    between atoms: N_20  and  C_19 
REMARK       I    between atoms: C_22  and  N_20 
ROOT
ATOM      1  C   LIG d   1       3.353  88.881 115.500  0.00  0.00     0.161 C 
ATOM      2  C   LIG d   1       3.999  88.576 116.709  0.00  0.00     0.016 C 
ATOM      3  C   LIG d   1       5.323  88.084 116.782  0.00  0.00     0.038 C 
ATOM      4  C   LIG d   1       6.147  88.005 115.650  0.00  0.00     0.028 C 
ATOM      5  C   LIG d   1       5.374  87.824 114.348  0.00  0.00    -0.047 C 
ATOM      6  C   LIG d   1       4.275  88.908 114.263  0.00  0.00     0.091 C 
ENDROOT
BRANCH   1   7
ATOM      7  O   LIG d   1       2.647  90.132 115.625  0.00  0.00    -0.368 OA
BRANCH   7   8
ATOM      8  C   LIG d   1       2.253  90.510 116.967  0.00  0.00     0.119 C 
BRANCH   8   9
ATOM      9  C   LIG d   1       0.720  90.671 116.971  0.00  0.00     0.028 C 
ATOM     10  C   LIG d   1       0.221  91.506 118.162  0.00  0.00     0.006 C 
ENDBRANCH   8   9
BRANCH   8  11
ATOM     11  C   LIG d   1       2.806  91.887 117.343  0.00  0.00     0.028 C 
ATOM     12  C   LIG d   1       4.004  91.806 118.303  0.00  0.00     0.006 C 
ENDBRANCH   8  11
ENDBRANCH   7   8
ENDBRANCH   1   7
BRANCH   6  13
ATOM     13  N   LIG d   1       3.417  88.751 113.059  0.00  0.00    -0.311 N 
ATOM     14  C   LIG d   1       2.833  87.603 112.719  0.00  0.00     0.210 C 
ATOM     15  C   LIG d   1       2.008  87.654 111.430  0.00  0.00     0.109 C 
ATOM     16  O   LIG d   1       2.895  86.555 113.380  0.00  0.00    -0.276 OA
ATOM     17  H   LIG d   1       3.288  89.559 112.483  0.00  0.00     0.149 HD
ENDBRANCH   6  13
BRANCH   5  18
ATOM     18  N   LIG d   1       6.345  87.896 113.240  0.00  0.00     0.381 N 
ATOM     19  H   LIG d   1       7.251  87.623 113.564  0.00  0.00    -0.090 HD
ATOM     20  H   LIG d   1       6.399  88.846 112.917  0.00  0.00    -0.090 HD
ATOM     21  H   LIG d   1       6.056  87.301 112.495  0.00  0.00    -0.090 HD
ENDBRANCH   5  18
BRANCH   3  22
ATOM     22  C   LIG d   1       5.820  87.626 117.992  0.00  0.00     0.382 C 
ATOM     23  O   LIG d   1       6.081  88.439 118.911  0.00  0.00    -0.241 OA
ATOM     24  O   LIG d   1       6.052  86.414 118.162  0.00  0.00    -0.241 OA
ENDBRANCH   3  22
TORSDOF 7
ENDMDL
MODEL 5
REMARK VINA RESULT:      -4.5      1.155      1.400
REMARK  7 active torsions:
REMARK  status: ('A' for Active; 'I' for Inactive)
REMARK    1  A    between atoms: C_2  and  C_3 
REMARK    2  A    between atoms: C_3  and  O_6 
REMARK    3  A    between atoms: C_3  and  C_4 
REMARK    4  A    between atoms: C_7  and  O_6 
REMARK    5  A    between atoms: C_9  and  C_10 
REMARK    6  A    between atoms: N_15  and  C_14 
REMARK    7  A    between atoms: N_20  and  C_19 
REMARK       I    between atoms: C_22  and  N_20 
ROOT
ATOM      1  C   LIG d   1       3.393  88.967 115.625  0.00  0.00     0.161 C 
ATOM      2  C   LIG d   1       2.445  89.752 116.302  0.00  0.00     0.016 C 
ATOM      3  C   LIG d   1       2.787  90.863 117.107  0.00  0.00     0.038 C 
ATOM      4  C   LIG d   1       4.098  91.359 117.168  0.00  0.00     0.028 C 
ATOM      5  C   LIG d   1       5.160  90.296 116.905  0.00  0.00    -0.047 C 
ATOM      6  C   LIG d   1       4.817  89.559 115.591  0.00  0.00     0.091 C 
ENDROOT
BRANCH   1   7
ATOM      7  O   LIG d   1       2.933  88.690 114.287  0.00  0.00    -0.368 OA
BRANCH   7   8
ATOM      8  C   LIG d   1       3.066  87.319 113.838  0.00  0.00     0.119 C 
BRANCH   8   9
ATOM      9  C   LIG d   1       3.361  87.354 112.326  0.00  0.00     0.028 C 
ATOM     10  C   LIG d   1       4.854  87.152 112.015  0.00  0.00     0.006 C 
ENDBRANCH   8   9
BRANCH   8  11
ATOM     11  C   LIG d   1       1.745  86.557 113.976  0.00  0.00     0.028 C 
ATOM     12  C   LIG d   1       1.613  85.833 115.325  0.00  0.00     0.006 C 
ENDBRANCH   8  11
ENDBRANCH   7   8
ENDBRANCH   1   7
BRANCH   6  13
ATOM     13  N   LIG d   1       5.760  88.447 115.303  0.00  0.00    -0.311 N 
ATOM     14  C   LIG d   1       6.022  87.466 116.165  0.00  0.00     0.210 C 
ATOM     15  C   LIG d   1       7.039  86.430 115.676  0.00  0.00     0.109 C 
ATOM     16  O   LIG d   1       5.484  87.338 117.275  0.00  0.00    -0.276 OA
ATOM     17  H   LIG d   1       6.217  88.455 114.412  0.00  0.00     0.149 HD
ENDBRANCH   6  13
BRANCH   5  18
ATOM     18  N   LIG d   1       6.469  90.975 116.863  0.00  0.00     0.381 N 
ATOM     19  H   LIG d   1       6.368  91.924 117.166  0.00  0.00    -0.090 HD
ATOM     20  H   LIG d   1       6.802  90.980 115.915  0.00  0.00    -0.090 HD
ATOM     21  H   LIG d   1       7.119  90.500 117.449  0.00  0.00    -0.090 HD
ENDBRANCH   5  18
BRANCH   3  22
ATOM     22  C   LIG d   1       1.817  91.467 117.893  0.00  0.00     0.382 C 
ATOM     23  O   LIG d   1       0.906  90.774 118.406  0.00  0.00    -0.241 OA
ATOM     24  O   LIG d   1       1.817  92.701 118.059  0.00  0.00    -0.241 OA
ENDBRANCH   3  22
TORSDOF 7
ENDMDL
MODEL 6
REMARK VINA RESULT:      -4.3      2.427      4.754
REMARK  7 active torsions:
REMARK  status: ('A' for Active; 'I' for Inactive)
REMARK    1  A    between atoms: C_2  and  C_3 
REMARK    2  A    between atoms: C_3  and  O_6 
REMARK    3  A    between atoms: C_3  and  C_4 
REMARK    4  A    between atoms: C_7  and  O_6 
REMARK    5  A    between atoms: C_9  and  C_10 
REMARK    6  A    between atoms: N_15  and  C_14 
REMARK    7  A    between atoms: N_20  and  C_19 
REMARK       I    between atoms: C_22  and  N_20 
ROOT
ATOM      1  C   LIG d   1       4.704  89.815 116.657  0.00  0.00     0.161 C 
ATOM      2  C   LIG d   1       6.091  89.936 116.845  0.00  0.00     0.016 C 
ATOM      3  C   LIG d   1       6.683  90.933 117.654  0.00  0.00     0.038 C 
ATOM      4  C   LIG d   1       5.914  91.790 118.455  0.00  0.00     0.028 C 
ATOM      5  C   LIG d   1       4.511  92.034 117.909  0.00  0.00    -0.047 C 
ATOM      6  C   LIG d   1       3.845  90.671 117.610  0.00  0.00     0.091 C 
ENDROOT
BRANCH   1   7
ATOM      7  O   LIG d   1       4.318  88.429 116.742  0.00  0.00    -0.368 OA
BRANCH   7   8
ATOM      8  C   LIG d   1       3.919  87.801 115.500  0.00  0.00     0.119 C 
BRANCH   8   9
ATOM      9  C   LIG d   1       5.091  86.918 115.030  0.00  0.00     0.028 C 
ATOM     10  C   LIG d   1       5.368  85.750 115.991  0.00  0.00     0.006 C 
ENDBRANCH   8   9
BRANCH   8  11
ATOM     11  C   LIG d   1       3.721  88.837 114.389  0.00  0.00     0.028 C 
ATOM     12  C   LIG d   1       4.736  88.685 113.245  0.00  0.00     0.006 C 
ENDBRANCH   8  11
ENDBRANCH   7   8
ENDBRANCH   1   7
BRANCH   6  13
ATOM     13  N   LIG d   1       2.501  90.821 116.993  0.00  0.00    -0.311 N 
ATOM     14  C   LIG d   1       1.368  90.817 117.694  0.00  0.00     0.210 C 
ATOM     15  C   LIG d   1       0.092  90.964 116.860  0.00  0.00     0.109 C 
ATOM     16  O   LIG d   1       1.301  90.738 118.930  0.00  0.00    -0.276 OA
ATOM     17  H   LIG d   1       2.465  90.921 115.998  0.00  0.00     0.149 HD
ENDBRANCH   6  13
BRANCH   5  18
ATOM     18  N   LIG d   1       3.775  92.830 118.909  0.00  0.00     0.381 N 
ATOM     19  H   LIG d   1       3.993  93.800 118.797  0.00  0.00    -0.090 HD
ATOM     20  H   LIG d   1       4.066  92.547 119.828  0.00  0.00    -0.090 HD
ATOM     21  H   LIG d   1       2.795  92.688 118.804  0.00  0.00    -0.090 HD
ENDBRANCH   5  18
BRANCH   3  22
ATOM     22  C   LIG d   1       8.058  91.106 117.636  0.00  0.00     0.382 C 
ATOM     23  O   LIG d   1       8.548  92.250 117.797  0.00  0.00    -0.241 OA
ATOM     24  O   LIG d   1       8.814  90.140 117.417  0.00  0.00    -0.241 OA
ENDBRANCH   3  22
TORSDOF 7
ENDMDL
MODEL 7
REMARK VINA RESULT:      -4.3      1.810      2.165
REMARK  7 active torsions:
REMARK  status: ('A' for Active; 'I' for Inactive)
REMARK    1  A    between atoms: C_2  and  C_3 
REMARK    2  A    between atoms: C_3  and  O_6 
REMARK    3  A    between atoms: C_3  and  C_4 
REMARK    4  A    between atoms: C_7  and  O_6 
REMARK    5  A    between atoms: C_9  and  C_10 
REMARK    6  A    between atoms: N_15  and  C_14 
REMARK    7  A    between atoms: N_20  and  C_19 
REMARK       I    between atoms: C_22  and  N_20 
ROOT
ATOM      1  C   LIG d   1       4.030  89.267 116.835  0.00  0.00     0.161 C 
ATOM      2  C   LIG d   1       2.692  89.681 116.724  0.00  0.00     0.016 C 
ATOM      3  C   LIG d   1       2.218  90.920 117.212  0.00  0.00     0.038 C 
ATOM      4  C   LIG d   1       3.087  91.900 117.714  0.00  0.00     0.028 C 
ATOM      5  C   LIG d   1       4.369  91.327 118.308  0.00  0.00    -0.047 C 
ATOM      6  C   LIG d   1       5.013  90.369 117.279  0.00  0.00     0.091 C 
ENDROOT
BRANCH   1   7
ATOM      7  O   LIG d   1       4.464  88.679 115.593  0.00  0.00    -0.368 OA
BRANCH   7   8
ATOM      8  C   LIG d   1       3.996  87.334 115.326  0.00  0.00     0.119 C 
BRANCH   8   9
ATOM      9  C   LIG d   1       5.234  86.460 115.046  0.00  0.00     0.028 C 
ATOM     10  C   LIG d   1       6.548  87.250 115.161  0.00  0.00     0.006 C 
ENDBRANCH   8   9
BRANCH   8  11
ATOM     11  C   LIG d   1       3.162  87.279 114.043  0.00  0.00     0.028 C 
ATOM     12  C   LIG d   1       3.633  88.285 112.981  0.00  0.00     0.006 C 
ENDBRANCH   8  11
ENDBRANCH   7   8
ENDBRANCH   1   7
BRANCH   6  13
ATOM     13  N   LIG d   1       6.229  89.700 117.812  0.00  0.00    -0.311 N 
ATOM     14  C   LIG d   1       7.459  90.190 117.668  0.00  0.00     0.210 C 
ATOM     15  C   LIG d   1       8.572  89.332 118.276  0.00  0.00     0.109 C 
ATOM     16  O   LIG d   1       7.730  91.270 117.122  0.00  0.00    -0.276 OA
ATOM     17  H   LIG d   1       6.097  88.833 118.296  0.00  0.00     0.149 HD
ENDBRANCH   6  13
BRANCH   5  18
ATOM     18  N   LIG d   1       5.241  92.462 118.666  0.00  0.00     0.381 N 
ATOM     19  H   LIG d   1       5.732  92.257 119.513  0.00  0.00    -0.090 HD
ATOM     20  H   LIG d   1       4.670  93.274 118.821  0.00  0.00    -0.090 HD
ATOM     21  H   LIG d   1       5.890  92.639 117.931  0.00  0.00    -0.090 HD
ENDBRANCH   5  18
BRANCH   3  22
ATOM     22  C   LIG d   1       0.855  91.172 117.238  0.00  0.00     0.382 C 
ATOM     23  O   LIG d   1       0.092  90.580 116.437  0.00  0.00    -0.241 OA
ATOM     24  O   LIG d   1       0.384  92.018 118.022  0.00  0.00    -0.241 OA
ENDBRANCH   3  22
TORSDOF 7
ENDMDL
MODEL 8
REMARK VINA RESULT:      -3.9      2.395      4.659
REMARK  7 active torsions:
REMARK  status: ('A' for Active; 'I' for Inactive)
REMARK    1  A    between atoms: C_2  and  C_3 
REMARK    2  A    between atoms: C_3  and  O_6 
REMARK    3  A    between atoms: C_3  and  C_4 
REMARK    4  A    between atoms: C_7  and  O_6 
REMARK    5  A    between atoms: C_9  and  C_10 
REMARK    6  A    between atoms: N_15  and  C_14 
REMARK    7  A    between atoms: N_20  and  C_19 
REMARK       I    between atoms: C_22  and  N_20 
ROOT
ATOM      1  C   LIG d   1       5.122  89.504 116.728  0.00  0.00     0.161 C 
ATOM      2  C   LIG d   1       5.536  90.596 117.509  0.00  0.00     0.016 C 
ATOM      3  C   LIG d   1       4.646  91.561 118.032  0.00  0.00     0.038 C 
ATOM      4  C   LIG d   1       3.254  91.416 117.934  0.00  0.00     0.028 C 
ATOM      5  C   LIG d   1       2.814  90.601 116.723  0.00  0.00    -0.047 C 
ATOM      6  C   LIG d   1       3.597  89.268 116.704  0.00  0.00     0.091 C 
ENDROOT
BRANCH   1   7
ATOM      7  O   LIG d   1       5.807  88.310 117.154  0.00  0.00    -0.368 OA
BRANCH   7   8
ATOM      8  C   LIG d   1       7.106  88.074 116.558  0.00  0.00     0.119 C 
BRANCH   8   9
ATOM      9  C   LIG d   1       6.969  86.864 115.613  0.00  0.00     0.028 C 
ATOM     10  C   LIG d   1       5.818  85.929 116.021  0.00  0.00     0.006 C 
ENDBRANCH   8   9
BRANCH   8  11
ATOM     11  C   LIG d   1       8.134  87.652 117.611  0.00  0.00     0.028 C 
ATOM     12  C   LIG d   1       8.780  88.849 118.327  0.00  0.00     0.006 C 
ENDBRANCH   8  11
ENDBRANCH   7   8
ENDBRANCH   1   7
BRANCH   6  13
ATOM     13  N   LIG d   1       3.288  88.446 115.505  0.00  0.00    -0.311 N 
ATOM     14  C   LIG d   1       3.526  88.850 114.258  0.00  0.00     0.210 C 
ATOM     15  C   LIG d   1       3.113  87.857 113.167  0.00  0.00     0.109 C 
ATOM     16  O   LIG d   1       4.068  89.923 113.953  0.00  0.00    -0.276 OA
ATOM     17  H   LIG d   1       2.874  87.548 115.661  0.00  0.00     0.149 HD
ENDBRANCH   6  13
BRANCH   5  18
ATOM     18  N   LIG d   1       1.354  90.412 116.820  0.00  0.00     0.381 N 
ATOM     19  H   LIG d   1       0.938  90.515 115.915  0.00  0.00    -0.090 HD
ATOM     20  H   LIG d   1       0.974  91.119 117.424  0.00  0.00    -0.090 HD
ATOM     21  H   LIG d   1       1.151  89.508 117.185  0.00  0.00    -0.090 HD
ENDBRANCH   5  18
BRANCH   3  22
ATOM     22  C   LIG d   1       5.148  92.709 118.627  0.00  0.00     0.382 C 
ATOM     23  O   LIG d   1       4.374  93.648 118.929  0.00  0.00    -0.241 OA
ATOM     24  O   LIG d   1       6.372  92.834 118.825  0.00  0.00    -0.241 OA
ENDBRANCH   3  22
TORSDOF 7
ENDMDL
MODEL 9
REMARK VINA RESULT:      -3.8      2.452      6.426
REMARK  7 active torsions:
REMARK  status: ('A' for Active; 'I' for Inactive)
REMARK    1  A    between atoms: C_2  and  C_3 
REMARK    2  A    between atoms: C_3  and  O_6 
REMARK    3  A    between atoms: C_3  and  C_4 
REMARK    4  A    between atoms: C_7  and  O_6 
REMARK    5  A    between atoms: C_9  and  C_10 
REMARK    6  A    between atoms: N_15  and  C_14 
REMARK    7  A    between atoms: N_20  and  C_19 
REMARK       I    between atoms: C_22  and  N_20 
ROOT
ATOM      1  C   LIG d   1       5.172  89.693 116.863  0.00  0.00     0.161 C 
ATOM      2  C   LIG d   1       6.255  88.800 116.855  0.00  0.00     0.016 C 
ATOM      3  C   LIG d   1       6.347  87.696 115.976  0.00  0.00     0.038 C 
ATOM      4  C   LIG d   1       5.427  87.498 114.936  0.00  0.00     0.028 C 
ATOM      5  C   LIG d   1       4.049  88.084 115.226  0.00  0.00    -0.047 C 
ATOM      6  C   LIG d   1       4.213  89.558 115.662  0.00  0.00     0.091 C 
ENDROOT
BRANCH   1   7
ATOM      7  O   LIG d   1       5.656  91.047 116.968  0.00  0.00    -0.368 OA
BRANCH   7   8
ATOM      8  C   LIG d   1       6.106  91.463 118.280  0.00  0.00     0.119 C 
BRANCH   8   9
ATOM      9  C   LIG d   1       5.387  92.783 118.620  0.00  0.00     0.028 C 
ATOM     10  C   LIG d   1       4.080  92.960 117.828  0.00  0.00     0.006 C 
ENDBRANCH   8   9
BRANCH   8  11
ATOM     11  C   LIG d   1       7.599  91.805 118.274  0.00  0.00     0.028 C 
ATOM     12  C   LIG d   1       7.884  93.239 118.748  0.00  0.00     0.006 C 
ENDBRANCH   8  11
ENDBRANCH   7   8
ENDBRANCH   1   7
BRANCH   6  13
ATOM     13  N   LIG d   1       2.920  90.182 116.046  0.00  0.00    -0.311 N 
ATOM     14  C   LIG d   1       2.181  89.765 117.072  0.00  0.00     0.210 C 
ATOM     15  C   LIG d   1       0.873  90.535 117.283  0.00  0.00     0.109 C 
ATOM     16  O   LIG d   1       2.499  88.852 117.848  0.00  0.00    -0.276 OA
ATOM     17  H   LIG d   1       2.601  90.950 115.489  0.00  0.00     0.149 HD
ENDBRANCH   6  13
BRANCH   5  18
ATOM     18  N   LIG d   1       3.233  87.928 114.007  0.00  0.00     0.381 N 
ATOM     19  H   LIG d   1       3.049  88.826 113.606  0.00  0.00    -0.090 HD
ATOM     20  H   LIG d   1       2.355  87.508 114.256  0.00  0.00    -0.090 HD
ATOM     21  H   LIG d   1       3.710  87.353 113.349  0.00  0.00    -0.090 HD
ENDBRANCH   5  18
BRANCH   3  22
ATOM     22  C   LIG d   1       7.348  86.754 116.158  0.00  0.00     0.382 C 
ATOM     23  O   LIG d   1       8.532  87.124 116.342  0.00  0.00    -0.241 OA
ATOM     24  O   LIG d   1       7.088  85.537 116.097  0.00  0.00    -0.241 OA
ENDBRANCH   3  22
TORSDOF 7
ENDMDL
