MODEL 1
REMARK VINA RESULT:      -4.5      0.000      0.000
REMARK  7 active torsions:
REMARK  status: ('A' for Active; 'I' for Inactive)
REMARK    1  A    between atoms: C_2  and  C_3 
REMARK    2  A    between atoms: C_3  and  O_6 
REMARK    3  A    between atoms: C_3  and  C_4 
REMARK    4  A    between atoms: C_7  and  O_6 
REMARK    5  A    between atoms: C_9  and  C_10 
REMARK    6  A    between atoms: N_15  and  C_14 
REMARK    7  A    between atoms: N_20  and  C_19 
REMARK       I    between atoms: C_22  and  N_20 
ROOT
ATOM      1  C   LIG d   1       2.948  87.860 115.733  0.00  0.00     0.161 C 
ATOM      2  C   LIG d   1       4.351  87.839 115.668  0.00  0.00     0.016 C 
ATOM      3  C   LIG d   1       5.163  87.157 116.603  0.00  0.00     0.038 C 
ATOM      4  C   LIG d   1       4.617  86.319 117.587  0.00  0.00     0.028 C 
ATOM      5  C   LIG d   1       3.203  86.712 118.001  0.00  0.00    -0.047 C 
ATOM      6  C   LIG d   1       2.331  86.860 116.733  0.00  0.00     0.091 C 
ENDROOT
BRANCH   1   7
ATOM      7  O   LIG d   1       2.395  87.658 114.417  0.00  0.00    -0.368 OA
BRANCH   7   8
ATOM      8  C   LIG d   1       2.826  86.462 113.722  0.00  0.00     0.119 C 
BRANCH   8   9
ATOM      9  C   LIG d   1       3.127  86.858 112.263  0.00  0.00     0.028 C 
ATOM     10  C   LIG d   1       3.985  85.808 111.536  0.00  0.00     0.006 C 
ENDBRANCH   8   9
BRANCH   8  11
ATOM     11  C   LIG d   1       1.697  85.430 113.637  0.00  0.00     0.028 C 
ATOM     12  C   LIG d   1       0.622  85.807 112.605  0.00  0.00     0.006 C 
ENDBRANCH   8  11
ENDBRANCH   7   8
ENDBRANCH   1   7
BRANCH   6  13
ATOM     13  N   LIG d   1       0.954  87.325 117.043  0.00  0.00    -0.311 N 
ATOM     14  C   LIG d   1       0.685  88.517 117.573  0.00  0.00     0.210 C 
ATOM     15  C   LIG d   1      -0.801  88.789 117.831  0.00  0.00     0.109 C 
ATOM     16  O   LIG d   1       1.532  89.388 117.823  0.00  0.00    -0.276 OA
ATOM     17  H   LIG d   1       0.204  86.694 116.842  0.00  0.00     0.149 HD
ENDBRANCH   6  13
BRANCH   5  18
ATOM     18  N   LIG d   1       2.706  85.677 118.927  0.00  0.00     0.381 N 
ATOM     19  H   LIG d   1       3.178  85.753 119.805  0.00  0.00    -0.090 HD
ATOM     20  H   LIG d   1       2.904  84.771 118.539  0.00  0.00    -0.090 HD
ATOM     21  H   LIG d   1       1.724  85.781 119.060  0.00  0.00    -0.090 HD
ENDBRANCH   5  18
BRANCH   3  22
ATOM     22  C   LIG d   1       6.537  87.343 116.585  0.00  0.00     0.382 C 
ATOM     23  O   LIG d   1       7.288  86.521 117.163  0.00  0.00    -0.241 OA
ATOM     24  O   LIG d   1       7.031  88.345 116.035  0.00  0.00    -0.241 OA
ENDBRANCH   3  22
TORSDOF 7
ENDMDL
MODEL 2
REMARK VINA RESULT:      -4.4      2.082      4.806
REMARK  7 active torsions:
REMARK  status: ('A' for Active; 'I' for Inactive)
REMARK    1  A    between atoms: C_2  and  C_3 
REMARK    2  A    between atoms: C_3  and  O_6 
REMARK    3  A    between atoms: C_3  and  C_4 
REMARK    4  A    between atoms: C_7  and  O_6 
REMARK    5  A    between atoms: C_9  and  C_10 
REMARK    6  A    between atoms: N_15  and  C_14 
REMARK    7  A    between atoms: N_20  and  C_19 
REMARK       I    between atoms: C_22  and  N_20 
ROOT
ATOM      1  C   LIG d   1       2.752  86.579 116.210  0.00  0.00     0.161 C 
ATOM      2  C   LIG d   1       3.756  87.070 117.061  0.00  0.00     0.016 C 
ATOM      3  C   LIG d   1       4.873  87.806 116.604  0.00  0.00     0.038 C 
ATOM      4  C   LIG d   1       4.984  88.235 115.273  0.00  0.00     0.028 C 
ATOM      5  C   LIG d   1       4.252  87.334 114.284  0.00  0.00    -0.047 C 
ATOM      6  C   LIG d   1       2.799  87.131 114.770  0.00  0.00     0.091 C 
ENDROOT
BRANCH   1   7
ATOM      7  O   LIG d   1       1.456  86.814 116.795  0.00  0.00    -0.368 OA
BRANCH   7   8
ATOM      8  C   LIG d   1       1.449  87.490 118.077  0.00  0.00     0.119 C 
BRANCH   8   9
ATOM      9  C   LIG d   1       0.336  86.852 118.930  0.00  0.00     0.028 C 
ATOM     10  C   LIG d   1      -0.975  87.655 118.878  0.00  0.00     0.006 C 
ENDBRANCH   8   9
BRANCH   8  11
ATOM     11  C   LIG d   1       1.054  88.962 117.928  0.00  0.00     0.028 C 
ATOM     12  C   LIG d   1       2.092  89.922 118.531  0.00  0.00     0.006 C 
ENDBRANCH   8  11
ENDBRANCH   7   8
ENDBRANCH   1   7
BRANCH   6  13
ATOM     13  N   LIG d   1       2.037  86.193 113.904  0.00  0.00    -0.311 N 
ATOM     14  C   LIG d   1       1.492  86.548 112.741  0.00  0.00     0.210 C 
ATOM     15  C   LIG d   1       0.733  85.432 112.016  0.00  0.00     0.109 C 
ATOM     16  O   LIG d   1       1.593  87.671 112.226  0.00  0.00    -0.276 OA
ATOM     17  H   LIG d   1       1.933  85.253 114.231  0.00  0.00     0.149 HD
ENDBRANCH   6  13
BRANCH   5  18
ATOM     18  N   LIG d   1       4.334  87.970 112.956  0.00  0.00     0.381 N 
ATOM     19  H   LIG d   1       4.991  87.478 112.384  0.00  0.00    -0.090 HD
ATOM     20  H   LIG d   1       4.659  88.915 113.067  0.00  0.00    -0.090 HD
ATOM     21  H   LIG d   1       3.438  87.969 112.521  0.00  0.00    -0.090 HD
ENDBRANCH   5  18
BRANCH   3  22
ATOM     22  C   LIG d   1       5.914  88.088 117.476  0.00  0.00     0.382 C 
ATOM     23  O   LIG d   1       7.076  88.248 117.032  0.00  0.00    -0.241 OA
ATOM     24  O   LIG d   1       5.713  88.140 118.704  0.00  0.00    -0.241 OA
ENDBRANCH   3  22
TORSDOF 7
ENDMDL
MODEL 3
REMARK VINA RESULT:      -3.2      2.053      5.301
REMARK  7 active torsions:
REMARK  status: ('A' for Active; 'I' for Inactive)
REMARK    1  A    between atoms: C_2  and  C_3 
REMARK    2  A    between atoms: C_3  and  O_6 
REMARK    3  A    between atoms: C_3  and  C_4 
REMARK    4  A    between atoms: C_7  and  O_6 
REMARK    5  A    between atoms: C_9  and  C_10 
REMARK    6  A    between atoms: N_15  and  C_14 
REMARK    7  A    between atoms: N_20  and  C_19 
REMARK       I    between atoms: C_22  and  N_20 
ROOT
ATOM      1  C   LIG d   1       2.249  87.090 116.675  0.00  0.00     0.161 C 
ATOM      2  C   LIG d   1       1.635  86.776 115.451  0.00  0.00     0.016 C 
ATOM      3  C   LIG d   1       2.285  86.070 114.413  0.00  0.00     0.038 C 
ATOM      4  C   LIG d   1       3.552  85.493 114.588  0.00  0.00     0.028 C 
ATOM      5  C   LIG d   1       4.408  86.215 115.624  0.00  0.00    -0.047 C 
ATOM      6  C   LIG d   1       3.592  86.373 116.927  0.00  0.00     0.091 C 
ENDROOT
BRANCH   1   7
ATOM      7  O   LIG d   1       1.334  86.836 117.759  0.00  0.00    -0.368 OA
BRANCH   7   8
ATOM      8  C   LIG d   1       0.960  87.985 118.559  0.00  0.00     0.119 C 
BRANCH   8   9
ATOM      9  C   LIG d   1      -0.579  88.054 118.580  0.00  0.00     0.028 C 
ATOM     10  C   LIG d   1      -1.128  89.186 117.696  0.00  0.00     0.006 C 
ENDBRANCH   8   9
BRANCH   8  11
ATOM     11  C   LIG d   1       1.416  89.292 117.905  0.00  0.00     0.028 C 
ATOM     12  C   LIG d   1       1.986  90.298 118.917  0.00  0.00     0.006 C 
ENDBRANCH   8  11
ENDBRANCH   7   8
ENDBRANCH   1   7
BRANCH   6  13
ATOM     13  N   LIG d   1       4.325  87.143 117.965  0.00  0.00    -0.311 N 
ATOM     14  C   LIG d   1       4.931  88.305 117.724  0.00  0.00     0.210 C 
ATOM     15  C   LIG d   1       5.646  88.923 118.930  0.00  0.00     0.109 C 
ATOM     16  O   LIG d   1       4.917  88.898 116.635  0.00  0.00    -0.276 OA
ATOM     17  H   LIG d   1       4.360  86.750 118.885  0.00  0.00     0.149 HD
ENDBRANCH   6  13
BRANCH   5  18
ATOM     18  N   LIG d   1       5.643  85.430 115.806  0.00  0.00     0.381 N 
ATOM     19  H   LIG d   1       6.036  85.204 114.914  0.00  0.00    -0.090 HD
ATOM     20  H   LIG d   1       5.417  84.572 116.278  0.00  0.00    -0.090 HD
ATOM     21  H   LIG d   1       6.301  85.950 116.345  0.00  0.00    -0.090 HD
ENDBRANCH   5  18
BRANCH   3  22
ATOM     22  C   LIG d   1       1.683  85.968 113.168  0.00  0.00     0.382 C 
ATOM     23  O   LIG d   1       2.387  85.950 112.130  0.00  0.00    -0.241 OA
ATOM     24  O   LIG d   1       0.441  85.940 113.068  0.00  0.00    -0.241 OA
ENDBRANCH   3  22
TORSDOF 7
ENDMDL
MODEL 4
REMARK VINA RESULT:      -2.7      2.119      5.012
REMARK  7 active torsions:
REMARK  status: ('A' for Active; 'I' for Inactive)
REMARK    1  A    between atoms: C_2  and  C_3 
REMARK    2  A    between atoms: C_3  and  O_6 
REMARK    3  A    between atoms: C_3  and  C_4 
REMARK    4  A    between atoms: C_7  and  O_6 
REMARK    5  A    between atoms: C_9  and  C_10 
REMARK    6  A    between atoms: N_15  and  C_14 
REMARK    7  A    between atoms: N_20  and  C_19 
REMARK       I    between atoms: C_22  and  N_20 
ROOT
ATOM      1  C   LIG d   1       3.884  88.247 116.283  0.00  0.00     0.161 C 
ATOM      2  C   LIG d   1       3.244  87.547 115.247  0.00  0.00     0.016 C 
ATOM      3  C   LIG d   1       3.614  86.244 114.843  0.00  0.00     0.038 C 
ATOM      4  C   LIG d   1       4.558  85.488 115.554  0.00  0.00     0.028 C 
ATOM      5  C   LIG d   1       5.585  86.340 116.292  0.00  0.00    -0.047 C 
ATOM      6  C   LIG d   1       4.842  87.396 117.142  0.00  0.00     0.091 C 
ENDROOT
BRANCH   1   7
ATOM      7  O   LIG d   1       2.902  88.892 117.117  0.00  0.00    -0.368 OA
BRANCH   7   8
ATOM      8  C   LIG d   1       2.254  88.052 118.104  0.00  0.00     0.119 C 
BRANCH   8   9
ATOM      9  C   LIG d   1       1.550  86.908 117.349  0.00  0.00     0.028 C 
ATOM     10  C   LIG d   1       1.378  85.650 118.217  0.00  0.00     0.006 C 
ENDBRANCH   8   9
BRANCH   8  11
ATOM     11  C   LIG d   1       1.135  88.806 118.830  0.00  0.00     0.028 C 
ATOM     12  C   LIG d   1       0.337  89.730 117.897  0.00  0.00     0.006 C 
ENDBRANCH   8  11
ENDBRANCH   7   8
ENDBRANCH   1   7
BRANCH   6  13
ATOM     13  N   LIG d   1       5.774  88.326 117.832  0.00  0.00    -0.311 N 
ATOM     14  C   LIG d   1       6.733  89.003 117.202  0.00  0.00     0.210 C 
ATOM     15  C   LIG d   1       7.596  89.892 118.104  0.00  0.00     0.109 C 
ATOM     16  O   LIG d   1       6.931  88.977 115.978  0.00  0.00    -0.276 OA
ATOM     17  H   LIG d   1       5.665  88.431 118.821  0.00  0.00     0.149 HD
ENDBRANCH   6  13
BRANCH   5  18
ATOM     18  N   LIG d   1       6.421  85.431 117.099  0.00  0.00     0.381 N 
ATOM     19  H   LIG d   1       6.973  84.854 116.497  0.00  0.00    -0.090 HD
ATOM     20  H   LIG d   1       5.822  84.836 117.644  0.00  0.00    -0.090 HD
ATOM     21  H   LIG d   1       7.014  85.959 117.701  0.00  0.00    -0.090 HD
ENDBRANCH   5  18
BRANCH   3  22
ATOM     22  C   LIG d   1       3.065  85.699 113.692  0.00  0.00     0.382 C 
ATOM     23  O   LIG d   1       1.840  85.430 113.648  0.00  0.00    -0.241 OA
ATOM     24  O   LIG d   1       3.787  85.431 112.714  0.00  0.00    -0.241 OA
ENDBRANCH   3  22
TORSDOF 7
ENDMDL
MODEL 5
REMARK VINA RESULT:      -2.7      8.107     11.099
REMARK  7 active torsions:
REMARK  status: ('A' for Active; 'I' for Inactive)
REMARK    1  A    between atoms: C_2  and  C_3 
REMARK    2  A    between atoms: C_3  and  O_6 
REMARK    3  A    between atoms: C_3  and  C_4 
REMARK    4  A    between atoms: C_7  and  O_6 
REMARK    5  A    between atoms: C_9  and  C_10 
REMARK    6  A    between atoms: N_15  and  C_14 
REMARK    7  A    between atoms: N_20  and  C_19 
REMARK       I    between atoms: C_22  and  N_20 
ROOT
ATOM      1  C   LIG d   1      -6.159  91.385 118.320  0.00  0.00     0.161 C 
ATOM      2  C   LIG d   1      -4.865  91.741 118.736  0.00  0.00     0.016 C 
ATOM      3  C   LIG d   1      -3.705  91.494 117.967  0.00  0.00     0.038 C 
ATOM      4  C   LIG d   1      -3.776  91.007 116.653  0.00  0.00     0.028 C 
ATOM      5  C   LIG d   1      -5.019  90.165 116.386  0.00  0.00    -0.047 C 
ATOM      6  C   LIG d   1      -6.267  90.954 116.842  0.00  0.00     0.091 C 
ENDROOT
BRANCH   1   7
ATOM      7  O   LIG d   1      -7.075  92.463 118.596  0.00  0.00    -0.368 OA
BRANCH   7   8
ATOM      8  C   LIG d   1      -6.787  93.726 117.948  0.00  0.00     0.119 C 
BRANCH   8   9
ATOM      9  C   LIG d   1      -5.952  94.570 118.930  0.00  0.00     0.028 C 
ATOM     10  C   LIG d   1      -5.999  96.072 118.600  0.00  0.00     0.006 C 
ENDBRANCH   8   9
BRANCH   8  11
ATOM     11  C   LIG d   1      -8.066  94.533 117.705  0.00  0.00     0.028 C 
ATOM     12  C   LIG d   1      -9.016  94.521 118.913  0.00  0.00     0.006 C 
ENDBRANCH   8  11
ENDBRANCH   7   8
ENDBRANCH   1   7
BRANCH   6  13
ATOM     13  N   LIG d   1      -7.520  90.168 116.694  0.00  0.00    -0.311 N 
ATOM     14  C   LIG d   1      -8.111  89.945 115.521  0.00  0.00     0.210 C 
ATOM     15  C   LIG d   1      -9.405  89.128 115.594  0.00  0.00     0.109 C 
ATOM     16  O   LIG d   1      -7.670  90.320 114.424  0.00  0.00    -0.276 OA
ATOM     17  H   LIG d   1      -7.930  89.800 117.530  0.00  0.00     0.149 HD
ENDBRANCH   6  13
BRANCH   5  18
ATOM     18  N   LIG d   1      -5.035  89.839 114.947  0.00  0.00     0.381 N 
ATOM     19  H   LIG d   1      -5.601  90.502 114.456  0.00  0.00    -0.090 HD
ATOM     20  H   LIG d   1      -5.440  88.927 114.825  0.00  0.00    -0.090 HD
ATOM     21  H   LIG d   1      -4.107  89.849 114.584  0.00  0.00    -0.090 HD
ENDBRANCH   5  18
BRANCH   3  22
ATOM     22  C   LIG d   1      -2.453  91.698 118.527  0.00  0.00     0.382 C 
ATOM     23  O   LIG d   1      -1.668  90.731 118.677  0.00  0.00    -0.241 OA
ATOM     24  O   LIG d   1      -2.115  92.829 118.924  0.00  0.00    -0.241 OA
ENDBRANCH   3  22
TORSDOF 7
ENDMDL
MODEL 6
REMARK VINA RESULT:      -2.5      7.918     11.416
REMARK  7 active torsions:
REMARK  status: ('A' for Active; 'I' for Inactive)
REMARK    1  A    between atoms: C_2  and  C_3 
REMARK    2  A    between atoms: C_3  and  O_6 
REMARK    3  A    between atoms: C_3  and  C_4 
REMARK    4  A    between atoms: C_7  and  O_6 
REMARK    5  A    between atoms: C_9  and  C_10 
REMARK    6  A    between atoms: N_15  and  C_14 
REMARK    7  A    between atoms: N_20  and  C_19 
REMARK       I    between atoms: C_22  and  N_20 
ROOT
ATOM      1  C   LIG d   1      -5.453  92.439 117.716  0.00  0.00     0.161 C 
ATOM      2  C   LIG d   1      -6.381  92.033 116.742  0.00  0.00     0.016 C 
ATOM      3  C   LIG d   1      -6.232  90.861 115.966  0.00  0.00     0.038 C 
ATOM      4  C   LIG d   1      -5.214  89.929 116.220  0.00  0.00     0.028 C 
ATOM      5  C   LIG d   1      -3.971  90.546 116.852  0.00  0.00    -0.047 C 
ATOM      6  C   LIG d   1      -4.395  91.378 118.083  0.00  0.00     0.091 C 
ENDROOT
BRANCH   1   7
ATOM      7  O   LIG d   1      -6.149  92.883 118.898  0.00  0.00    -0.368 OA
BRANCH   7   8
ATOM      8  C   LIG d   1      -6.521  94.283 118.930  0.00  0.00     0.119 C 
BRANCH   8   9
ATOM      9  C   LIG d   1      -7.691  94.473 117.945  0.00  0.00     0.028 C 
ATOM     10  C   LIG d   1      -8.973  94.959 118.643  0.00  0.00     0.006 C 
ENDBRANCH   8   9
BRANCH   8  11
ATOM     11  C   LIG d   1      -5.394  95.172 118.397  0.00  0.00     0.028 C 
ATOM     12  C   LIG d   1      -5.470  96.613 118.928  0.00  0.00     0.006 C 
ENDBRANCH   8  11
ENDBRANCH   7   8
ENDBRANCH   1   7
BRANCH   6  13
ATOM     13  N   LIG d   1      -3.248  92.085 118.712  0.00  0.00    -0.311 N 
ATOM     14  C   LIG d   1      -2.085  92.288 118.095  0.00  0.00     0.210 C 
ATOM     15  C   LIG d   1      -1.030  93.020 118.930  0.00  0.00     0.109 C 
ATOM     16  O   LIG d   1      -1.838  91.959 116.925  0.00  0.00    -0.276 OA
ATOM     17  H   LIG d   1      -3.373  92.413 119.649  0.00  0.00     0.149 HD
ENDBRANCH   6  13
BRANCH   5  18
ATOM     18  N   LIG d   1      -3.048  89.445 117.187  0.00  0.00     0.381 N 
ATOM     19  H   LIG d   1      -2.801  88.945 116.357  0.00  0.00    -0.090 HD
ATOM     20  H   LIG d   1      -3.514  88.809 117.811  0.00  0.00    -0.090 HD
ATOM     21  H   LIG d   1      -2.229  89.808 117.622  0.00  0.00    -0.090 HD
ENDBRANCH   5  18
BRANCH   3  22
ATOM     22  C   LIG d   1      -7.084  90.631 114.898  0.00  0.00     0.382 C 
ATOM     23  O   LIG d   1      -7.415  91.578 114.144  0.00  0.00    -0.241 OA
ATOM     24  O   LIG d   1      -7.562  89.497 114.703  0.00  0.00    -0.241 OA
ENDBRANCH   3  22
TORSDOF 7
ENDMDL
MODEL 7
REMARK VINA RESULT:      -2.2      2.526      5.431
REMARK  7 active torsions:
REMARK  status: ('A' for Active; 'I' for Inactive)
REMARK    1  A    between atoms: C_2  and  C_3 
REMARK    2  A    between atoms: C_3  and  O_6 
REMARK    3  A    between atoms: C_3  and  C_4 
REMARK    4  A    between atoms: C_7  and  O_6 
REMARK    5  A    between atoms: C_9  and  C_10 
REMARK    6  A    between atoms: N_15  and  C_14 
REMARK    7  A    between atoms: N_20  and  C_19 
REMARK       I    between atoms: C_22  and  N_20 
ROOT
ATOM      1  C   LIG d   1       4.885  88.764 116.737  0.00  0.00     0.161 C 
ATOM      2  C   LIG d   1       4.034  88.494 115.652  0.00  0.00     0.016 C 
ATOM      3  C   LIG d   1       4.128  87.326 114.862  0.00  0.00     0.038 C 
ATOM      4  C   LIG d   1       4.989  86.270 115.198  0.00  0.00     0.028 C 
ATOM      5  C   LIG d   1       6.216  86.717 115.985  0.00  0.00    -0.047 C 
ATOM      6  C   LIG d   1       5.757  87.574 117.187  0.00  0.00     0.091 C 
ENDROOT
BRANCH   1   7
ATOM      7  O   LIG d   1       4.117  89.271 117.846  0.00  0.00    -0.368 OA
BRANCH   7   8
ATOM      8  C   LIG d   1       2.801  88.691 118.028  0.00  0.00     0.119 C 
BRANCH   8   9
ATOM      9  C   LIG d   1       1.970  89.682 118.865  0.00  0.00     0.028 C 
ATOM     10  C   LIG d   1       0.516  89.787 118.377  0.00  0.00     0.006 C 
ENDBRANCH   8   9
BRANCH   8  11
ATOM     11  C   LIG d   1       2.868  87.410 118.864  0.00  0.00     0.028 C 
ATOM     12  C   LIG d   1       2.495  86.154 118.061  0.00  0.00     0.006 C 
ENDBRANCH   8  11
ENDBRANCH   7   8
ENDBRANCH   1   7
BRANCH   6  13
ATOM     13  N   LIG d   1       6.900  88.122 117.963  0.00  0.00    -0.311 N 
ATOM     14  C   LIG d   1       7.595  89.194 117.586  0.00  0.00     0.210 C 
ATOM     15  C   LIG d   1       8.747  89.578 118.520  0.00  0.00     0.109 C 
ATOM     16  O   LIG d   1       7.346  89.882 116.585  0.00  0.00    -0.276 OA
ATOM     17  H   LIG d   1       7.150  87.643 118.806  0.00  0.00     0.149 HD
ENDBRANCH   6  13
BRANCH   5  18
ATOM     18  N   LIG d   1       6.953  85.504 116.388  0.00  0.00     0.381 N 
ATOM     19  H   LIG d   1       7.763  85.393 115.811  0.00  0.00    -0.090 HD
ATOM     20  H   LIG d   1       6.359  84.704 116.256  0.00  0.00    -0.090 HD
ATOM     21  H   LIG d   1       7.224  85.572 117.345  0.00  0.00    -0.090 HD
ENDBRANCH   5  18
BRANCH   3  22
ATOM     22  C   LIG d   1       3.384  87.222 113.696  0.00  0.00     0.382 C 
ATOM     23  O   LIG d   1       2.617  86.244 113.528  0.00  0.00    -0.241 OA
ATOM     24  O   LIG d   1       3.502  88.072 112.793  0.00  0.00    -0.241 OA
ENDBRANCH   3  22
TORSDOF 7
ENDMDL
MODEL 8
REMARK VINA RESULT:      -2.1      1.572      1.879
REMARK  7 active torsions:
REMARK  status: ('A' for Active; 'I' for Inactive)
REMARK    1  A    between atoms: C_2  and  C_3 
REMARK    2  A    between atoms: C_3  and  O_6 
REMARK    3  A    between atoms: C_3  and  C_4 
REMARK    4  A    between atoms: C_7  and  O_6 
REMARK    5  A    between atoms: C_9  and  C_10 
REMARK    6  A    between atoms: N_15  and  C_14 
REMARK    7  A    between atoms: N_20  and  C_19 
REMARK       I    between atoms: C_22  and  N_20 
ROOT
ATOM      1  C   LIG d   1       4.700  88.562 115.986  0.00  0.00     0.161 C 
ATOM      2  C   LIG d   1       6.071  88.256 116.019  0.00  0.00     0.016 C 
ATOM      3  C   LIG d   1       6.643  87.344 116.935  0.00  0.00     0.038 C 
ATOM      4  C   LIG d   1       5.855  86.557 117.788  0.00  0.00     0.028 C 
ATOM      5  C   LIG d   1       4.517  87.199 118.140  0.00  0.00    -0.047 C 
ATOM      6  C   LIG d   1       3.809  87.631 116.835  0.00  0.00     0.091 C 
ENDROOT
BRANCH   1   7
ATOM      7  O   LIG d   1       4.238  88.591 114.621  0.00  0.00    -0.368 OA
BRANCH   7   8
ATOM      8  C   LIG d   1       3.395  87.486 114.211  0.00  0.00     0.119 C 
BRANCH   8   9
ATOM      9  C   LIG d   1       4.193  86.187 114.437  0.00  0.00     0.028 C 
ATOM     10  C   LIG d   1       4.466  85.430 113.126  0.00  0.00     0.006 C 
ENDBRANCH   8   9
BRANCH   8  11
ATOM     11  C   LIG d   1       3.112  87.531 112.706  0.00  0.00     0.028 C 
ATOM     12  C   LIG d   1       1.687  87.073 112.355  0.00  0.00     0.006 C 
ENDBRANCH   8  11
ENDBRANCH   7   8
ENDBRANCH   1   7
BRANCH   6  13
ATOM     13  N   LIG d   1       2.531  88.344 117.093  0.00  0.00    -0.311 N 
ATOM     14  C   LIG d   1       1.373  87.720 117.304  0.00  0.00     0.210 C 
ATOM     15  C   LIG d   1       0.173  88.644 117.529  0.00  0.00     0.109 C 
ATOM     16  O   LIG d   1       1.233  86.489 117.357  0.00  0.00    -0.276 OA
ATOM     17  H   LIG d   1       2.560  89.345 117.098  0.00  0.00     0.149 HD
ENDBRANCH   6  13
BRANCH   5  18
ATOM     18  N   LIG d   1       3.742  86.215 118.919  0.00  0.00     0.381 N 
ATOM     19  H   LIG d   1       4.127  86.133 119.839  0.00  0.00    -0.090 HD
ATOM     20  H   LIG d   1       3.807  85.319 118.469  0.00  0.00    -0.090 HD
ATOM     21  H   LIG d   1       2.788  86.499 118.974  0.00  0.00    -0.090 HD
ENDBRANCH   5  18
BRANCH   3  22
ATOM     22  C   LIG d   1       8.023  87.241 117.032  0.00  0.00     0.382 C 
ATOM     23  O   LIG d   1       8.672  88.102 117.673  0.00  0.00    -0.241 OA
ATOM     24  O   LIG d   1       8.630  86.323 116.449  0.00  0.00    -0.241 OA
ENDBRANCH   3  22
TORSDOF 7
ENDMDL
MODEL 9
REMARK VINA RESULT:      -1.6      1.380      1.875
REMARK  7 active torsions:
REMARK  status: ('A' for Active; 'I' for Inactive)
REMARK    1  A    between atoms: C_2  and  C_3 
REMARK    2  A    between atoms: C_3  and  O_6 
REMARK    3  A    between atoms: C_3  and  C_4 
REMARK    4  A    between atoms: C_7  and  O_6 
REMARK    5  A    between atoms: C_9  and  C_10 
REMARK    6  A    between atoms: N_15  and  C_14 
REMARK    7  A    between atoms: N_20  and  C_19 
REMARK       I    between atoms: C_22  and  N_20 
ROOT
ATOM      1  C   LIG d   1       3.240  87.671 116.118  0.00  0.00     0.161 C 
ATOM      2  C   LIG d   1       4.505  87.087 116.302  0.00  0.00     0.016 C 
ATOM      3  C   LIG d   1       4.770  86.099 117.278  0.00  0.00     0.038 C 
ATOM      4  C   LIG d   1       3.747  85.515 118.039  0.00  0.00     0.028 C 
ATOM      5  C   LIG d   1       2.543  86.430 118.239  0.00  0.00    -0.047 C 
ATOM      6  C   LIG d   1       2.088  86.967 116.864  0.00  0.00     0.091 C 
ENDROOT
BRANCH   1   7
ATOM      7  O   LIG d   1       2.945  87.761 114.710  0.00  0.00    -0.368 OA
BRANCH   7   8
ATOM      8  C   LIG d   1       3.633  86.818 113.852  0.00  0.00     0.119 C 
BRANCH   8   9
ATOM      9  C   LIG d   1       4.647  87.614 113.008  0.00  0.00     0.028 C 
ATOM     10  C   LIG d   1       4.950  88.998 113.606  0.00  0.00     0.006 C 
ENDBRANCH   8   9
BRANCH   8  11
ATOM     11  C   LIG d   1       2.674  86.182 112.841  0.00  0.00     0.028 C 
ATOM     12  C   LIG d   1       3.327  85.943 111.470  0.00  0.00     0.006 C 
ENDBRANCH   8  11
ENDBRANCH   7   8
ENDBRANCH   1   7
BRANCH   6  13
ATOM     13  N   LIG d   1       0.967  87.937 116.977  0.00  0.00    -0.311 N 
ATOM     14  C   LIG d   1      -0.071  87.766 117.794  0.00  0.00     0.210 C 
ATOM     15  C   LIG d   1      -1.126  88.875 117.741  0.00  0.00     0.109 C 
ATOM     16  O   LIG d   1      -0.203  86.816 118.581  0.00  0.00    -0.276 OA
ATOM     17  H   LIG d   1       1.008  88.752 116.397  0.00  0.00     0.149 HD
ENDBRANCH   6  13
BRANCH   5  18
ATOM     18  N   LIG d   1       1.500  85.649 118.930  0.00  0.00     0.381 N 
ATOM     19  H   LIG d   1       1.894  84.806 119.296  0.00  0.00    -0.090 HD
ATOM     20  H   LIG d   1       0.787  85.401 118.266  0.00  0.00    -0.090 HD
ATOM     21  H   LIG d   1       1.103  86.187 119.668  0.00  0.00    -0.090 HD
ENDBRANCH   5  18
BRANCH   3  22
ATOM     22  C   LIG d   1       6.079  85.713 117.527  0.00  0.00     0.382 C 
ATOM     23  O   LIG d   1       6.892  85.604 116.578  0.00  0.00    -0.241 OA
ATOM     24  O   LIG d   1       6.444  85.431 118.684  0.00  0.00    -0.241 OA
ENDBRANCH   3  22
TORSDOF 7
ENDMDL
