MODEL 1
REMARK VINA RESULT:      -5.6      0.000      0.000
REMARK  7 active torsions:
REMARK  status: ('A' for Active; 'I' for Inactive)
REMARK    1  A    between atoms: C_2  and  C_3 
REMARK    2  A    between atoms: C_3  and  O_6 
REMARK    3  A    between atoms: C_3  and  C_4 
REMARK    4  A    between atoms: C_7  and  O_6 
REMARK    5  A    between atoms: C_9  and  C_10 
REMARK    6  A    between atoms: N_15  and  C_14 
REMARK    7  A    between atoms: N_20  and  C_19 
REMARK       I    between atoms: C_22  and  N_20 
ROOT
ATOM      1  C   LIG d   1       2.985  89.636 115.496  0.00  0.00     0.161 C 
ATOM      2  C   LIG d   1       2.185  88.900 114.606  0.00  0.00     0.016 C 
ATOM      3  C   LIG d   1       2.645  88.426 113.356  0.00  0.00     0.038 C 
ATOM      4  C   LIG d   1       3.991  88.526 112.976  0.00  0.00     0.028 C 
ATOM      5  C   LIG d   1       4.717  89.703 113.619  0.00  0.00    -0.047 C 
ATOM      6  C   LIG d   1       4.488  89.659 115.147  0.00  0.00     0.091 C 
ENDROOT
BRANCH   1   7
ATOM      7  O   LIG d   1       2.790  89.154 116.841  0.00  0.00    -0.368 OA
BRANCH   7   8
ATOM      8  C   LIG d   1       2.204  90.093 117.776  0.00  0.00     0.119 C 
BRANCH   8   9
ATOM      9  C   LIG d   1       0.795  89.578 118.127  0.00  0.00     0.028 C 
ATOM     10  C   LIG d   1      -0.305  90.271 117.304  0.00  0.00     0.006 C 
ENDBRANCH   8   9
BRANCH   8  11
ATOM     11  C   LIG d   1       1.986  91.463 117.127  0.00  0.00     0.028 C 
ATOM     12  C   LIG d   1       2.736  92.592 117.851  0.00  0.00     0.006 C 
ENDBRANCH   8  11
ENDBRANCH   7   8
ENDBRANCH   1   7
BRANCH   6  13
ATOM     13  N   LIG d   1       5.094  90.822 115.845  0.00  0.00    -0.311 N 
ATOM     14  C   LIG d   1       5.961  90.705 116.849  0.00  0.00     0.210 C 
ATOM     15  C   LIG d   1       6.449  92.031 117.441  0.00  0.00     0.109 C 
ATOM     16  O   LIG d   1       6.397  89.628 117.284  0.00  0.00    -0.276 OA
ATOM     17  H   LIG d   1       4.819  91.734 115.535  0.00  0.00     0.149 HD
ENDBRANCH   6  13
BRANCH   5  18
ATOM     18  N   LIG d   1       6.141  89.606 113.246  0.00  0.00     0.381 N 
ATOM     19  H   LIG d   1       6.579  88.874 113.767  0.00  0.00    -0.090 HD
ATOM     20  H   LIG d   1       6.596  90.472 113.474  0.00  0.00    -0.090 HD
ATOM     21  H   LIG d   1       6.226  89.425 112.270  0.00  0.00    -0.090 HD
ENDBRANCH   5  18
BRANCH   3  22
ATOM     22  C   LIG d   1       1.744  87.879 112.455  0.00  0.00     0.382 C 
ATOM     23  O   LIG d   1       2.163  87.289 111.430  0.00  0.00    -0.241 OA
ATOM     24  O   LIG d   1       0.518  88.007 112.631  0.00  0.00    -0.241 OA
ENDBRANCH   3  22
TORSDOF 7
ENDMDL
MODEL 2
REMARK VINA RESULT:      -5.3      2.058      2.776
REMARK  7 active torsions:
REMARK  status: ('A' for Active; 'I' for Inactive)
REMARK    1  A    between atoms: C_2  and  C_3 
REMARK    2  A    between atoms: C_3  and  O_6 
REMARK    3  A    between atoms: C_3  and  C_4 
REMARK    4  A    between atoms: C_7  and  O_6 
REMARK    5  A    between atoms: C_9  and  C_10 
REMARK    6  A    between atoms: N_15  and  C_14 
REMARK    7  A    between atoms: N_20  and  C_19 
REMARK       I    between atoms: C_22  and  N_20 
ROOT
ATOM      1  C   LIG d   1       3.353  89.024 115.803  0.00  0.00     0.161 C 
ATOM      2  C   LIG d   1       2.585  88.312 114.867  0.00  0.00     0.016 C 
ATOM      3  C   LIG d   1       2.939  88.188 113.504  0.00  0.00     0.038 C 
ATOM      4  C   LIG d   1       4.172  88.642 113.013  0.00  0.00     0.028 C 
ATOM      5  C   LIG d   1       4.749  89.807 113.811  0.00  0.00    -0.047 C 
ATOM      6  C   LIG d   1       4.757  89.432 115.311  0.00  0.00     0.091 C 
ENDROOT
BRANCH   1   7
ATOM      7  O   LIG d   1       3.451  88.271 117.028  0.00  0.00    -0.368 OA
BRANCH   7   8
ATOM      8  C   LIG d   1       4.213  87.040 116.960  0.00  0.00     0.119 C 
BRANCH   8   9
ATOM      9  C   LIG d   1       3.271  85.890 117.366  0.00  0.00     0.028 C 
ATOM     10  C   LIG d   1       2.597  86.135 118.726  0.00  0.00     0.006 C 
ENDBRANCH   8   9
BRANCH   8  11
ATOM     11  C   LIG d   1       5.341  87.025 117.997  0.00  0.00     0.028 C 
ATOM     12  C   LIG d   1       6.579  86.251 117.518  0.00  0.00     0.006 C 
ENDBRANCH   8  11
ENDBRANCH   7   8
ENDBRANCH   1   7
BRANCH   6  13
ATOM     13  N   LIG d   1       5.229  90.549 116.171  0.00  0.00    -0.311 N 
ATOM     14  C   LIG d   1       6.399  90.540 116.808  0.00  0.00     0.210 C 
ATOM     15  C   LIG d   1       6.681  91.783 117.658  0.00  0.00     0.109 C 
ATOM     16  O   LIG d   1       7.244  89.636 116.723  0.00  0.00    -0.276 OA
ATOM     17  H   LIG d   1       4.619  91.336 116.271  0.00  0.00     0.149 HD
ENDBRANCH   6  13
BRANCH   5  18
ATOM     18  N   LIG d   1       6.095  90.089 113.278  0.00  0.00     0.381 N 
ATOM     19  H   LIG d   1       6.109  90.997 112.858  0.00  0.00    -0.090 HD
ATOM     20  H   LIG d   1       6.313  89.410 112.570  0.00  0.00    -0.090 HD
ATOM     21  H   LIG d   1       6.768  90.043 114.011  0.00  0.00    -0.090 HD
ENDBRANCH   5  18
BRANCH   3  22
ATOM     22  C   LIG d   1       2.036  87.637 112.607  0.00  0.00     0.382 C 
ATOM     23  O   LIG d   1       2.393  87.389 111.430  0.00  0.00    -0.241 OA
ATOM     24  O   LIG d   1       0.856  87.426 112.947  0.00  0.00    -0.241 OA
ENDBRANCH   3  22
TORSDOF 7
ENDMDL
MODEL 3
REMARK VINA RESULT:      -4.8      2.101      5.072
REMARK  7 active torsions:
REMARK  status: ('A' for Active; 'I' for Inactive)
REMARK    1  A    between atoms: C_2  and  C_3 
REMARK    2  A    between atoms: C_3  and  O_6 
REMARK    3  A    between atoms: C_3  and  C_4 
REMARK    4  A    between atoms: C_7  and  O_6 
REMARK    5  A    between atoms: C_9  and  C_10 
REMARK    6  A    between atoms: N_15  and  C_14 
REMARK    7  A    between atoms: N_20  and  C_19 
REMARK       I    between atoms: C_22  and  N_20 
ROOT
ATOM      1  C   LIG d   1       2.180  89.530 115.953  0.00  0.00     0.161 C 
ATOM      2  C   LIG d   1       0.879  90.015 116.165  0.00  0.00     0.016 C 
ATOM      3  C   LIG d   1       0.540  90.907 117.208  0.00  0.00     0.038 C 
ATOM      4  C   LIG d   1       1.517  91.498 118.024  0.00  0.00     0.028 C 
ATOM      5  C   LIG d   1       2.777  90.652 118.170  0.00  0.00    -0.047 C 
ATOM      6  C   LIG d   1       3.278  90.250 116.764  0.00  0.00     0.091 C 
ENDROOT
BRANCH   1   7
ATOM      7  O   LIG d   1       2.492  89.566 114.546  0.00  0.00    -0.368 OA
BRANCH   7   8
ATOM      8  C   LIG d   1       2.601  88.282 113.885  0.00  0.00     0.119 C 
BRANCH   8   9
ATOM      9  C   LIG d   1       3.929  88.275 113.103  0.00  0.00     0.028 C 
ATOM     10  C   LIG d   1       4.716  89.585 113.272  0.00  0.00     0.006 C 
ENDBRANCH   8   9
BRANCH   8  11
ATOM     11  C   LIG d   1       1.507  88.105 112.828  0.00  0.00     0.028 C 
ATOM     12  C   LIG d   1       1.919  87.145 111.700  0.00  0.00     0.006 C 
ENDBRANCH   8  11
ENDBRANCH   7   8
ENDBRANCH   1   7
BRANCH   6  13
ATOM     13  N   LIG d   1       4.460  89.351 116.819  0.00  0.00    -0.311 N 
ATOM     14  C   LIG d   1       5.715  89.784 116.721  0.00  0.00     0.210 C 
ATOM     15  C   LIG d   1       6.784  88.687 116.782  0.00  0.00     0.109 C 
ATOM     16  O   LIG d   1       6.048  90.974 116.623  0.00  0.00    -0.276 OA
ATOM     17  H   LIG d   1       4.283  88.372 116.929  0.00  0.00     0.149 HD
ENDBRANCH   6  13
BRANCH   5  18
ATOM     18  N   LIG d   1       3.761  91.446 118.930  0.00  0.00     0.381 N 
ATOM     19  H   LIG d   1       3.288  92.028 119.592  0.00  0.00    -0.090 HD
ATOM     20  H   LIG d   1       4.263  92.038 118.292  0.00  0.00    -0.090 HD
ATOM     21  H   LIG d   1       4.396  90.840 119.403  0.00  0.00    -0.090 HD
ENDBRANCH   5  18
BRANCH   3  22
ATOM     22  C   LIG d   1      -0.793  91.186 117.469  0.00  0.00     0.382 C 
ATOM     23  O   LIG d   1      -1.197  92.373 117.464  0.00  0.00    -0.241 OA
ATOM     24  O   LIG d   1      -1.586  90.268 117.752  0.00  0.00    -0.241 OA
ENDBRANCH   3  22
TORSDOF 7
ENDMDL
MODEL 4
REMARK VINA RESULT:      -4.7      1.475      4.937
REMARK  7 active torsions:
REMARK  status: ('A' for Active; 'I' for Inactive)
REMARK    1  A    between atoms: C_2  and  C_3 
REMARK    2  A    between atoms: C_3  and  O_6 
REMARK    3  A    between atoms: C_3  and  C_4 
REMARK    4  A    between atoms: C_7  and  O_6 
REMARK    5  A    between atoms: C_9  and  C_10 
REMARK    6  A    between atoms: N_15  and  C_14 
REMARK    7  A    between atoms: N_20  and  C_19 
REMARK       I    between atoms: C_22  and  N_20 
ROOT
ATOM      1  C   LIG d   1       3.987  88.967 116.658  0.00  0.00     0.161 C 
ATOM      2  C   LIG d   1       4.810  89.735 117.499  0.00  0.00     0.016 C 
ATOM      3  C   LIG d   1       5.880  90.529 117.026  0.00  0.00     0.038 C 
ATOM      4  C   LIG d   1       6.108  90.727 115.656  0.00  0.00     0.028 C 
ATOM      5  C   LIG d   1       5.619  89.572 114.788  0.00  0.00    -0.047 C 
ATOM      6  C   LIG d   1       4.150  89.257 115.152  0.00  0.00     0.091 C 
ENDROOT
BRANCH   1   7
ATOM      7  O   LIG d   1       2.609  89.118 117.052  0.00  0.00    -0.368 OA
BRANCH   7   8
ATOM      8  C   LIG d   1       1.950  90.331 116.611  0.00  0.00     0.119 C 
BRANCH   8   9
ATOM      9  C   LIG d   1       1.839  91.267 117.830  0.00  0.00     0.028 C 
ATOM     10  C   LIG d   1       2.619  92.578 117.636  0.00  0.00     0.006 C 
ENDBRANCH   8   9
BRANCH   8  11
ATOM     11  C   LIG d   1       0.507  90.055 116.178  0.00  0.00     0.028 C 
ATOM     12  C   LIG d   1      -0.521  90.437 117.255  0.00  0.00     0.006 C 
ENDBRANCH   8  11
ENDBRANCH   7   8
ENDBRANCH   1   7
BRANCH   6  13
ATOM     13  N   LIG d   1       3.620  88.085 114.408  0.00  0.00    -0.311 N 
ATOM     14  C   LIG d   1       2.942  88.187 113.266  0.00  0.00     0.210 C 
ATOM     15  C   LIG d   1       2.469  86.855 112.674  0.00  0.00     0.109 C 
ATOM     16  O   LIG d   1       2.715  89.251 112.671  0.00  0.00    -0.276 OA
ATOM     17  H   LIG d   1       3.787  87.181 114.803  0.00  0.00     0.149 HD
ENDBRANCH   6  13
BRANCH   5  18
ATOM     18  N   LIG d   1       5.793  89.971 113.378  0.00  0.00     0.381 N 
ATOM     19  H   LIG d   1       5.606  90.948 113.277  0.00  0.00    -0.090 HD
ATOM     20  H   LIG d   1       5.133  89.464 112.813  0.00  0.00    -0.090 HD
ATOM     21  H   LIG d   1       6.721  89.769 113.078  0.00  0.00    -0.090 HD
ENDBRANCH   5  18
BRANCH   3  22
ATOM     22  C   LIG d   1       6.762  91.102 117.929  0.00  0.00     0.382 C 
ATOM     23  O   LIG d   1       7.994  90.890 117.824  0.00  0.00    -0.241 OA
ATOM     24  O   LIG d   1       6.337  91.793 118.875  0.00  0.00    -0.241 OA
ENDBRANCH   3  22
TORSDOF 7
ENDMDL
MODEL 5
REMARK VINA RESULT:      -4.6      2.202      4.435
REMARK  7 active torsions:
REMARK  status: ('A' for Active; 'I' for Inactive)
REMARK    1  A    between atoms: C_2  and  C_3 
REMARK    2  A    between atoms: C_3  and  O_6 
REMARK    3  A    between atoms: C_3  and  C_4 
REMARK    4  A    between atoms: C_7  and  O_6 
REMARK    5  A    between atoms: C_9  and  C_10 
REMARK    6  A    between atoms: N_15  and  C_14 
REMARK    7  A    between atoms: N_20  and  C_19 
REMARK       I    between atoms: C_22  and  N_20 
ROOT
ATOM      1  C   LIG d   1       3.699  89.063 116.636  0.00  0.00     0.161 C 
ATOM      2  C   LIG d   1       2.342  89.345 116.406  0.00  0.00     0.016 C 
ATOM      3  C   LIG d   1       1.742  90.587 116.717  0.00  0.00     0.038 C 
ATOM      4  C   LIG d   1       2.498  91.689 117.144  0.00  0.00     0.028 C 
ATOM      5  C   LIG d   1       3.782  91.300 117.868  0.00  0.00    -0.047 C 
ATOM      6  C   LIG d   1       4.563  90.289 116.997  0.00  0.00     0.091 C 
ENDROOT
BRANCH   1   7
ATOM      7  O   LIG d   1       4.255  88.376 115.497  0.00  0.00    -0.368 OA
BRANCH   7   8
ATOM      8  C   LIG d   1       3.473  88.425 114.279  0.00  0.00     0.119 C 
BRANCH   8   9
ATOM      9  C   LIG d   1       3.444  87.002 113.689  0.00  0.00     0.028 C 
ATOM     10  C   LIG d   1       3.639  86.994 112.164  0.00  0.00     0.006 C 
ENDBRANCH   8   9
BRANCH   8  11
ATOM     11  C   LIG d   1       4.153  89.291 113.214  0.00  0.00     0.028 C 
ATOM     12  C   LIG d   1       5.552  89.767 113.638  0.00  0.00     0.006 C 
ENDBRANCH   8  11
ENDBRANCH   7   8
ENDBRANCH   1   7
BRANCH   6  13
ATOM     13  N   LIG d   1       5.791  89.792 117.669  0.00  0.00    -0.311 N 
ATOM     14  C   LIG d   1       6.991  90.346 117.507  0.00  0.00     0.210 C 
ATOM     15  C   LIG d   1       8.128  89.665 118.276  0.00  0.00     0.109 C 
ATOM     16  O   LIG d   1       7.217  91.357 116.824  0.00  0.00    -0.276 OA
ATOM     17  H   LIG d   1       5.693  88.994 118.266  0.00  0.00     0.149 HD
ENDBRANCH   6  13
BRANCH   5  18
ATOM     18  N   LIG d   1       4.537  92.539 118.134  0.00  0.00     0.381 N 
ATOM     19  H   LIG d   1       3.914  93.253 118.455  0.00  0.00    -0.090 HD
ATOM     20  H   LIG d   1       4.960  92.851 117.278  0.00  0.00    -0.090 HD
ATOM     21  H   LIG d   1       5.241  92.369 118.818  0.00  0.00    -0.090 HD
ENDBRANCH   5  18
BRANCH   3  22
ATOM     22  C   LIG d   1       0.364  90.723 116.641  0.00  0.00     0.382 C 
ATOM     23  O   LIG d   1      -0.301  89.958 115.902  0.00  0.00    -0.241 OA
ATOM     24  O   LIG d   1      -0.217  91.630 117.267  0.00  0.00    -0.241 OA
ENDBRANCH   3  22
TORSDOF 7
ENDMDL
MODEL 6
REMARK VINA RESULT:      -4.2      2.918      5.489
REMARK  7 active torsions:
REMARK  status: ('A' for Active; 'I' for Inactive)
REMARK    1  A    between atoms: C_2  and  C_3 
REMARK    2  A    between atoms: C_3  and  O_6 
REMARK    3  A    between atoms: C_3  and  C_4 
REMARK    4  A    between atoms: C_7  and  O_6 
REMARK    5  A    between atoms: C_9  and  C_10 
REMARK    6  A    between atoms: N_15  and  C_14 
REMARK    7  A    between atoms: N_20  and  C_19 
REMARK       I    between atoms: C_22  and  N_20 
ROOT
ATOM      1  C   LIG d   1       1.282  90.357 117.048  0.00  0.00     0.161 C 
ATOM      2  C   LIG d   1      -0.115  90.248 117.147  0.00  0.00     0.016 C 
ATOM      3  C   LIG d   1      -0.928  91.214 117.783  0.00  0.00     0.038 C 
ATOM      4  C   LIG d   1      -0.410  92.437 118.235  0.00  0.00     0.028 C 
ATOM      5  C   LIG d   1       1.066  92.369 118.609  0.00  0.00    -0.047 C 
ATOM      6  C   LIG d   1       1.852  91.737 117.437  0.00  0.00     0.091 C 
ENDROOT
BRANCH   1   7
ATOM      7  O   LIG d   1       1.707  89.995 115.719  0.00  0.00    -0.368 OA
BRANCH   7   8
ATOM      8  C   LIG d   1       2.940  89.240 115.628  0.00  0.00     0.119 C 
BRANCH   8   9
ATOM      9  C   LIG d   1       3.759  89.828 114.463  0.00  0.00     0.028 C 
ATOM     10  C   LIG d   1       5.259  89.924 114.789  0.00  0.00     0.006 C 
ENDBRANCH   8   9
BRANCH   8  11
ATOM     11  C   LIG d   1       2.674  87.782 115.242  0.00  0.00     0.028 C 
ATOM     12  C   LIG d   1       3.617  86.796 115.949  0.00  0.00     0.006 C 
ENDBRANCH   8  11
ENDBRANCH   7   8
ENDBRANCH   1   7
BRANCH   6  13
ATOM     13  N   LIG d   1       3.293  91.556 117.752  0.00  0.00    -0.311 N 
ATOM     14  C   LIG d   1       4.222  92.472 117.488  0.00  0.00     0.210 C 
ATOM     15  C   LIG d   1       5.650  92.076 117.876  0.00  0.00     0.109 C 
ATOM     16  O   LIG d   1       3.995  93.589 116.997  0.00  0.00    -0.276 OA
ATOM     17  H   LIG d   1       3.561  90.691 118.180  0.00  0.00     0.149 HD
ENDBRANCH   6  13
BRANCH   5  18
ATOM     18  N   LIG d   1       1.509  93.739 118.929  0.00  0.00     0.381 N 
ATOM     19  H   LIG d   1       0.713  94.318 119.111  0.00  0.00    -0.090 HD
ATOM     20  H   LIG d   1       1.999  94.116 118.137  0.00  0.00    -0.090 HD
ATOM     21  H   LIG d   1       2.109  93.726 119.725  0.00  0.00    -0.090 HD
ENDBRANCH   5  18
BRANCH   3  22
ATOM     22  C   LIG d   1      -2.269  90.943 118.009  0.00  0.00     0.382 C 
ATOM     23  O   LIG d   1      -2.730  89.804 117.755  0.00  0.00    -0.241 OA
ATOM     24  O   LIG d   1      -3.033  91.835 118.422  0.00  0.00    -0.241 OA
ENDBRANCH   3  22
TORSDOF 7
ENDMDL
MODEL 7
REMARK VINA RESULT:      -4.2      2.617      5.768
REMARK  7 active torsions:
REMARK  status: ('A' for Active; 'I' for Inactive)
REMARK    1  A    between atoms: C_2  and  C_3 
REMARK    2  A    between atoms: C_3  and  O_6 
REMARK    3  A    between atoms: C_3  and  C_4 
REMARK    4  A    between atoms: C_7  and  O_6 
REMARK    5  A    between atoms: C_9  and  C_10 
REMARK    6  A    between atoms: N_15  and  C_14 
REMARK    7  A    between atoms: N_20  and  C_19 
REMARK       I    between atoms: C_22  and  N_20 
ROOT
ATOM      1  C   LIG d   1       5.265  89.774 115.336  0.00  0.00     0.161 C 
ATOM      2  C   LIG d   1       5.151  90.739 116.351  0.00  0.00     0.016 C 
ATOM      3  C   LIG d   1       3.911  91.222 116.829  0.00  0.00     0.038 C 
ATOM      4  C   LIG d   1       2.691  90.658 116.428  0.00  0.00     0.028 C 
ATOM      5  C   LIG d   1       2.740  90.033 115.037  0.00  0.00    -0.047 C 
ATOM      6  C   LIG d   1       3.945  89.067 114.965  0.00  0.00     0.091 C 
ENDROOT
BRANCH   1   7
ATOM      7  O   LIG d   1       6.269  88.804 115.695  0.00  0.00    -0.368 OA
BRANCH   7   8
ATOM      8  C   LIG d   1       6.494  88.615 117.114  0.00  0.00     0.119 C 
BRANCH   8   9
ATOM      9  C   LIG d   1       8.011  88.451 117.324  0.00  0.00     0.028 C 
ATOM     10  C   LIG d   1       8.434  86.976 117.423  0.00  0.00     0.006 C 
ENDBRANCH   8   9
BRANCH   8  11
ATOM     11  C   LIG d   1       5.872  87.305 117.607  0.00  0.00     0.028 C 
ATOM     12  C   LIG d   1       4.511  87.511 118.290  0.00  0.00     0.006 C 
ENDBRANCH   8  11
ENDBRANCH   7   8
ENDBRANCH   1   7
BRANCH   6  13
ATOM     13  N   LIG d   1       4.116  88.476 113.612  0.00  0.00    -0.311 N 
ATOM     14  C   LIG d   1       3.555  87.328 113.237  0.00  0.00     0.210 C 
ATOM     15  C   LIG d   1       3.877  86.888 111.805  0.00  0.00     0.109 C 
ATOM     16  O   LIG d   1       2.795  86.648 113.943  0.00  0.00    -0.276 OA
ATOM     17  H   LIG d   1       4.692  88.978 112.964  0.00  0.00     0.149 HD
ENDBRANCH   6  13
BRANCH   5  18
ATOM     18  N   LIG d   1       1.447  89.364 114.803  0.00  0.00     0.381 N 
ATOM     19  H   LIG d   1       0.930  89.317 115.658  0.00  0.00    -0.090 HD
ATOM     20  H   LIG d   1       1.619  88.426 114.487  0.00  0.00    -0.090 HD
ATOM     21  H   LIG d   1       0.924  89.863 114.117  0.00  0.00    -0.090 HD
ENDBRANCH   5  18
BRANCH   3  22
ATOM     22  C   LIG d   1       3.883  92.308 117.690  0.00  0.00     0.382 C 
ATOM     23  O   LIG d   1       3.170  93.305 117.419  0.00  0.00    -0.241 OA
ATOM     24  O   LIG d   1       4.595  92.323 118.712  0.00  0.00    -0.241 OA
ENDBRANCH   3  22
TORSDOF 7
ENDMDL
MODEL 8
REMARK VINA RESULT:      -3.9      2.841      6.420
REMARK  7 active torsions:
REMARK  status: ('A' for Active; 'I' for Inactive)
REMARK    1  A    between atoms: C_2  and  C_3 
REMARK    2  A    between atoms: C_3  and  O_6 
REMARK    3  A    between atoms: C_3  and  C_4 
REMARK    4  A    between atoms: C_7  and  O_6 
REMARK    5  A    between atoms: C_9  and  C_10 
REMARK    6  A    between atoms: N_15  and  C_14 
REMARK    7  A    between atoms: N_20  and  C_19 
REMARK       I    between atoms: C_22  and  N_20 
ROOT
ATOM      1  C   LIG d   1       4.660  90.982 116.932  0.00  0.00     0.161 C 
ATOM      2  C   LIG d   1       5.930  91.435 117.329  0.00  0.00     0.016 C 
ATOM      3  C   LIG d   1       6.129  92.544 118.182  0.00  0.00     0.038 C 
ATOM      4  C   LIG d   1       5.060  93.189 118.822  0.00  0.00     0.028 C 
ATOM      5  C   LIG d   1       3.745  93.087 118.056  0.00  0.00    -0.047 C 
ATOM      6  C   LIG d   1       3.480  91.604 117.709  0.00  0.00     0.091 C 
ENDROOT
BRANCH   1   7
ATOM      7  O   LIG d   1       4.608  89.544 117.009  0.00  0.00    -0.368 OA
BRANCH   7   8
ATOM      8  C   LIG d   1       4.676  88.836 115.746  0.00  0.00     0.119 C 
BRANCH   8   9
ATOM      9  C   LIG d   1       4.433  89.864 114.625  0.00  0.00     0.028 C 
ATOM     10  C   LIG d   1       5.084  89.448 113.295  0.00  0.00     0.006 C 
ENDBRANCH   8   9
BRANCH   8  11
ATOM     11  C   LIG d   1       3.540  87.817 115.617  0.00  0.00     0.028 C 
ATOM     12  C   LIG d   1       3.527  86.790 116.760  0.00  0.00     0.006 C 
ENDBRANCH   8  11
ENDBRANCH   7   8
ENDBRANCH   1   7
BRANCH   6  13
ATOM     13  N   LIG d   1       2.256  91.424 116.886  0.00  0.00    -0.311 N 
ATOM     14  C   LIG d   1       1.353  90.471 117.113  0.00  0.00     0.210 C 
ATOM     15  C   LIG d   1       0.175  90.450 116.134  0.00  0.00     0.109 C 
ATOM     16  O   LIG d   1       1.400  89.662 118.052  0.00  0.00    -0.276 OA
ATOM     17  H   LIG d   1       2.123  92.057 116.122  0.00  0.00     0.149 HD
ENDBRANCH   6  13
BRANCH   5  18
ATOM     18  N   LIG d   1       2.690  93.679 118.900  0.00  0.00     0.381 N 
ATOM     19  H   LIG d   1       1.797  93.546 118.470  0.00  0.00    -0.090 HD
ATOM     20  H   LIG d   1       2.857  94.667 118.983  0.00  0.00    -0.090 HD
ATOM     21  H   LIG d   1       2.698  93.258 119.803  0.00  0.00    -0.090 HD
ENDBRANCH   5  18
BRANCH   3  22
ATOM     22  C   LIG d   1       7.408  93.045 118.371  0.00  0.00     0.382 C 
ATOM     23  O   LIG d   1       7.570  94.157 118.930  0.00  0.00    -0.241 OA
ATOM     24  O   LIG d   1       8.400  92.420 117.950  0.00  0.00    -0.241 OA
ENDBRANCH   3  22
TORSDOF 7
ENDMDL
MODEL 9
REMARK VINA RESULT:      -3.8      2.435      5.525
REMARK  7 active torsions:
REMARK  status: ('A' for Active; 'I' for Inactive)
REMARK    1  A    between atoms: C_2  and  C_3 
REMARK    2  A    between atoms: C_3  and  O_6 
REMARK    3  A    between atoms: C_3  and  C_4 
REMARK    4  A    between atoms: C_7  and  O_6 
REMARK    5  A    between atoms: C_9  and  C_10 
REMARK    6  A    between atoms: N_15  and  C_14 
REMARK    7  A    between atoms: N_20  and  C_19 
REMARK       I    between atoms: C_22  and  N_20 
ROOT
ATOM      1  C   LIG d   1       3.368  89.915 115.480  0.00  0.00     0.161 C 
ATOM      2  C   LIG d   1       4.762  89.780 115.590  0.00  0.00     0.016 C 
ATOM      3  C   LIG d   1       5.402  89.208 116.713  0.00  0.00     0.038 C 
ATOM      4  C   LIG d   1       4.678  88.590 117.744  0.00  0.00     0.028 C 
ATOM      5  C   LIG d   1       3.270  89.150 117.916  0.00  0.00    -0.047 C 
ATOM      6  C   LIG d   1       2.558  89.146 116.545  0.00  0.00     0.091 C 
ENDROOT
BRANCH   1   7
ATOM      7  O   LIG d   1       2.943  89.534 114.156  0.00  0.00    -0.368 OA
BRANCH   7   8
ATOM      8  C   LIG d   1       2.349  88.219 114.031  0.00  0.00     0.119 C 
BRANCH   8   9
ATOM      9  C   LIG d   1       3.470  87.241 113.626  0.00  0.00     0.028 C 
ATOM     10  C   LIG d   1       3.783  86.218 114.730  0.00  0.00     0.006 C 
ENDBRANCH   8   9
BRANCH   8  11
ATOM     11  C   LIG d   1       1.336  88.172 112.883  0.00  0.00     0.028 C 
ATOM     12  C   LIG d   1       1.692  87.124 111.816  0.00  0.00     0.006 C 
ENDBRANCH   8  11
ENDBRANCH   7   8
ENDBRANCH   1   7
BRANCH   6  13
ATOM     13  N   LIG d   1       1.204  89.757 116.607  0.00  0.00    -0.311 N 
ATOM     14  C   LIG d   1       0.982  91.007 117.008  0.00  0.00     0.210 C 
ATOM     15  C   LIG d   1      -0.490  91.432 117.016  0.00  0.00     0.109 C 
ATOM     16  O   LIG d   1       1.867  91.816 117.326  0.00  0.00    -0.276 OA
ATOM     17  H   LIG d   1       0.431  89.181 116.337  0.00  0.00     0.149 HD
ENDBRANCH   6  13
BRANCH   5  18
ATOM     18  N   LIG d   1       2.583  88.326 118.928  0.00  0.00     0.381 N 
ATOM     19  H   LIG d   1       2.149  88.917 119.608  0.00  0.00    -0.090 HD
ATOM     20  H   LIG d   1       3.262  87.752 119.396  0.00  0.00    -0.090 HD
ATOM     21  H   LIG d   1       1.897  87.751 118.490  0.00  0.00    -0.090 HD
ENDBRANCH   5  18
BRANCH   3  22
ATOM     22  C   LIG d   1       6.781  89.286 116.832  0.00  0.00     0.382 C 
ATOM     23  O   LIG d   1       7.475  88.242 116.781  0.00  0.00    -0.241 OA
ATOM     24  O   LIG d   1       7.337  90.382 117.034  0.00  0.00    -0.241 OA
ENDBRANCH   3  22
TORSDOF 7
ENDMDL
