MODEL 1
REMARK VINA RESULT:      -5.1      0.000      0.000
REMARK  7 active torsions:
REMARK  status: ('A' for Active; 'I' for Inactive)
REMARK    1  A    between atoms: C_2  and  C_3 
REMARK    2  A    between atoms: C_3  and  O_6 
REMARK    3  A    between atoms: C_3  and  C_4 
REMARK    4  A    between atoms: C_7  and  O_6 
REMARK    5  A    between atoms: C_9  and  C_10 
REMARK    6  A    between atoms: N_15  and  C_14 
REMARK    7  A    between atoms: N_20  and  C_19 
REMARK       I    between atoms: C_22  and  N_20 
ROOT
ATOM      1  C   LIG d   1      -5.122  92.937 117.409  0.00  0.00     0.161 C 
ATOM      2  C   LIG d   1      -5.550  94.104 118.063  0.00  0.00     0.016 C 
ATOM      3  C   LIG d   1      -6.863  94.619 117.957  0.00  0.00     0.038 C 
ATOM      4  C   LIG d   1      -7.885  93.913 117.305  0.00  0.00     0.028 C 
ATOM      5  C   LIG d   1      -7.377  92.986 116.207  0.00  0.00    -0.047 C 
ATOM      6  C   LIG d   1      -6.253  92.094 116.784  0.00  0.00     0.091 C 
ENDROOT
BRANCH   1   7
ATOM      7  O   LIG d   1      -4.337  92.132 118.310  0.00  0.00    -0.368 OA
BRANCH   7   8
ATOM      8  C   LIG d   1      -2.929  92.007 117.991  0.00  0.00     0.119 C 
BRANCH   8   9
ATOM      9  C   LIG d   1      -2.453  90.641 118.521  0.00  0.00     0.028 C 
ATOM     10  C   LIG d   1      -2.899  89.475 117.623  0.00  0.00     0.006 C 
ENDBRANCH   8   9
BRANCH   8  11
ATOM     11  C   LIG d   1      -2.093  93.048 118.743  0.00  0.00     0.028 C 
ATOM     12  C   LIG d   1      -1.369  94.024 117.802  0.00  0.00     0.006 C 
ENDBRANCH   8  11
ENDBRANCH   7   8
ENDBRANCH   1   7
BRANCH   6  13
ATOM     13  N   LIG d   1      -5.642  91.215 115.753  0.00  0.00    -0.311 N 
ATOM     14  C   LIG d   1      -5.973  89.935 115.591  0.00  0.00     0.210 C 
ATOM     15  C   LIG d   1      -5.208  89.204 114.484  0.00  0.00     0.109 C 
ATOM     16  O   LIG d   1      -6.851  89.344 116.239  0.00  0.00    -0.276 OA
ATOM     17  H   LIG d   1      -4.943  91.621 115.163  0.00  0.00     0.149 HD
ENDBRANCH   6  13
BRANCH   5  18
ATOM     18  N   LIG d   1      -8.529  92.213 115.707  0.00  0.00     0.381 N 
ATOM     19  H   LIG d   1      -8.477  92.132 114.711  0.00  0.00    -0.090 HD
ATOM     20  H   LIG d   1      -9.375  92.704 115.939  0.00  0.00    -0.090 HD
ATOM     21  H   LIG d   1      -8.538  91.307 116.121  0.00  0.00    -0.090 HD
ENDBRANCH   5  18
BRANCH   3  22
ATOM     22  C   LIG d   1      -7.153  95.872 118.473  0.00  0.00     0.382 C 
ATOM     23  O   LIG d   1      -6.247  96.735 118.571  0.00  0.00    -0.241 OA
ATOM     24  O   LIG d   1      -8.299  96.137 118.883  0.00  0.00    -0.241 OA
ENDBRANCH   3  22
TORSDOF 7
ENDMDL
MODEL 2
REMARK VINA RESULT:      -4.8      2.319      4.349
REMARK  7 active torsions:
REMARK  status: ('A' for Active; 'I' for Inactive)
REMARK    1  A    between atoms: C_2  and  C_3 
REMARK    2  A    between atoms: C_3  and  O_6 
REMARK    3  A    between atoms: C_3  and  C_4 
REMARK    4  A    between atoms: C_7  and  O_6 
REMARK    5  A    between atoms: C_9  and  C_10 
REMARK    6  A    between atoms: N_15  and  C_14 
REMARK    7  A    between atoms: N_20  and  C_19 
REMARK       I    between atoms: C_22  and  N_20 
ROOT
ATOM      1  C   LIG d   1      -5.586  92.028 118.589  0.00  0.00     0.161 C 
ATOM      2  C   LIG d   1      -6.837  92.668 118.601  0.00  0.00     0.016 C 
ATOM      3  C   LIG d   1      -6.993  94.073 118.603  0.00  0.00     0.038 C 
ATOM      4  C   LIG d   1      -5.902  94.940 118.439  0.00  0.00     0.028 C 
ATOM      5  C   LIG d   1      -4.583  94.353 118.930  0.00  0.00    -0.047 C 
ATOM      6  C   LIG d   1      -4.389  92.956 118.297  0.00  0.00     0.091 C 
ENDROOT
BRANCH   1   7
ATOM      7  O   LIG d   1      -5.608  90.930 117.655  0.00  0.00    -0.368 OA
BRANCH   7   8
ATOM      8  C   LIG d   1      -6.677  90.947 116.677  0.00  0.00     0.119 C 
BRANCH   8   9
ATOM      9  C   LIG d   1      -7.325  89.549 116.675  0.00  0.00     0.028 C 
ATOM     10  C   LIG d   1      -8.453  89.426 115.636  0.00  0.00     0.006 C 
ENDBRANCH   8   9
BRANCH   8  11
ATOM     11  C   LIG d   1      -6.131  91.142 115.259  0.00  0.00     0.028 C 
ATOM     12  C   LIG d   1      -6.485  92.516 114.668  0.00  0.00     0.006 C 
ENDBRANCH   8  11
ENDBRANCH   7   8
ENDBRANCH   1   7
BRANCH   6  13
ATOM     13  N   LIG d   1      -3.162  92.276 118.790  0.00  0.00    -0.311 N 
ATOM     14  C   LIG d   1      -1.975  92.384 118.196  0.00  0.00     0.210 C 
ATOM     15  C   LIG d   1      -0.847  91.585 118.856  0.00  0.00     0.109 C 
ATOM     16  O   LIG d   1      -1.742  93.091 117.205  0.00  0.00    -0.276 OA
ATOM     17  H   LIG d   1      -3.254  91.707 119.609  0.00  0.00     0.149 HD
ENDBRANCH   6  13
BRANCH   5  18
ATOM     18  N   LIG d   1      -3.513  95.303 118.573  0.00  0.00     0.381 N 
ATOM     19  H   LIG d   1      -3.271  95.195 117.608  0.00  0.00    -0.090 HD
ATOM     20  H   LIG d   1      -2.699  95.100 119.127  0.00  0.00    -0.090 HD
ATOM     21  H   LIG d   1      -3.815  96.237 118.744  0.00  0.00    -0.090 HD
ENDBRANCH   5  18
BRANCH   3  22
ATOM     22  C   LIG d   1      -8.248  94.625 118.811  0.00  0.00     0.382 C 
ATOM     23  O   LIG d   1      -8.374  95.868 118.928  0.00  0.00    -0.241 OA
ATOM     24  O   LIG d   1      -9.249  93.893 118.928  0.00  0.00    -0.241 OA
ENDBRANCH   3  22
TORSDOF 7
ENDMDL
MODEL 3
REMARK VINA RESULT:      -4.7      8.189     10.167
REMARK  7 active torsions:
REMARK  status: ('A' for Active; 'I' for Inactive)
REMARK    1  A    between atoms: C_2  and  C_3 
REMARK    2  A    between atoms: C_3  and  O_6 
REMARK    3  A    between atoms: C_3  and  C_4 
REMARK    4  A    between atoms: C_7  and  O_6 
REMARK    5  A    between atoms: C_9  and  C_10 
REMARK    6  A    between atoms: N_15  and  C_14 
REMARK    7  A    between atoms: N_20  and  C_19 
REMARK       I    between atoms: C_22  and  N_20 
ROOT
ATOM      1  C   LIG d   1       2.429  88.060 115.480  0.00  0.00     0.161 C 
ATOM      2  C   LIG d   1       2.628  88.956 116.544  0.00  0.00     0.016 C 
ATOM      3  C   LIG d   1       3.585  89.997 116.517  0.00  0.00     0.038 C 
ATOM      4  C   LIG d   1       4.307  90.309 115.356  0.00  0.00     0.028 C 
ATOM      5  C   LIG d   1       4.502  89.117 114.425  0.00  0.00    -0.047 C 
ATOM      6  C   LIG d   1       3.130  88.455 114.163  0.00  0.00     0.091 C 
ENDROOT
BRANCH   1   7
ATOM      7  O   LIG d   1       1.017  87.871 115.259  0.00  0.00    -0.368 OA
BRANCH   7   8
ATOM      8  C   LIG d   1       0.444  86.657 115.803  0.00  0.00     0.119 C 
BRANCH   8   9
ATOM      9  C   LIG d   1       0.351  85.634 114.654  0.00  0.00     0.028 C 
ATOM     10  C   LIG d   1      -0.591  86.096 113.531  0.00  0.00     0.006 C 
ENDBRANCH   8   9
BRANCH   8  11
ATOM     11  C   LIG d   1      -0.999  86.880 116.264  0.00  0.00     0.028 C 
ATOM     12  C   LIG d   1      -1.096  87.790 117.499  0.00  0.00     0.006 C 
ENDBRANCH   8  11
ENDBRANCH   7   8
ENDBRANCH   1   7
BRANCH   6  13
ATOM     13  N   LIG d   1       3.241  87.230 113.329  0.00  0.00    -0.311 N 
ATOM     14  C   LIG d   1       2.718  87.123 112.109  0.00  0.00     0.210 C 
ATOM     15  C   LIG d   1       2.931  85.767 111.430  0.00  0.00     0.109 C 
ATOM     16  O   LIG d   1       2.125  88.034 111.512  0.00  0.00    -0.276 OA
ATOM     17  H   LIG d   1       3.734  86.452 113.724  0.00  0.00     0.149 HD
ENDBRANCH   6  13
BRANCH   5  18
ATOM     18  N   LIG d   1       5.148  89.613 113.195  0.00  0.00     0.381 N 
ATOM     19  H   LIG d   1       5.904  89.008 112.941  0.00  0.00    -0.090 HD
ATOM     20  H   LIG d   1       5.522  90.529 113.371  0.00  0.00    -0.090 HD
ATOM     21  H   LIG d   1       4.484  89.654 112.454  0.00  0.00    -0.090 HD
ENDBRANCH   5  18
BRANCH   3  22
ATOM     22  C   LIG d   1       3.855  90.713 117.673  0.00  0.00     0.382 C 
ATOM     23  O   LIG d   1       3.695  90.175 118.795  0.00  0.00    -0.241 OA
ATOM     24  O   LIG d   1       4.213  91.904 117.609  0.00  0.00    -0.241 OA
ENDBRANCH   3  22
TORSDOF 7
ENDMDL
MODEL 4
REMARK VINA RESULT:      -4.4      7.110      8.996
REMARK  7 active torsions:
REMARK  status: ('A' for Active; 'I' for Inactive)
REMARK    1  A    between atoms: C_2  and  C_3 
REMARK    2  A    between atoms: C_3  and  O_6 
REMARK    3  A    between atoms: C_3  and  C_4 
REMARK    4  A    between atoms: C_7  and  O_6 
REMARK    5  A    between atoms: C_9  and  C_10 
REMARK    6  A    between atoms: N_15  and  C_14 
REMARK    7  A    between atoms: N_20  and  C_19 
REMARK       I    between atoms: C_22  and  N_20 
ROOT
ATOM      1  C   LIG d   1       2.601  88.937 115.934  0.00  0.00     0.161 C 
ATOM      2  C   LIG d   1       3.150  90.083 116.533  0.00  0.00     0.016 C 
ATOM      3  C   LIG d   1       2.385  91.024 117.261  0.00  0.00     0.038 C 
ATOM      4  C   LIG d   1       1.035  90.801 117.569  0.00  0.00     0.028 C 
ATOM      5  C   LIG d   1       0.322  89.910 116.558  0.00  0.00    -0.047 C 
ATOM      6  C   LIG d   1       1.150  88.621 116.353  0.00  0.00     0.091 C 
ENDROOT
BRANCH   1   7
ATOM      7  O   LIG d   1       3.453  87.801 116.180  0.00  0.00    -0.368 OA
BRANCH   7   8
ATOM      8  C   LIG d   1       4.300  87.390 115.079  0.00  0.00     0.119 C 
BRANCH   8   9
ATOM      9  C   LIG d   1       5.693  88.006 115.312  0.00  0.00     0.028 C 
ATOM     10  C   LIG d   1       6.445  87.333 116.473  0.00  0.00     0.006 C 
ENDBRANCH   8   9
BRANCH   8  11
ATOM     11  C   LIG d   1       3.814  87.978 113.751  0.00  0.00     0.028 C 
ATOM     12  C   LIG d   1       4.924  88.713 112.983  0.00  0.00     0.006 C 
ENDBRANCH   8  11
ENDBRANCH   7   8
ENDBRANCH   1   7
BRANCH   6  13
ATOM     13  N   LIG d   1       0.566  87.730 115.317  0.00  0.00    -0.311 N 
ATOM     14  C   LIG d   1      -0.267  86.729 115.595  0.00  0.00     0.210 C 
ATOM     15  C   LIG d   1      -0.736  85.922 114.380  0.00  0.00     0.109 C 
ATOM     16  O   LIG d   1      -0.686  86.452 116.729  0.00  0.00    -0.276 OA
ATOM     17  H   LIG d   1       0.829  87.904 114.366  0.00  0.00     0.149 HD
ENDBRANCH   6  13
BRANCH   5  18
ATOM     18  N   LIG d   1      -1.036  89.649 117.073  0.00  0.00     0.381 N 
ATOM     19  H   LIG d   1      -1.324  90.402 117.665  0.00  0.00    -0.090 HD
ATOM     20  H   LIG d   1      -1.020  88.806 117.620  0.00  0.00    -0.090 HD
ATOM     21  H   LIG d   1      -1.675  89.550 116.315  0.00  0.00    -0.090 HD
ENDBRANCH   5  18
BRANCH   3  22
ATOM     22  C   LIG d   1       2.962  92.221 117.654  0.00  0.00     0.382 C 
ATOM     23  O   LIG d   1       3.990  92.644 117.071  0.00  0.00    -0.241 OA
ATOM     24  O   LIG d   1       2.494  92.863 118.614  0.00  0.00    -0.241 OA
ENDBRANCH   3  22
TORSDOF 7
ENDMDL
MODEL 5
REMARK VINA RESULT:      -4.4      8.640     10.798
REMARK  7 active torsions:
REMARK  status: ('A' for Active; 'I' for Inactive)
REMARK    1  A    between atoms: C_2  and  C_3 
REMARK    2  A    between atoms: C_3  and  O_6 
REMARK    3  A    between atoms: C_3  and  C_4 
REMARK    4  A    between atoms: C_7  and  O_6 
REMARK    5  A    between atoms: C_9  and  C_10 
REMARK    6  A    between atoms: N_15  and  C_14 
REMARK    7  A    between atoms: N_20  and  C_19 
REMARK       I    between atoms: C_22  and  N_20 
ROOT
ATOM      1  C   LIG d   1       3.614  87.463 115.979  0.00  0.00     0.161 C 
ATOM      2  C   LIG d   1       4.111  88.224 117.051  0.00  0.00     0.016 C 
ATOM      3  C   LIG d   1       4.792  89.451 116.884  0.00  0.00     0.038 C 
ATOM      4  C   LIG d   1       4.891  90.081 115.635  0.00  0.00     0.028 C 
ATOM      5  C   LIG d   1       4.847  89.108 114.461  0.00  0.00    -0.047 C 
ATOM      6  C   LIG d   1       3.614  88.189 114.617  0.00  0.00     0.091 C 
ENDROOT
BRANCH   1   7
ATOM      7  O   LIG d   1       2.291  86.985 116.292  0.00  0.00    -0.368 OA
BRANCH   7   8
ATOM      8  C   LIG d   1       1.190  87.794 115.811  0.00  0.00     0.119 C 
BRANCH   8   9
ATOM      9  C   LIG d   1       0.774  88.738 116.956  0.00  0.00     0.028 C 
ATOM     10  C   LIG d   1       1.003  90.218 116.609  0.00  0.00     0.006 C 
ENDBRANCH   8   9
BRANCH   8  11
ATOM     11  C   LIG d   1      -0.046  86.938 115.521  0.00  0.00     0.028 C 
ATOM     12  C   LIG d   1       0.050  86.185 114.184  0.00  0.00     0.006 C 
ENDBRANCH   8  11
ENDBRANCH   7   8
ENDBRANCH   1   7
BRANCH   6  13
ATOM     13  N   LIG d   1       3.543  87.151 113.555  0.00  0.00    -0.311 N 
ATOM     14  C   LIG d   1       2.965  87.352 112.372  0.00  0.00     0.210 C 
ATOM     15  C   LIG d   1       2.984  86.144 111.430  0.00  0.00     0.109 C 
ATOM     16  O   LIG d   1       2.468  88.426 112.001  0.00  0.00    -0.276 OA
ATOM     17  H   LIG d   1       3.949  86.259 113.761  0.00  0.00     0.149 HD
ENDBRANCH   6  13
BRANCH   5  18
ATOM     18  N   LIG d   1       4.820  89.906 113.221  0.00  0.00     0.381 N 
ATOM     19  H   LIG d   1       4.706  89.302 112.432  0.00  0.00    -0.090 HD
ATOM     20  H   LIG d   1       5.696  90.388 113.125  0.00  0.00    -0.090 HD
ATOM     21  H   LIG d   1       4.072  90.564 113.255  0.00  0.00    -0.090 HD
ENDBRANCH   5  18
BRANCH   3  22
ATOM     22  C   LIG d   1       5.419  90.042 117.971  0.00  0.00     0.382 C 
ATOM     23  O   LIG d   1       6.655  89.902 118.134  0.00  0.00    -0.241 OA
ATOM     24  O   LIG d   1       4.757  90.677 118.814  0.00  0.00    -0.241 OA
ENDBRANCH   3  22
TORSDOF 7
ENDMDL
MODEL 6
REMARK VINA RESULT:      -4.3      5.948      8.662
REMARK  7 active torsions:
REMARK  status: ('A' for Active; 'I' for Inactive)
REMARK    1  A    between atoms: C_2  and  C_3 
REMARK    2  A    between atoms: C_3  and  O_6 
REMARK    3  A    between atoms: C_3  and  C_4 
REMARK    4  A    between atoms: C_7  and  O_6 
REMARK    5  A    between atoms: C_9  and  C_10 
REMARK    6  A    between atoms: N_15  and  C_14 
REMARK    7  A    between atoms: N_20  and  C_19 
REMARK       I    between atoms: C_22  and  N_20 
ROOT
ATOM      1  C   LIG d   1       0.886  88.414 116.474  0.00  0.00     0.161 C 
ATOM      2  C   LIG d   1      -0.458  88.575 116.853  0.00  0.00     0.016 C 
ATOM      3  C   LIG d   1      -0.984  89.787 117.355  0.00  0.00     0.038 C 
ATOM      4  C   LIG d   1      -0.233  90.972 117.370  0.00  0.00     0.028 C 
ATOM      5  C   LIG d   1       1.270  90.735 117.470  0.00  0.00    -0.047 C 
ATOM      6  C   LIG d   1       1.693  89.725 116.379  0.00  0.00     0.091 C 
ENDROOT
BRANCH   1   7
ATOM      7  O   LIG d   1       0.959  87.689 115.230  0.00  0.00    -0.368 OA
BRANCH   7   8
ATOM      8  C   LIG d   1       1.260  86.276 115.332  0.00  0.00     0.119 C 
BRANCH   8   9
ATOM      9  C   LIG d   1       2.714  86.077 114.864  0.00  0.00     0.028 C 
ATOM     10  C   LIG d   1       2.915  86.469 113.390  0.00  0.00     0.006 C 
ENDBRANCH   8   9
BRANCH   8  11
ATOM     11  C   LIG d   1       0.406  85.452 114.363  0.00  0.00     0.028 C 
ATOM     12  C   LIG d   1      -1.006  86.029 114.176  0.00  0.00     0.006 C 
ENDBRANCH   8  11
ENDBRANCH   7   8
ENDBRANCH   1   7
BRANCH   6  13
ATOM     13  N   LIG d   1       3.134  89.373 116.460  0.00  0.00    -0.311 N 
ATOM     14  C   LIG d   1       3.972  89.469 115.429  0.00  0.00     0.210 C 
ATOM     15  C   LIG d   1       5.412  89.036 115.723  0.00  0.00     0.109 C 
ATOM     16  O   LIG d   1       3.666  89.901 114.307  0.00  0.00    -0.276 OA
ATOM     17  H   LIG d   1       3.474  89.042 117.342  0.00  0.00     0.149 HD
ENDBRANCH   6  13
BRANCH   5  18
ATOM     18  N   LIG d   1       1.938  92.044 117.337  0.00  0.00     0.381 N 
ATOM     19  H   LIG d   1       2.506  92.051 116.514  0.00  0.00    -0.090 HD
ATOM     20  H   LIG d   1       2.533  92.187 118.133  0.00  0.00    -0.090 HD
ATOM     21  H   LIG d   1       1.257  92.770 117.287  0.00  0.00    -0.090 HD
ENDBRANCH   5  18
BRANCH   3  22
ATOM     22  C   LIG d   1      -2.265  89.813 117.886  0.00  0.00     0.382 C 
ATOM     23  O   LIG d   1      -2.735  90.884 118.338  0.00  0.00    -0.241 OA
ATOM     24  O   LIG d   1      -2.939  88.768 117.959  0.00  0.00    -0.241 OA
ENDBRANCH   3  22
TORSDOF 7
ENDMDL
MODEL 7
REMARK VINA RESULT:      -4.2      8.498     11.408
REMARK  7 active torsions:
REMARK  status: ('A' for Active; 'I' for Inactive)
REMARK    1  A    between atoms: C_2  and  C_3 
REMARK    2  A    between atoms: C_3  and  O_6 
REMARK    3  A    between atoms: C_3  and  C_4 
REMARK    4  A    between atoms: C_7  and  O_6 
REMARK    5  A    between atoms: C_9  and  C_10 
REMARK    6  A    between atoms: N_15  and  C_14 
REMARK    7  A    between atoms: N_20  and  C_19 
REMARK       I    between atoms: C_22  and  N_20 
ROOT
ATOM      1  C   LIG d   1       3.007  88.283 114.969  0.00  0.00     0.161 C 
ATOM      2  C   LIG d   1       2.267  87.525 114.047  0.00  0.00     0.016 C 
ATOM      3  C   LIG d   1       2.708  87.250 112.732  0.00  0.00     0.038 C 
ATOM      4  C   LIG d   1       3.997  87.592 112.296  0.00  0.00     0.028 C 
ATOM      5  C   LIG d   1       4.583  88.797 113.024  0.00  0.00    -0.047 C 
ATOM      6  C   LIG d   1       4.464  88.570 114.548  0.00  0.00     0.091 C 
ENDROOT
BRANCH   1   7
ATOM      7  O   LIG d   1       2.975  87.649 116.262  0.00  0.00    -0.368 OA
BRANCH   7   8
ATOM      8  C   LIG d   1       2.007  88.172 117.205  0.00  0.00     0.119 C 
BRANCH   8   9
ATOM      9  C   LIG d   1       1.678  89.615 116.778  0.00  0.00     0.028 C 
ATOM     10  C   LIG d   1       0.165  89.885 116.737  0.00  0.00     0.006 C 
ENDBRANCH   8   9
BRANCH   8  11
ATOM     11  C   LIG d   1       2.606  88.291 118.610  0.00  0.00     0.028 C 
ATOM     12  C   LIG d   1       3.191  89.684 118.892  0.00  0.00     0.006 C 
ENDBRANCH   8  11
ENDBRANCH   7   8
ENDBRANCH   1   7
BRANCH   6  13
ATOM     13  N   LIG d   1       4.938  89.739 115.334  0.00  0.00    -0.311 N 
ATOM     14  C   LIG d   1       5.783  89.640 116.359  0.00  0.00     0.210 C 
ATOM     15  C   LIG d   1       6.126  90.966 117.045  0.00  0.00     0.109 C 
ATOM     16  O   LIG d   1       6.305  88.583 116.745  0.00  0.00    -0.276 OA
ATOM     17  H   LIG d   1       4.588  90.639 115.069  0.00  0.00     0.149 HD
ENDBRANCH   6  13
BRANCH   5  18
ATOM     18  N   LIG d   1       5.977  88.957 112.570  0.00  0.00     0.381 N 
ATOM     19  H   LIG d   1       5.992  89.375 111.661  0.00  0.00    -0.090 HD
ATOM     20  H   LIG d   1       6.404  88.050 112.507  0.00  0.00    -0.090 HD
ATOM     21  H   LIG d   1       6.482  89.526 113.213  0.00  0.00    -0.090 HD
ENDBRANCH   5  18
BRANCH   3  22
ATOM     22  C   LIG d   1       1.840  86.662 111.825  0.00  0.00     0.382 C 
ATOM     23  O   LIG d   1       0.827  87.289 111.430  0.00  0.00    -0.241 OA
ATOM     24  O   LIG d   1       2.033  85.497 111.430  0.00  0.00    -0.241 OA
ENDBRANCH   3  22
TORSDOF 7
ENDMDL
MODEL 8
REMARK VINA RESULT:      -4.2      3.287      5.685
REMARK  7 active torsions:
REMARK  status: ('A' for Active; 'I' for Inactive)
REMARK    1  A    between atoms: C_2  and  C_3 
REMARK    2  A    between atoms: C_3  and  O_6 
REMARK    3  A    between atoms: C_3  and  C_4 
REMARK    4  A    between atoms: C_7  and  O_6 
REMARK    5  A    between atoms: C_9  and  C_10 
REMARK    6  A    between atoms: N_15  and  C_14 
REMARK    7  A    between atoms: N_20  and  C_19 
REMARK       I    between atoms: C_22  and  N_20 
ROOT
ATOM      1  C   LIG d   1      -2.664  91.029 117.528  0.00  0.00     0.161 C 
ATOM      2  C   LIG d   1      -2.758  92.410 117.766  0.00  0.00     0.016 C 
ATOM      3  C   LIG d   1      -1.632  93.254 117.908  0.00  0.00     0.038 C 
ATOM      4  C   LIG d   1      -0.328  92.796 117.670  0.00  0.00     0.028 C 
ATOM      5  C   LIG d   1      -0.154  91.302 117.923  0.00  0.00    -0.047 C 
ATOM      6  C   LIG d   1      -1.251  90.532 117.154  0.00  0.00     0.091 C 
ENDROOT
BRANCH   1   7
ATOM      7  O   LIG d   1      -3.615  90.642 116.516  0.00  0.00    -0.368 OA
BRANCH   7   8
ATOM      8  C   LIG d   1      -4.867  91.370 116.507  0.00  0.00     0.119 C 
BRANCH   8   9
ATOM      9  C   LIG d   1      -5.767  90.756 117.598  0.00  0.00     0.028 C 
ATOM     10  C   LIG d   1      -6.371  91.822 118.528  0.00  0.00     0.006 C 
ENDBRANCH   8   9
BRANCH   8  11
ATOM     11  C   LIG d   1      -5.624  91.160 115.192  0.00  0.00     0.028 C 
ATOM     12  C   LIG d   1      -6.490  92.369 114.804  0.00  0.00     0.006 C 
ENDBRANCH   8  11
ENDBRANCH   7   8
ENDBRANCH   1   7
BRANCH   6  13
ATOM     13  N   LIG d   1      -1.206  89.069 117.415  0.00  0.00    -0.311 N 
ATOM     14  C   LIG d   1      -0.393  88.235 116.770  0.00  0.00     0.210 C 
ATOM     15  C   LIG d   1      -0.520  86.763 117.178  0.00  0.00     0.109 C 
ATOM     16  O   LIG d   1       0.444  88.577 115.922  0.00  0.00    -0.276 OA
ATOM     17  H   LIG d   1      -1.830  88.710 118.110  0.00  0.00     0.149 HD
ENDBRANCH   6  13
BRANCH   5  18
ATOM     18  N   LIG d   1       1.212  90.935 117.505  0.00  0.00     0.381 N 
ATOM     19  H   LIG d   1       1.543  90.172 118.062  0.00  0.00    -0.090 HD
ATOM     20  H   LIG d   1       1.820  91.721 117.653  0.00  0.00    -0.090 HD
ATOM     21  H   LIG d   1       1.216  90.679 116.542  0.00  0.00    -0.090 HD
ENDBRANCH   5  18
BRANCH   3  22
ATOM     22  C   LIG d   1      -1.803  94.563 118.332  0.00  0.00     0.382 C 
ATOM     23  O   LIG d   1      -0.817  95.226 118.732  0.00  0.00    -0.241 OA
ATOM     24  O   LIG d   1      -2.939  95.074 118.360  0.00  0.00    -0.241 OA
ENDBRANCH   3  22
TORSDOF 7
ENDMDL
MODEL 9
REMARK VINA RESULT:      -4.1      2.445      3.605
REMARK  7 active torsions:
REMARK  status: ('A' for Active; 'I' for Inactive)
REMARK    1  A    between atoms: C_2  and  C_3 
REMARK    2  A    between atoms: C_3  and  O_6 
REMARK    3  A    between atoms: C_3  and  C_4 
REMARK    4  A    between atoms: C_7  and  O_6 
REMARK    5  A    between atoms: C_9  and  C_10 
REMARK    6  A    between atoms: N_15  and  C_14 
REMARK    7  A    between atoms: N_20  and  C_19 
REMARK       I    between atoms: C_22  and  N_20 
ROOT
ATOM      1  C   LIG d   1      -3.062  91.771 117.629  0.00  0.00     0.161 C 
ATOM      2  C   LIG d   1      -2.222  92.793 118.101  0.00  0.00     0.016 C 
ATOM      3  C   LIG d   1      -2.688  94.076 118.470  0.00  0.00     0.038 C 
ATOM      4  C   LIG d   1      -4.057  94.376 118.535  0.00  0.00     0.028 C 
ATOM      5  C   LIG d   1      -4.907  93.539 117.586  0.00  0.00    -0.047 C 
ATOM      6  C   LIG d   1      -4.571  92.045 117.798  0.00  0.00     0.091 C 
ENDROOT
BRANCH   1   7
ATOM      7  O   LIG d   1      -2.707  90.520 118.250  0.00  0.00    -0.368 OA
BRANCH   7   8
ATOM      8  C   LIG d   1      -1.864  89.637 117.469  0.00  0.00     0.119 C 
BRANCH   8   9
ATOM      9  C   LIG d   1      -2.179  88.193 117.903  0.00  0.00     0.028 C 
ATOM     10  C   LIG d   1      -1.310  87.157 117.169  0.00  0.00     0.006 C 
ENDBRANCH   8   9
BRANCH   8  11
ATOM     11  C   LIG d   1      -0.383  89.846 117.798  0.00  0.00     0.028 C 
ATOM     12  C   LIG d   1       0.400  90.486 116.641  0.00  0.00     0.006 C 
ENDBRANCH   8  11
ENDBRANCH   7   8
ENDBRANCH   1   7
BRANCH   6  13
ATOM     13  N   LIG d   1      -5.298  91.160 116.850  0.00  0.00    -0.311 N 
ATOM     14  C   LIG d   1      -6.531  90.708 117.068  0.00  0.00     0.210 C 
ATOM     15  C   LIG d   1      -7.088  89.793 115.972  0.00  0.00     0.109 C 
ATOM     16  O   LIG d   1      -7.230  91.003 118.050  0.00  0.00    -0.276 OA
ATOM     17  H   LIG d   1      -4.817  90.897 116.012  0.00  0.00     0.149 HD
ENDBRANCH   6  13
BRANCH   5  18
ATOM     18  N   LIG d   1      -6.322  93.857 117.856  0.00  0.00     0.381 N 
ATOM     19  H   LIG d   1      -6.912  93.201 117.386  0.00  0.00    -0.090 HD
ATOM     20  H   LIG d   1      -6.522  94.774 117.498  0.00  0.00    -0.090 HD
ATOM     21  H   LIG d   1      -6.497  93.829 118.836  0.00  0.00    -0.090 HD
ENDBRANCH   5  18
BRANCH   3  22
ATOM     22  C   LIG d   1      -1.778  95.086 118.741  0.00  0.00     0.382 C 
ATOM     23  O   LIG d   1      -2.182  96.259 118.930  0.00  0.00    -0.241 OA
ATOM     24  O   LIG d   1      -0.556  94.848 118.756  0.00  0.00    -0.241 OA
ENDBRANCH   3  22
TORSDOF 7
ENDMDL
