MODEL 1
REMARK VINA RESULT:      -4.9      0.000      0.000
REMARK  7 active torsions:
REMARK  status: ('A' for Active; 'I' for Inactive)
REMARK    1  A    between atoms: C_2  and  C_3 
REMARK    2  A    between atoms: C_3  and  O_6 
REMARK    3  A    between atoms: C_3  and  C_4 
REMARK    4  A    between atoms: C_7  and  O_6 
REMARK    5  A    between atoms: C_9  and  C_10 
REMARK    6  A    between atoms: N_15  and  C_14 
REMARK    7  A    between atoms: N_20  and  C_19 
REMARK       I    between atoms: C_22  and  N_20 
ROOT
ATOM      1  C   LIG d   1       2.106  86.365 115.160  0.00  0.00     0.161 C 
ATOM      2  C   LIG d   1       1.004  86.055 115.974  0.00  0.00     0.016 C 
ATOM      3  C   LIG d   1       0.419  86.975 116.875  0.00  0.00     0.038 C 
ATOM      4  C   LIG d   1       0.804  88.323 116.912  0.00  0.00     0.028 C 
ATOM      5  C   LIG d   1       2.246  88.554 116.472  0.00  0.00    -0.047 C 
ATOM      6  C   LIG d   1       2.469  87.864 115.106  0.00  0.00     0.091 C 
ENDROOT
BRANCH   1   7
ATOM      7  O   LIG d   1       1.890  85.855 113.829  0.00  0.00    -0.368 OA
BRANCH   7   8
ATOM      8  C   LIG d   1       1.128  86.704 112.937  0.00  0.00     0.119 C 
BRANCH   8   9
ATOM      9  C   LIG d   1      -0.140  85.927 112.530  0.00  0.00     0.028 C 
ATOM     10  C   LIG d   1      -0.940  86.646 111.431  0.00  0.00     0.006 C 
ENDBRANCH   8   9
BRANCH   8  11
ATOM     11  C   LIG d   1       1.884  86.959 111.630  0.00  0.00     0.028 C 
ATOM     12  C   LIG d   1       3.200  86.171 111.539  0.00  0.00     0.006 C 
ENDBRANCH   8  11
ENDBRANCH   7   8
ENDBRANCH   1   7
BRANCH   6  13
ATOM     13  N   LIG d   1       3.877  87.970 114.642  0.00  0.00    -0.311 N 
ATOM     14  C   LIG d   1       4.314  88.940 113.841  0.00  0.00     0.210 C 
ATOM     15  C   LIG d   1       5.797  88.850 113.467  0.00  0.00     0.109 C 
ATOM     16  O   LIG d   1       3.622  89.883 113.430  0.00  0.00    -0.276 OA
ATOM     17  H   LIG d   1       4.514  87.263 114.953  0.00  0.00     0.149 HD
ENDBRANCH   6  13
BRANCH   5  18
ATOM     18  N   LIG d   1       2.470  90.011 116.427  0.00  0.00     0.381 N 
ATOM     19  H   LIG d   1       1.975  90.453 117.175  0.00  0.00    -0.090 HD
ATOM     20  H   LIG d   1       2.113  90.369 115.558  0.00  0.00    -0.090 HD
ATOM     21  H   LIG d   1       3.444  90.209 116.501  0.00  0.00    -0.090 HD
ENDBRANCH   5  18
BRANCH   3  22
ATOM     22  C   LIG d   1      -0.537  86.537 117.779  0.00  0.00     0.382 C 
ATOM     23  O   LIG d   1      -1.555  87.236 118.002  0.00  0.00    -0.241 OA
ATOM     24  O   LIG d   1      -0.373  85.474 118.406  0.00  0.00    -0.241 OA
ENDBRANCH   3  22
TORSDOF 7
ENDMDL
MODEL 2
REMARK VINA RESULT:      -4.5      2.526      5.331
REMARK  7 active torsions:
REMARK  status: ('A' for Active; 'I' for Inactive)
REMARK    1  A    between atoms: C_2  and  C_3 
REMARK    2  A    between atoms: C_3  and  O_6 
REMARK    3  A    between atoms: C_3  and  C_4 
REMARK    4  A    between atoms: C_7  and  O_6 
REMARK    5  A    between atoms: C_9  and  C_10 
REMARK    6  A    between atoms: N_15  and  C_14 
REMARK    7  A    between atoms: N_20  and  C_19 
REMARK       I    between atoms: C_22  and  N_20 
ROOT
ATOM      1  C   LIG d   1       2.822  88.682 115.369  0.00  0.00     0.161 C 
ATOM      2  C   LIG d   1       2.726  87.685 114.384  0.00  0.00     0.016 C 
ATOM      3  C   LIG d   1       3.684  87.509 113.359  0.00  0.00     0.038 C 
ATOM      4  C   LIG d   1       4.889  88.227 113.339  0.00  0.00     0.028 C 
ATOM      5  C   LIG d   1       4.795  89.588 114.020  0.00  0.00    -0.047 C 
ATOM      6  C   LIG d   1       4.186  89.403 115.429  0.00  0.00     0.091 C 
ENDROOT
BRANCH   1   7
ATOM      7  O   LIG d   1       2.491  88.129 116.658  0.00  0.00    -0.368 OA
BRANCH   7   8
ATOM      8  C   LIG d   1       1.083  88.108 117.000  0.00  0.00     0.119 C 
BRANCH   8   9
ATOM      9  C   LIG d   1       0.670  89.552 117.345  0.00  0.00     0.028 C 
ATOM     10  C   LIG d   1      -0.857  89.733 117.375  0.00  0.00     0.006 C 
ENDBRANCH   8   9
BRANCH   8  11
ATOM     11  C   LIG d   1       0.832  87.298 118.275  0.00  0.00     0.028 C 
ATOM     12  C   LIG d   1      -0.180  86.160 118.068  0.00  0.00     0.006 C 
ENDBRANCH   8  11
ENDBRANCH   7   8
ENDBRANCH   1   7
BRANCH   6  13
ATOM     13  N   LIG d   1       3.980  90.696 116.132  0.00  0.00    -0.311 N 
ATOM     14  C   LIG d   1       4.903  91.264 116.906  0.00  0.00     0.210 C 
ATOM     15  C   LIG d   1       4.480  92.587 117.553  0.00  0.00     0.109 C 
ATOM     16  O   LIG d   1       6.044  90.815 117.091  0.00  0.00    -0.276 OA
ATOM     17  H   LIG d   1       3.093  91.145 116.012  0.00  0.00     0.149 HD
ENDBRANCH   6  13
BRANCH   5  18
ATOM     18  N   LIG d   1       6.151  90.168 114.048  0.00  0.00     0.381 N 
ATOM     19  H   LIG d   1       6.162  90.976 114.638  0.00  0.00    -0.090 HD
ATOM     20  H   LIG d   1       6.402  90.452 113.118  0.00  0.00    -0.090 HD
ATOM     21  H   LIG d   1       6.803  89.493 114.385  0.00  0.00    -0.090 HD
ENDBRANCH   5  18
BRANCH   3  22
ATOM     22  C   LIG d   1       3.422  86.634 112.316  0.00  0.00     0.382 C 
ATOM     23  O   LIG d   1       4.048  85.550 112.235  0.00  0.00    -0.241 OA
ATOM     24  O   LIG d   1       2.598  86.934 111.431  0.00  0.00    -0.241 OA
ENDBRANCH   3  22
TORSDOF 7
ENDMDL
MODEL 3
REMARK VINA RESULT:      -4.4      1.735      2.707
REMARK  7 active torsions:
REMARK  status: ('A' for Active; 'I' for Inactive)
REMARK    1  A    between atoms: C_2  and  C_3 
REMARK    2  A    between atoms: C_3  and  O_6 
REMARK    3  A    between atoms: C_3  and  C_4 
REMARK    4  A    between atoms: C_7  and  O_6 
REMARK    5  A    between atoms: C_9  and  C_10 
REMARK    6  A    between atoms: N_15  and  C_14 
REMARK    7  A    between atoms: N_20  and  C_19 
REMARK       I    between atoms: C_22  and  N_20 
ROOT
ATOM      1  C   LIG d   1       1.508  88.013 116.403  0.00  0.00     0.161 C 
ATOM      2  C   LIG d   1       0.181  87.660 116.699  0.00  0.00     0.016 C 
ATOM      3  C   LIG d   1      -0.711  88.505 117.399  0.00  0.00     0.038 C 
ATOM      4  C   LIG d   1      -0.380  89.829 117.721  0.00  0.00     0.028 C 
ATOM      5  C   LIG d   1       1.119  90.055 117.889  0.00  0.00    -0.047 C 
ATOM      6  C   LIG d   1       1.853  89.497 116.649  0.00  0.00     0.091 C 
ENDROOT
BRANCH   1   7
ATOM      7  O   LIG d   1       1.821  87.644 115.045  0.00  0.00    -0.368 OA
BRANCH   7   8
ATOM      8  C   LIG d   1       2.439  86.346 114.864  0.00  0.00     0.119 C 
BRANCH   8   9
ATOM      9  C   LIG d   1       3.895  86.584 114.419  0.00  0.00     0.028 C 
ATOM     10  C   LIG d   1       3.987  87.454 113.154  0.00  0.00     0.006 C 
ENDBRANCH   8   9
BRANCH   8  11
ATOM     11  C   LIG d   1       1.784  85.573 113.715  0.00  0.00     0.028 C 
ATOM     12  C   LIG d   1       0.420  86.153 113.308  0.00  0.00     0.006 C 
ENDBRANCH   8  11
ENDBRANCH   7   8
ENDBRANCH   1   7
BRANCH   6  13
ATOM     13  N   LIG d   1       3.331  89.601 116.770  0.00  0.00    -0.311 N 
ATOM     14  C   LIG d   1       4.110  90.113 115.819  0.00  0.00     0.210 C 
ATOM     15  C   LIG d   1       5.608  90.108 116.138  0.00  0.00     0.109 C 
ATOM     16  O   LIG d   1       3.700  90.600 114.755  0.00  0.00    -0.276 OA
ATOM     17  H   LIG d   1       3.745  89.258 117.615  0.00  0.00     0.149 HD
ENDBRANCH   6  13
BRANCH   5  18
ATOM     18  N   LIG d   1       1.333  91.501 118.086  0.00  0.00     0.381 N 
ATOM     19  H   LIG d   1       2.150  91.650 118.644  0.00  0.00    -0.090 HD
ATOM     20  H   LIG d   1       0.543  91.883 118.575  0.00  0.00    -0.090 HD
ATOM     21  H   LIG d   1       1.437  91.953 117.204  0.00  0.00    -0.090 HD
ENDBRANCH   5  18
BRANCH   3  22
ATOM     22  C   LIG d   1      -1.937  88.012 117.819  0.00  0.00     0.382 C 
ATOM     23  O   LIG d   1      -2.996  88.593 117.480  0.00  0.00    -0.241 OA
ATOM     24  O   LIG d   1      -1.995  87.019 118.570  0.00  0.00    -0.241 OA
ENDBRANCH   3  22
TORSDOF 7
ENDMDL
MODEL 4
REMARK VINA RESULT:      -4.4      2.531      5.282
REMARK  7 active torsions:
REMARK  status: ('A' for Active; 'I' for Inactive)
REMARK    1  A    between atoms: C_2  and  C_3 
REMARK    2  A    between atoms: C_3  and  O_6 
REMARK    3  A    between atoms: C_3  and  C_4 
REMARK    4  A    between atoms: C_7  and  O_6 
REMARK    5  A    between atoms: C_9  and  C_10 
REMARK    6  A    between atoms: N_15  and  C_14 
REMARK    7  A    between atoms: N_20  and  C_19 
REMARK       I    between atoms: C_22  and  N_20 
ROOT
ATOM      1  C   LIG d   1       3.190  88.547 115.563  0.00  0.00     0.161 C 
ATOM      2  C   LIG d   1       2.910  87.656 114.514  0.00  0.00     0.016 C 
ATOM      3  C   LIG d   1       3.689  87.572 113.337  0.00  0.00     0.038 C 
ATOM      4  C   LIG d   1       4.896  88.272 113.195  0.00  0.00     0.028 C 
ATOM      5  C   LIG d   1       4.950  89.558 114.012  0.00  0.00    -0.047 C 
ATOM      6  C   LIG d   1       4.565  89.240 115.475  0.00  0.00     0.091 C 
ENDROOT
BRANCH   1   7
ATOM      7  O   LIG d   1       3.050  87.871 116.829  0.00  0.00    -0.368 OA
BRANCH   7   8
ATOM      8  C   LIG d   1       1.914  88.262 117.638  0.00  0.00     0.119 C 
BRANCH   8   9
ATOM      9  C   LIG d   1       0.902  87.101 117.608  0.00  0.00     0.028 C 
ATOM     10  C   LIG d   1      -0.443  87.510 116.984  0.00  0.00     0.006 C 
ENDBRANCH   8   9
BRANCH   8  11
ATOM     11  C   LIG d   1       1.178  89.458 117.026  0.00  0.00     0.028 C 
ATOM     12  C   LIG d   1       1.241  90.713 117.910  0.00  0.00     0.006 C 
ENDBRANCH   8  11
ENDBRANCH   7   8
ENDBRANCH   1   7
BRANCH   6  13
ATOM     13  N   LIG d   1       4.511  90.458 116.325  0.00  0.00    -0.311 N 
ATOM     14  C   LIG d   1       5.556  90.923 117.007  0.00  0.00     0.210 C 
ATOM     15  C   LIG d   1       5.279  92.180 117.837  0.00  0.00     0.109 C 
ATOM     16  O   LIG d   1       6.695  90.431 116.979  0.00  0.00    -0.276 OA
ATOM     17  H   LIG d   1       3.634  90.937 116.380  0.00  0.00     0.149 HD
ENDBRANCH   6  13
BRANCH   5  18
ATOM     18  N   LIG d   1       6.310  90.114 113.879  0.00  0.00     0.381 N 
ATOM     19  H   LIG d   1       6.922  89.423 113.495  0.00  0.00    -0.090 HD
ATOM     20  H   LIG d   1       6.650  90.363 114.792  0.00  0.00    -0.090 HD
ATOM     21  H   LIG d   1       6.294  90.918 113.292  0.00  0.00    -0.090 HD
ENDBRANCH   5  18
BRANCH   3  22
ATOM     22  C   LIG d   1       3.240  86.810 112.269  0.00  0.00     0.382 C 
ATOM     23  O   LIG d   1       3.671  85.642 112.107  0.00  0.00    -0.241 OA
ATOM     24  O   LIG d   1       2.443  87.290 111.441  0.00  0.00    -0.241 OA
ENDBRANCH   3  22
TORSDOF 7
ENDMDL
MODEL 5
REMARK VINA RESULT:      -4.2      2.658      4.062
REMARK  7 active torsions:
REMARK  status: ('A' for Active; 'I' for Inactive)
REMARK    1  A    between atoms: C_2  and  C_3 
REMARK    2  A    between atoms: C_3  and  O_6 
REMARK    3  A    between atoms: C_3  and  C_4 
REMARK    4  A    between atoms: C_7  and  O_6 
REMARK    5  A    between atoms: C_9  and  C_10 
REMARK    6  A    between atoms: N_15  and  C_14 
REMARK    7  A    between atoms: N_20  and  C_19 
REMARK       I    between atoms: C_22  and  N_20 
ROOT
ATOM      1  C   LIG d   1       0.955  88.884 117.201  0.00  0.00     0.161 C 
ATOM      2  C   LIG d   1      -0.403  88.525 117.212  0.00  0.00     0.016 C 
ATOM      3  C   LIG d   1      -1.428  89.372 117.691  0.00  0.00     0.038 C 
ATOM      4  C   LIG d   1      -1.180  90.704 118.055  0.00  0.00     0.028 C 
ATOM      5  C   LIG d   1       0.247  90.945 118.536  0.00  0.00    -0.047 C 
ATOM      6  C   LIG d   1       1.232  90.375 117.490  0.00  0.00     0.091 C 
ENDROOT
BRANCH   1   7
ATOM      7  O   LIG d   1       1.553  88.497 115.948  0.00  0.00    -0.368 OA
BRANCH   7   8
ATOM      8  C   LIG d   1       2.607  87.507 116.024  0.00  0.00     0.119 C 
BRANCH   8   9
ATOM      9  C   LIG d   1       3.833  88.078 115.284  0.00  0.00     0.028 C 
ATOM     10  C   LIG d   1       3.508  89.375 114.525  0.00  0.00     0.006 C 
ENDBRANCH   8   9
BRANCH   8  11
ATOM     11  C   LIG d   1       2.231  86.233 115.262  0.00  0.00     0.028 C 
ATOM     12  C   LIG d   1       0.944  86.390 114.437  0.00  0.00     0.006 C 
ENDBRANCH   8  11
ENDBRANCH   7   8
ENDBRANCH   1   7
BRANCH   6  13
ATOM     13  N   LIG d   1       2.649  90.493 117.922  0.00  0.00    -0.311 N 
ATOM     14  C   LIG d   1       3.430  91.523 117.601  0.00  0.00     0.210 C 
ATOM     15  C   LIG d   1       4.864  91.438 118.132  0.00  0.00     0.109 C 
ATOM     16  O   LIG d   1       3.062  92.514 116.952  0.00  0.00    -0.276 OA
ATOM     17  H   LIG d   1       3.020  89.748 118.478  0.00  0.00     0.149 HD
ENDBRANCH   6  13
BRANCH   5  18
ATOM     18  N   LIG d   1       0.406  92.396 118.750  0.00  0.00     0.381 N 
ATOM     19  H   LIG d   1       0.583  92.849 117.875  0.00  0.00    -0.090 HD
ATOM     20  H   LIG d   1       1.196  92.551 119.351  0.00  0.00    -0.090 HD
ATOM     21  H   LIG d   1      -0.417  92.771 119.167  0.00  0.00    -0.090 HD
ENDBRANCH   5  18
BRANCH   3  22
ATOM     22  C   LIG d   1      -2.713  88.875 117.848  0.00  0.00     0.382 C 
ATOM     23  O   LIG d   1      -2.959  88.051 118.762  0.00  0.00    -0.241 OA
ATOM     24  O   LIG d   1      -3.619  89.207 117.061  0.00  0.00    -0.241 OA
ENDBRANCH   3  22
TORSDOF 7
ENDMDL
MODEL 6
REMARK VINA RESULT:      -4.2      2.498      6.158
REMARK  7 active torsions:
REMARK  status: ('A' for Active; 'I' for Inactive)
REMARK    1  A    between atoms: C_2  and  C_3 
REMARK    2  A    between atoms: C_3  and  O_6 
REMARK    3  A    between atoms: C_3  and  C_4 
REMARK    4  A    between atoms: C_7  and  O_6 
REMARK    5  A    between atoms: C_9  and  C_10 
REMARK    6  A    between atoms: N_15  and  C_14 
REMARK    7  A    between atoms: N_20  and  C_19 
REMARK       I    between atoms: C_22  and  N_20 
ROOT
ATOM      1  C   LIG d   1       2.861  87.429 116.101  0.00  0.00     0.161 C 
ATOM      2  C   LIG d   1       3.786  87.674 115.074  0.00  0.00     0.016 C 
ATOM      3  C   LIG d   1       3.497  87.483 113.703  0.00  0.00     0.038 C 
ATOM      4  C   LIG d   1       2.204  87.174 113.254  0.00  0.00     0.028 C 
ATOM      5  C   LIG d   1       1.368  86.426 114.286  0.00  0.00    -0.047 C 
ATOM      6  C   LIG d   1       1.411  87.199 115.624  0.00  0.00     0.091 C 
ENDROOT
BRANCH   1   7
ATOM      7  O   LIG d   1       2.906  88.498 117.066  0.00  0.00    -0.368 OA
BRANCH   7   8
ATOM      8  C   LIG d   1       3.091  89.832 116.531  0.00  0.00     0.119 C 
BRANCH   8   9
ATOM      9  C   LIG d   1       4.248  90.487 117.309  0.00  0.00     0.028 C 
ATOM     10  C   LIG d   1       5.512  90.656 116.449  0.00  0.00     0.006 C 
ENDBRANCH   8   9
BRANCH   8  11
ATOM     11  C   LIG d   1       1.869  90.715 116.802  0.00  0.00     0.028 C 
ATOM     12  C   LIG d   1       2.233  92.043 117.485  0.00  0.00     0.006 C 
ENDBRANCH   8  11
ENDBRANCH   7   8
ENDBRANCH   1   7
BRANCH   6  13
ATOM     13  N   LIG d   1       0.687  86.491 116.712  0.00  0.00    -0.311 N 
ATOM     14  C   LIG d   1      -0.314  87.035 117.401  0.00  0.00     0.210 C 
ATOM     15  C   LIG d   1      -0.909  86.140 118.493  0.00  0.00     0.109 C 
ATOM     16  O   LIG d   1      -0.787  88.162 117.191  0.00  0.00    -0.276 OA
ATOM     17  H   LIG d   1       0.985  85.559 116.927  0.00  0.00     0.149 HD
ENDBRANCH   6  13
BRANCH   5  18
ATOM     18  N   LIG d   1       0.004  86.290 113.741  0.00  0.00     0.381 N 
ATOM     19  H   LIG d   1      -0.345  85.371 113.924  0.00  0.00    -0.090 HD
ATOM     20  H   LIG d   1       0.037  86.423 112.745  0.00  0.00    -0.090 HD
ATOM     21  H   LIG d   1      -0.597  86.969 114.153  0.00  0.00    -0.090 HD
ENDBRANCH   5  18
BRANCH   3  22
ATOM     22  C   LIG d   1       4.518  87.561 112.768  0.00  0.00     0.382 C 
ATOM     23  O   LIG d   1       5.481  88.343 112.954  0.00  0.00    -0.241 OA
ATOM     24  O   LIG d   1       4.466  86.891 111.719  0.00  0.00    -0.241 OA
ENDBRANCH   3  22
TORSDOF 7
ENDMDL
MODEL 7
REMARK VINA RESULT:      -4.1      2.751      5.412
REMARK  7 active torsions:
REMARK  status: ('A' for Active; 'I' for Inactive)
REMARK    1  A    between atoms: C_2  and  C_3 
REMARK    2  A    between atoms: C_3  and  O_6 
REMARK    3  A    between atoms: C_3  and  C_4 
REMARK    4  A    between atoms: C_7  and  O_6 
REMARK    5  A    between atoms: C_9  and  C_10 
REMARK    6  A    between atoms: N_15  and  C_14 
REMARK    7  A    between atoms: N_20  and  C_19 
REMARK       I    between atoms: C_22  and  N_20 
ROOT
ATOM      1  C   LIG d   1       2.728  89.686 115.939  0.00  0.00     0.161 C 
ATOM      2  C   LIG d   1       3.329  89.139 114.794  0.00  0.00     0.016 C 
ATOM      3  C   LIG d   1       4.729  89.065 114.609  0.00  0.00     0.038 C 
ATOM      4  C   LIG d   1       5.630  89.398 115.631  0.00  0.00     0.028 C 
ATOM      5  C   LIG d   1       5.079  90.427 116.613  0.00  0.00    -0.047 C 
ATOM      6  C   LIG d   1       3.695  89.953 117.112  0.00  0.00     0.091 C 
ENDROOT
BRANCH   1   7
ATOM      7  O   LIG d   1       1.640  88.845 116.369  0.00  0.00    -0.368 OA
BRANCH   7   8
ATOM      8  C   LIG d   1       1.856  87.417 116.258  0.00  0.00     0.119 C 
BRANCH   8   9
ATOM      9  C   LIG d   1       0.551  86.791 115.728  0.00  0.00     0.028 C 
ATOM     10  C   LIG d   1       0.686  86.291 114.280  0.00  0.00     0.006 C 
ENDBRANCH   8   9
BRANCH   8  11
ATOM     11  C   LIG d   1       2.082  86.779 117.632  0.00  0.00     0.028 C 
ATOM     12  C   LIG d   1       3.524  86.287 117.831  0.00  0.00     0.006 C 
ENDBRANCH   8  11
ENDBRANCH   7   8
ENDBRANCH   1   7
BRANCH   6  13
ATOM     13  N   LIG d   1       3.048  90.942 118.012  0.00  0.00    -0.311 N 
ATOM     14  C   LIG d   1       3.168  92.260 117.861  0.00  0.00     0.210 C 
ATOM     15  C   LIG d   1       2.436  93.101 118.911  0.00  0.00     0.109 C 
ATOM     16  O   LIG d   1       3.785  92.812 116.937  0.00  0.00    -0.276 OA
ATOM     17  H   LIG d   1       2.503  90.581 118.770  0.00  0.00     0.149 HD
ENDBRANCH   6  13
BRANCH   5  18
ATOM     18  N   LIG d   1       6.065  90.578 117.700  0.00  0.00     0.381 N 
ATOM     19  H   LIG d   1       6.850  91.106 117.374  0.00  0.00    -0.090 HD
ATOM     20  H   LIG d   1       6.390  89.667 117.974  0.00  0.00    -0.090 HD
ATOM     21  H   LIG d   1       5.647  91.038 118.478  0.00  0.00    -0.090 HD
ENDBRANCH   5  18
BRANCH   3  22
ATOM     22  C   LIG d   1       5.241  88.691 113.376  0.00  0.00     0.382 C 
ATOM     23  O   LIG d   1       4.602  87.895 112.647  0.00  0.00    -0.241 OA
ATOM     24  O   LIG d   1       6.354  89.106 113.002  0.00  0.00    -0.241 OA
ENDBRANCH   3  22
TORSDOF 7
ENDMDL
MODEL 8
REMARK VINA RESULT:      -3.9      2.422      6.355
REMARK  7 active torsions:
REMARK  status: ('A' for Active; 'I' for Inactive)
REMARK    1  A    between atoms: C_2  and  C_3 
REMARK    2  A    between atoms: C_3  and  O_6 
REMARK    3  A    between atoms: C_3  and  C_4 
REMARK    4  A    between atoms: C_7  and  O_6 
REMARK    5  A    between atoms: C_9  and  C_10 
REMARK    6  A    between atoms: N_15  and  C_14 
REMARK    7  A    between atoms: N_20  and  C_19 
REMARK       I    between atoms: C_22  and  N_20 
ROOT
ATOM      1  C   LIG d   1       2.396  88.525 116.961  0.00  0.00     0.161 C 
ATOM      2  C   LIG d   1       3.277  89.153 116.065  0.00  0.00     0.016 C 
ATOM      3  C   LIG d   1       3.382  88.799 114.700  0.00  0.00     0.038 C 
ATOM      4  C   LIG d   1       2.500  87.888 114.100  0.00  0.00     0.028 C 
ATOM      5  C   LIG d   1       1.932  86.863 115.076  0.00  0.00    -0.047 C 
ATOM      6  C   LIG d   1       1.348  87.605 116.300  0.00  0.00     0.091 C 
ENDROOT
BRANCH   1   7
ATOM      7  O   LIG d   1       1.747  89.515 117.783  0.00  0.00    -0.368 OA
BRANCH   7   8
ATOM      8  C   LIG d   1       1.518  90.806 117.166  0.00  0.00     0.119 C 
BRANCH   8   9
ATOM      9  C   LIG d   1       2.074  91.880 118.120  0.00  0.00     0.028 C 
ATOM     10  C   LIG d   1       3.410  92.465 117.632  0.00  0.00     0.006 C 
ENDBRANCH   8   9
BRANCH   8  11
ATOM     11  C   LIG d   1       0.022  91.107 117.043  0.00  0.00     0.028 C 
ATOM     12  C   LIG d   1      -0.761  90.771 118.322  0.00  0.00     0.006 C 
ENDBRANCH   8  11
ENDBRANCH   7   8
ENDBRANCH   1   7
BRANCH   6  13
ATOM     13  N   LIG d   1       0.847  86.672 117.343  0.00  0.00    -0.311 N 
ATOM     14  C   LIG d   1      -0.406  86.682 117.794  0.00  0.00     0.210 C 
ATOM     15  C   LIG d   1      -0.709  85.650 118.885  0.00  0.00     0.109 C 
ATOM     16  O   LIG d   1      -1.304  87.427 117.373  0.00  0.00    -0.276 OA
ATOM     17  H   LIG d   1       1.501  86.014 117.718  0.00  0.00     0.149 HD
ENDBRANCH   6  13
BRANCH   5  18
ATOM     18  N   LIG d   1       0.927  86.065 114.350  0.00  0.00     0.381 N 
ATOM     19  H   LIG d   1       1.369  85.548 113.617  0.00  0.00    -0.090 HD
ATOM     20  H   LIG d   1       0.255  86.688 113.935  0.00  0.00    -0.090 HD
ATOM     21  H   LIG d   1       0.469  85.441 114.977  0.00  0.00    -0.090 HD
ENDBRANCH   5  18
BRANCH   3  22
ATOM     22  C   LIG d   1       4.406  89.330 113.929  0.00  0.00     0.382 C 
ATOM     23  O   LIG d   1       4.353  90.526 113.556  0.00  0.00    -0.241 OA
ATOM     24  O   LIG d   1       5.359  88.615 113.566  0.00  0.00    -0.241 OA
ENDBRANCH   3  22
TORSDOF 7
ENDMDL
MODEL 9
REMARK VINA RESULT:      -3.7      3.194      5.576
REMARK  7 active torsions:
REMARK  status: ('A' for Active; 'I' for Inactive)
REMARK    1  A    between atoms: C_2  and  C_3 
REMARK    2  A    between atoms: C_3  and  O_6 
REMARK    3  A    between atoms: C_3  and  C_4 
REMARK    4  A    between atoms: C_7  and  O_6 
REMARK    5  A    between atoms: C_9  and  C_10 
REMARK    6  A    between atoms: N_15  and  C_14 
REMARK    7  A    between atoms: N_20  and  C_19 
REMARK       I    between atoms: C_22  and  N_20 
ROOT
ATOM      1  C   LIG d   1       2.955  90.472 115.990  0.00  0.00     0.161 C 
ATOM      2  C   LIG d   1       1.853  91.060 116.634  0.00  0.00     0.016 C 
ATOM      3  C   LIG d   1       0.876  90.318 117.336  0.00  0.00     0.038 C 
ATOM      4  C   LIG d   1       1.017  88.942 117.572  0.00  0.00     0.028 C 
ATOM      5  C   LIG d   1       1.851  88.228 116.513  0.00  0.00    -0.047 C 
ATOM      6  C   LIG d   1       3.186  88.985 116.331  0.00  0.00     0.091 C 
ENDROOT
BRANCH   1   7
ATOM      7  O   LIG d   1       4.145  91.239 116.261  0.00  0.00    -0.368 OA
BRANCH   7   8
ATOM      8  C   LIG d   1       4.431  91.499 117.658  0.00  0.00     0.119 C 
BRANCH   8   9
ATOM      9  C   LIG d   1       4.593  93.023 117.821  0.00  0.00     0.028 C 
ATOM     10  C   LIG d   1       5.593  93.391 118.930  0.00  0.00     0.006 C 
ENDBRANCH   8   9
BRANCH   8  11
ATOM     11  C   LIG d   1       5.780  90.902 118.071  0.00  0.00     0.028 C 
ATOM     12  C   LIG d   1       6.636  90.474 116.868  0.00  0.00     0.006 C 
ENDBRANCH   8  11
ENDBRANCH   7   8
ENDBRANCH   1   7
BRANCH   6  13
ATOM     13  N   LIG d   1       4.026  88.402 115.252  0.00  0.00    -0.311 N 
ATOM     14  C   LIG d   1       3.762  88.552 113.955  0.00  0.00     0.210 C 
ATOM     15  C   LIG d   1       4.744  87.852 113.010  0.00  0.00     0.109 C 
ATOM     16  O   LIG d   1       2.827  89.226 113.497  0.00  0.00    -0.276 OA
ATOM     17  H   LIG d   1       4.823  87.865 115.534  0.00  0.00     0.149 HD
ENDBRANCH   6  13
BRANCH   5  18
ATOM     18  N   LIG d   1       2.033  86.833 116.955  0.00  0.00     0.381 N 
ATOM     19  H   LIG d   1       1.185  86.320 116.814  0.00  0.00    -0.090 HD
ATOM     20  H   LIG d   1       2.245  86.828 117.937  0.00  0.00    -0.090 HD
ATOM     21  H   LIG d   1       2.775  86.407 116.444  0.00  0.00    -0.090 HD
ENDBRANCH   5  18
BRANCH   3  22
ATOM     22  C   LIG d   1      -0.279  90.946 117.777  0.00  0.00     0.382 C 
ATOM     23  O   LIG d   1      -1.321  90.276 117.975  0.00  0.00    -0.241 OA
ATOM     24  O   LIG d   1      -0.304  92.181 117.936  0.00  0.00    -0.241 OA
ENDBRANCH   3  22
TORSDOF 7
ENDMDL
