MODEL 1
REMARK VINA RESULT:      -4.7      0.000      0.000
REMARK  7 active torsions:
REMARK  status: ('A' for Active; 'I' for Inactive)
REMARK    1  A    between atoms: C_2  and  C_3 
REMARK    2  A    between atoms: C_3  and  O_6 
REMARK    3  A    between atoms: C_3  and  C_4 
REMARK    4  A    between atoms: C_7  and  O_6 
REMARK    5  A    between atoms: C_9  and  C_10 
REMARK    6  A    between atoms: N_15  and  C_14 
REMARK    7  A    between atoms: N_20  and  C_19 
REMARK       I    between atoms: C_22  and  N_20 
ROOT
ATOM      1  C   LIG d   1       3.167  88.067 115.690  0.00  0.00     0.161 C 
ATOM      2  C   LIG d   1       3.625  88.731 116.840  0.00  0.00     0.016 C 
ATOM      3  C   LIG d   1       4.742  89.598 116.845  0.00  0.00     0.038 C 
ATOM      4  C   LIG d   1       5.389  89.980 115.660  0.00  0.00     0.028 C 
ATOM      5  C   LIG d   1       5.279  88.943 114.548  0.00  0.00    -0.047 C 
ATOM      6  C   LIG d   1       3.792  88.557 114.367  0.00  0.00     0.091 C 
ENDROOT
BRANCH   1   7
ATOM      7  O   LIG d   1       1.729  88.141 115.623  0.00  0.00    -0.368 OA
BRANCH   7   8
ATOM      8  C   LIG d   1       1.011  87.645 116.779  0.00  0.00     0.119 C 
BRANCH   8   9
ATOM      9  C   LIG d   1       0.493  86.236 116.432  0.00  0.00     0.028 C 
ATOM     10  C   LIG d   1       0.207  86.069 114.930  0.00  0.00     0.006 C 
ENDBRANCH   8   9
BRANCH   8  11
ATOM     11  C   LIG d   1      -0.242  88.481 117.056  0.00  0.00     0.028 C 
ATOM     12  C   LIG d   1       0.081  89.943 117.401  0.00  0.00     0.006 C 
ENDBRANCH   8  11
ENDBRANCH   7   8
ENDBRANCH   1   7
BRANCH   6  13
ATOM     13  N   LIG d   1       3.604  87.485 113.356  0.00  0.00    -0.311 N 
ATOM     14  C   LIG d   1       2.706  87.553 112.374  0.00  0.00     0.210 C 
ATOM     15  C   LIG d   1       2.663  86.330 111.452  0.00  0.00     0.109 C 
ATOM     16  O   LIG d   1       1.965  88.524 112.159  0.00  0.00    -0.276 OA
ATOM     17  H   LIG d   1       4.186  86.674 113.436  0.00  0.00     0.149 HD
ENDBRANCH   6  13
BRANCH   5  18
ATOM     18  N   LIG d   1       5.876  89.527 113.332  0.00  0.00     0.381 N 
ATOM     19  H   LIG d   1       5.705  88.928 112.549  0.00  0.00    -0.090 HD
ATOM     20  H   LIG d   1       6.870  89.601 113.462  0.00  0.00    -0.090 HD
ATOM     21  H   LIG d   1       5.488  90.428 113.161  0.00  0.00    -0.090 HD
ENDBRANCH   5  18
BRANCH   3  22
ATOM     22  C   LIG d   1       5.247  90.062 118.050  0.00  0.00     0.382 C 
ATOM     23  O   LIG d   1       4.539  90.788 118.789  0.00  0.00    -0.241 OA
ATOM     24  O   LIG d   1       6.417  89.800 118.387  0.00  0.00    -0.241 OA
ENDBRANCH   3  22
TORSDOF 7
ENDMDL
MODEL 2
REMARK VINA RESULT:      -4.6      1.940      4.875
REMARK  7 active torsions:
REMARK  status: ('A' for Active; 'I' for Inactive)
REMARK    1  A    between atoms: C_2  and  C_3 
REMARK    2  A    between atoms: C_3  and  O_6 
REMARK    3  A    between atoms: C_3  and  C_4 
REMARK    4  A    between atoms: C_7  and  O_6 
REMARK    5  A    between atoms: C_9  and  C_10 
REMARK    6  A    between atoms: N_15  and  C_14 
REMARK    7  A    between atoms: N_20  and  C_19 
REMARK       I    between atoms: C_22  and  N_20 
ROOT
ATOM      1  C   LIG d   1       3.737  88.671 115.759  0.00  0.00     0.161 C 
ATOM      2  C   LIG d   1       2.817  88.113 114.855  0.00  0.00     0.016 C 
ATOM      3  C   LIG d   1       3.091  87.932 113.480  0.00  0.00     0.038 C 
ATOM      4  C   LIG d   1       4.366  88.160 112.941  0.00  0.00     0.028 C 
ATOM      5  C   LIG d   1       5.173  89.198 113.713  0.00  0.00    -0.047 C 
ATOM      6  C   LIG d   1       5.171  88.822 115.212  0.00  0.00     0.091 C 
ENDROOT
BRANCH   1   7
ATOM      7  O   LIG d   1       3.744  87.907 116.982  0.00  0.00    -0.368 OA
BRANCH   7   8
ATOM      8  C   LIG d   1       3.157  88.551 118.139  0.00  0.00     0.119 C 
BRANCH   8   9
ATOM      9  C   LIG d   1       1.821  87.842 118.435  0.00  0.00     0.028 C 
ATOM     10  C   LIG d   1       0.613  88.606 117.868  0.00  0.00     0.006 C 
ENDBRANCH   8   9
BRANCH   8  11
ATOM     11  C   LIG d   1       2.786  90.006 117.839  0.00  0.00     0.028 C 
ATOM     12  C   LIG d   1       3.542  91.010 118.724  0.00  0.00     0.006 C 
ENDBRANCH   8  11
ENDBRANCH   7   8
ENDBRANCH   1   7
BRANCH   6  13
ATOM     13  N   LIG d   1       5.869  89.832 116.050  0.00  0.00    -0.311 N 
ATOM     14  C   LIG d   1       6.787  89.519 116.963  0.00  0.00     0.210 C 
ATOM     15  C   LIG d   1       7.367  90.711 117.731  0.00  0.00     0.109 C 
ATOM     16  O   LIG d   1       7.200  88.371 117.187  0.00  0.00    -0.276 OA
ATOM     17  H   LIG d   1       5.617  90.791 115.913  0.00  0.00     0.149 HD
ENDBRANCH   6  13
BRANCH   5  18
ATOM     18  N   LIG d   1       6.526  89.235 113.127  0.00  0.00     0.381 N 
ATOM     19  H   LIG d   1       7.152  89.707 113.750  0.00  0.00    -0.090 HD
ATOM     20  H   LIG d   1       6.493  89.749 112.264  0.00  0.00    -0.090 HD
ATOM     21  H   LIG d   1       6.851  88.308 112.958  0.00  0.00    -0.090 HD
ENDBRANCH   5  18
BRANCH   3  22
ATOM     22  C   LIG d   1       2.070  87.557 112.620  0.00  0.00     0.382 C 
ATOM     23  O   LIG d   1       1.661  86.371 112.612  0.00  0.00    -0.241 OA
ATOM     24  O   LIG d   1       1.582  88.379 111.821  0.00  0.00    -0.241 OA
ENDBRANCH   3  22
TORSDOF 7
ENDMDL
MODEL 3
REMARK VINA RESULT:      -4.5      2.493      5.057
REMARK  7 active torsions:
REMARK  status: ('A' for Active; 'I' for Inactive)
REMARK    1  A    between atoms: C_2  and  C_3 
REMARK    2  A    between atoms: C_3  and  O_6 
REMARK    3  A    between atoms: C_3  and  C_4 
REMARK    4  A    between atoms: C_7  and  O_6 
REMARK    5  A    between atoms: C_9  and  C_10 
REMARK    6  A    between atoms: N_15  and  C_14 
REMARK    7  A    between atoms: N_20  and  C_19 
REMARK       I    between atoms: C_22  and  N_20 
ROOT
ATOM      1  C   LIG d   1       2.978  90.120 116.462  0.00  0.00     0.161 C 
ATOM      2  C   LIG d   1       2.790  89.468 115.233  0.00  0.00     0.016 C 
ATOM      3  C   LIG d   1       3.849  88.919 114.473  0.00  0.00     0.038 C 
ATOM      4  C   LIG d   1       5.160  88.853 114.967  0.00  0.00     0.028 C 
ATOM      5  C   LIG d   1       5.481  89.947 115.979  0.00  0.00    -0.047 C 
ATOM      6  C   LIG d   1       4.387  89.959 117.071  0.00  0.00     0.091 C 
ENDROOT
BRANCH   1   7
ATOM      7  O   LIG d   1       1.974  89.689 117.403  0.00  0.00    -0.368 OA
BRANCH   7   8
ATOM      8  C   LIG d   1       0.681  90.334 117.294  0.00  0.00     0.119 C 
BRANCH   8   9
ATOM      9  C   LIG d   1       0.603  91.403 118.402  0.00  0.00     0.028 C 
ATOM     10  C   LIG d   1       0.614  92.833 117.838  0.00  0.00     0.006 C 
ENDBRANCH   8   9
BRANCH   8  11
ATOM     11  C   LIG d   1      -0.457  89.354 117.595  0.00  0.00     0.028 C 
ATOM     12  C   LIG d   1      -1.803  90.058 117.830  0.00  0.00     0.006 C 
ENDBRANCH   8  11
ENDBRANCH   7   8
ENDBRANCH   1   7
BRANCH   6  13
ATOM     13  N   LIG d   1       4.580  91.055 118.055  0.00  0.00    -0.311 N 
ATOM     14  C   LIG d   1       4.349  92.338 117.779  0.00  0.00     0.210 C 
ATOM     15  C   LIG d   1       4.631  93.308 118.930  0.00  0.00     0.109 C 
ATOM     16  O   LIG d   1       3.908  92.760 116.699  0.00  0.00    -0.276 OA
ATOM     17  H   LIG d   1       4.906  90.799 118.966  0.00  0.00     0.149 HD
ENDBRANCH   6  13
BRANCH   5  18
ATOM     18  N   LIG d   1       6.829  89.677 116.515  0.00  0.00     0.381 N 
ATOM     19  H   LIG d   1       7.406  89.284 115.798  0.00  0.00    -0.090 HD
ATOM     20  H   LIG d   1       6.754  89.009 117.261  0.00  0.00    -0.090 HD
ATOM     21  H   LIG d   1       7.237  90.521 116.854  0.00  0.00    -0.090 HD
ENDBRANCH   5  18
BRANCH   3  22
ATOM     22  C   LIG d   1       3.607  88.466 113.185  0.00  0.00     0.382 C 
ATOM     23  O   LIG d   1       4.531  87.934 112.524  0.00  0.00    -0.241 OA
ATOM     24  O   LIG d   1       2.489  88.622 112.659  0.00  0.00    -0.241 OA
ENDBRANCH   3  22
TORSDOF 7
ENDMDL
MODEL 4
REMARK VINA RESULT:      -4.5      3.574      4.953
REMARK  7 active torsions:
REMARK  status: ('A' for Active; 'I' for Inactive)
REMARK    1  A    between atoms: C_2  and  C_3 
REMARK    2  A    between atoms: C_3  and  O_6 
REMARK    3  A    between atoms: C_3  and  C_4 
REMARK    4  A    between atoms: C_7  and  O_6 
REMARK    5  A    between atoms: C_9  and  C_10 
REMARK    6  A    between atoms: N_15  and  C_14 
REMARK    7  A    between atoms: N_20  and  C_19 
REMARK       I    between atoms: C_22  and  N_20 
ROOT
ATOM      1  C   LIG d   1       1.257  89.579 117.278  0.00  0.00     0.161 C 
ATOM      2  C   LIG d   1       2.532  90.167 117.335  0.00  0.00     0.016 C 
ATOM      3  C   LIG d   1       2.746  91.564 117.304  0.00  0.00     0.038 C 
ATOM      4  C   LIG d   1       1.684  92.479 117.366  0.00  0.00     0.028 C 
ATOM      5  C   LIG d   1       0.379  91.930 116.800  0.00  0.00    -0.047 C 
ATOM      6  C   LIG d   1       0.082  90.563 117.457  0.00  0.00     0.091 C 
ENDROOT
BRANCH   1   7
ATOM      7  O   LIG d   1       1.168  88.511 118.242  0.00  0.00    -0.368 OA
BRANCH   7   8
ATOM      8  C   LIG d   1       1.182  87.165 117.705  0.00  0.00     0.119 C 
BRANCH   8   9
ATOM      9  C   LIG d   1       2.592  86.589 117.937  0.00  0.00     0.028 C 
ATOM     10  C   LIG d   1       3.435  86.564 116.651  0.00  0.00     0.006 C 
ENDBRANCH   8   9
BRANCH   8  11
ATOM     11  C   LIG d   1       0.990  87.169 116.186  0.00  0.00     0.028 C 
ATOM     12  C   LIG d   1      -0.197  86.305 115.732  0.00  0.00     0.006 C 
ENDBRANCH   8  11
ENDBRANCH   7   8
ENDBRANCH   1   7
BRANCH   6  13
ATOM     13  N   LIG d   1      -1.134  89.918 116.898  0.00  0.00    -0.311 N 
ATOM     14  C   LIG d   1      -2.340  90.022 117.453  0.00  0.00     0.210 C 
ATOM     15  C   LIG d   1      -3.455  89.262 116.726  0.00  0.00     0.109 C 
ATOM     16  O   LIG d   1      -2.599  90.698 118.460  0.00  0.00    -0.276 OA
ATOM     17  H   LIG d   1      -1.021  89.375 116.064  0.00  0.00     0.149 HD
ENDBRANCH   6  13
BRANCH   5  18
ATOM     18  N   LIG d   1      -0.673  92.933 117.052  0.00  0.00     0.381 N 
ATOM     19  H   LIG d   1      -0.994  93.313 116.184  0.00  0.00    -0.090 HD
ATOM     20  H   LIG d   1      -0.283  93.682 117.598  0.00  0.00    -0.090 HD
ATOM     21  H   LIG d   1      -1.432  92.515 117.542  0.00  0.00    -0.090 HD
ENDBRANCH   5  18
BRANCH   3  22
ATOM     22  C   LIG d   1       4.035  92.058 117.170  0.00  0.00     0.382 C 
ATOM     23  O   LIG d   1       5.018  91.289 117.293  0.00  0.00    -0.241 OA
ATOM     24  O   LIG d   1       4.228  93.273 116.972  0.00  0.00    -0.241 OA
ENDBRANCH   3  22
TORSDOF 7
ENDMDL
MODEL 5
REMARK VINA RESULT:      -4.4      2.841      4.537
REMARK  7 active torsions:
REMARK  status: ('A' for Active; 'I' for Inactive)
REMARK    1  A    between atoms: C_2  and  C_3 
REMARK    2  A    between atoms: C_3  and  O_6 
REMARK    3  A    between atoms: C_3  and  C_4 
REMARK    4  A    between atoms: C_7  and  O_6 
REMARK    5  A    between atoms: C_9  and  C_10 
REMARK    6  A    between atoms: N_15  and  C_14 
REMARK    7  A    between atoms: N_20  and  C_19 
REMARK       I    between atoms: C_22  and  N_20 
ROOT
ATOM      1  C   LIG d   1       4.373  88.204 116.592  0.00  0.00     0.161 C 
ATOM      2  C   LIG d   1       3.607  89.381 116.552  0.00  0.00     0.016 C 
ATOM      3  C   LIG d   1       4.141  90.666 116.802  0.00  0.00     0.038 C 
ATOM      4  C   LIG d   1       5.518  90.878 116.962  0.00  0.00     0.028 C 
ATOM      5  C   LIG d   1       6.259  89.663 117.511  0.00  0.00    -0.047 C 
ATOM      6  C   LIG d   1       5.899  88.427 116.656  0.00  0.00     0.091 C 
ENDROOT
BRANCH   1   7
ATOM      7  O   LIG d   1       4.036  87.362 115.472  0.00  0.00    -0.368 OA
BRANCH   7   8
ATOM      8  C   LIG d   1       3.508  88.038 114.304  0.00  0.00     0.119 C 
BRANCH   8   9
ATOM      9  C   LIG d   1       2.409  87.139 113.706  0.00  0.00     0.028 C 
ATOM     10  C   LIG d   1       2.141  87.446 112.223  0.00  0.00     0.006 C 
ENDBRANCH   8   9
BRANCH   8  11
ATOM     11  C   LIG d   1       4.569  88.165 113.207  0.00  0.00     0.028 C 
ATOM     12  C   LIG d   1       5.407  89.447 113.333  0.00  0.00     0.006 C 
ENDBRANCH   8  11
ENDBRANCH   7   8
ENDBRANCH   1   7
BRANCH   6  13
ATOM     13  N   LIG d   1       6.515  87.179 117.176  0.00  0.00    -0.311 N 
ATOM     14  C   LIG d   1       7.746  86.781 116.859  0.00  0.00     0.210 C 
ATOM     15  C   LIG d   1       8.179  85.454 117.489  0.00  0.00     0.109 C 
ATOM     16  O   LIG d   1       8.531  87.417 116.141  0.00  0.00    -0.276 OA
ATOM     17  H   LIG d   1       5.958  86.617 117.791  0.00  0.00     0.149 HD
ENDBRANCH   6  13
BRANCH   5  18
ATOM     18  N   LIG d   1       7.700  89.976 117.497  0.00  0.00     0.381 N 
ATOM     19  H   LIG d   1       8.184  89.370 118.129  0.00  0.00    -0.090 HD
ATOM     20  H   LIG d   1       7.830  90.923 117.806  0.00  0.00    -0.090 HD
ATOM     21  H   LIG d   1       8.064  89.866 116.576  0.00  0.00    -0.090 HD
ENDBRANCH   5  18
BRANCH   3  22
ATOM     22  C   LIG d   1       3.288  91.751 116.933  0.00  0.00     0.382 C 
ATOM     23  O   LIG d   1       3.748  92.918 116.904  0.00  0.00    -0.241 OA
ATOM     24  O   LIG d   1       2.069  91.577 117.125  0.00  0.00    -0.241 OA
ENDBRANCH   3  22
TORSDOF 7
ENDMDL
MODEL 6
REMARK VINA RESULT:      -4.4      2.625      4.717
REMARK  7 active torsions:
REMARK  status: ('A' for Active; 'I' for Inactive)
REMARK    1  A    between atoms: C_2  and  C_3 
REMARK    2  A    between atoms: C_3  and  O_6 
REMARK    3  A    between atoms: C_3  and  C_4 
REMARK    4  A    between atoms: C_7  and  O_6 
REMARK    5  A    between atoms: C_9  and  C_10 
REMARK    6  A    between atoms: N_15  and  C_14 
REMARK    7  A    between atoms: N_20  and  C_19 
REMARK       I    between atoms: C_22  and  N_20 
ROOT
ATOM      1  C   LIG d   1       2.204  89.167 116.082  0.00  0.00     0.161 C 
ATOM      2  C   LIG d   1       2.757  90.397 116.475  0.00  0.00     0.016 C 
ATOM      3  C   LIG d   1       2.097  91.309 117.331  0.00  0.00     0.038 C 
ATOM      4  C   LIG d   1       0.896  90.983 117.978  0.00  0.00     0.028 C 
ATOM      5  C   LIG d   1       0.056  89.962 117.217  0.00  0.00    -0.047 C 
ATOM      6  C   LIG d   1       0.943  88.745 116.866  0.00  0.00     0.091 C 
ENDROOT
BRANCH   1   7
ATOM      7  O   LIG d   1       3.207  88.135 116.154  0.00  0.00    -0.368 OA
BRANCH   7   8
ATOM      8  C   LIG d   1       3.776  87.710 114.892  0.00  0.00     0.119 C 
BRANCH   8   9
ATOM      9  C   LIG d   1       5.122  88.441 114.721  0.00  0.00     0.028 C 
ATOM     10  C   LIG d   1       5.093  89.463 113.571  0.00  0.00     0.006 C 
ENDBRANCH   8   9
BRANCH   8  11
ATOM     11  C   LIG d   1       2.914  88.166 113.710  0.00  0.00     0.028 C 
ATOM     12  C   LIG d   1       2.274  86.992 112.952  0.00  0.00     0.006 C 
ENDBRANCH   8  11
ENDBRANCH   7   8
ENDBRANCH   1   7
BRANCH   6  13
ATOM     13  N   LIG d   1       0.222  87.735 116.048  0.00  0.00    -0.311 N 
ATOM     14  C   LIG d   1       0.286  86.425 116.277  0.00  0.00     0.210 C 
ATOM     15  C   LIG d   1      -0.518  85.558 115.303  0.00  0.00     0.109 C 
ATOM     16  O   LIG d   1       0.906  85.900 117.214  0.00  0.00    -0.276 OA
ATOM     17  H   LIG d   1      -0.330  88.076 115.285  0.00  0.00     0.149 HD
ENDBRANCH   6  13
BRANCH   5  18
ATOM     18  N   LIG d   1      -1.097  89.611 118.067  0.00  0.00     0.381 N 
ATOM     19  H   LIG d   1      -1.622  90.434 118.282  0.00  0.00    -0.090 HD
ATOM     20  H   LIG d   1      -0.758  89.219 118.929  0.00  0.00    -0.090 HD
ATOM     21  H   LIG d   1      -1.677  88.950 117.599  0.00  0.00    -0.090 HD
ENDBRANCH   5  18
BRANCH   3  22
ATOM     22  C   LIG d   1       2.621  92.580 117.516  0.00  0.00     0.382 C 
ATOM     23  O   LIG d   1       2.021  93.404 118.247  0.00  0.00    -0.241 OA
ATOM     24  O   LIG d   1       3.661  92.926 116.926  0.00  0.00    -0.241 OA
ENDBRANCH   3  22
TORSDOF 7
ENDMDL
MODEL 7
REMARK VINA RESULT:      -4.2      2.847      4.865
REMARK  7 active torsions:
REMARK  status: ('A' for Active; 'I' for Inactive)
REMARK    1  A    between atoms: C_2  and  C_3 
REMARK    2  A    between atoms: C_3  and  O_6 
REMARK    3  A    between atoms: C_3  and  C_4 
REMARK    4  A    between atoms: C_7  and  O_6 
REMARK    5  A    between atoms: C_9  and  C_10 
REMARK    6  A    between atoms: N_15  and  C_14 
REMARK    7  A    between atoms: N_20  and  C_19 
REMARK       I    between atoms: C_22  and  N_20 
ROOT
ATOM      1  C   LIG d   1       1.146  88.882 116.994  0.00  0.00     0.161 C 
ATOM      2  C   LIG d   1      -0.173  89.167 117.386  0.00  0.00     0.016 C 
ATOM      3  C   LIG d   1      -0.636  90.472 117.669  0.00  0.00     0.038 C 
ATOM      4  C   LIG d   1       0.154  91.607 117.431  0.00  0.00     0.028 C 
ATOM      5  C   LIG d   1       1.651  91.331 117.517  0.00  0.00    -0.047 C 
ATOM      6  C   LIG d   1       1.991  90.118 116.622  0.00  0.00     0.091 C 
ENDROOT
BRANCH   1   7
ATOM      7  O   LIG d   1       1.139  87.934 115.908  0.00  0.00    -0.368 OA
BRANCH   7   8
ATOM      8  C   LIG d   1       1.707  86.632 116.195  0.00  0.00     0.119 C 
BRANCH   8   9
ATOM      9  C   LIG d   1       2.527  86.203 114.963  0.00  0.00     0.028 C 
ATOM     10  C   LIG d   1       2.419  87.211 113.806  0.00  0.00     0.006 C 
ENDBRANCH   8   9
BRANCH   8  11
ATOM     11  C   LIG d   1       0.614  85.569 116.345  0.00  0.00     0.028 C 
ATOM     12  C   LIG d   1      -0.598  85.828 115.437  0.00  0.00     0.006 C 
ENDBRANCH   8  11
ENDBRANCH   7   8
ENDBRANCH   1   7
BRANCH   6  13
ATOM     13  N   LIG d   1       3.422  89.729 116.714  0.00  0.00    -0.311 N 
ATOM     14  C   LIG d   1       4.272  89.811 115.691  0.00  0.00     0.210 C 
ATOM     15  C   LIG d   1       5.697  89.340 115.995  0.00  0.00     0.109 C 
ATOM     16  O   LIG d   1       3.988  90.261 114.571  0.00  0.00    -0.276 OA
ATOM     17  H   LIG d   1       3.745  89.383 117.596  0.00  0.00     0.149 HD
ENDBRANCH   6  13
BRANCH   5  18
ATOM     18  N   LIG d   1       2.355  92.563 117.113  0.00  0.00     0.381 N 
ATOM     19  H   LIG d   1       2.549  93.123 117.920  0.00  0.00    -0.090 HD
ATOM     20  H   LIG d   1       1.761  93.091 116.498  0.00  0.00    -0.090 HD
ATOM     21  H   LIG d   1       3.206  92.333 116.648  0.00  0.00    -0.090 HD
ENDBRANCH   5  18
BRANCH   3  22
ATOM     22  C   LIG d   1      -1.890  90.649 118.233  0.00  0.00     0.382 C 
ATOM     23  O   LIG d   1      -2.433  91.780 118.213  0.00  0.00    -0.241 OA
ATOM     24  O   LIG d   1      -2.466  89.703 118.803  0.00  0.00    -0.241 OA
ENDBRANCH   3  22
TORSDOF 7
ENDMDL
MODEL 8
REMARK VINA RESULT:      -4.2      2.217      4.413
REMARK  7 active torsions:
REMARK  status: ('A' for Active; 'I' for Inactive)
REMARK    1  A    between atoms: C_2  and  C_3 
REMARK    2  A    between atoms: C_3  and  O_6 
REMARK    3  A    between atoms: C_3  and  C_4 
REMARK    4  A    between atoms: C_7  and  O_6 
REMARK    5  A    between atoms: C_9  and  C_10 
REMARK    6  A    between atoms: N_15  and  C_14 
REMARK    7  A    between atoms: N_20  and  C_19 
REMARK       I    between atoms: C_22  and  N_20 
ROOT
ATOM      1  C   LIG d   1       4.857  89.321 115.249  0.00  0.00     0.161 C 
ATOM      2  C   LIG d   1       4.637  90.473 116.024  0.00  0.00     0.016 C 
ATOM      3  C   LIG d   1       3.411  90.753 116.669  0.00  0.00     0.038 C 
ATOM      4  C   LIG d   1       2.363  89.821 116.709  0.00  0.00     0.028 C 
ATOM      5  C   LIG d   1       2.358  88.865 115.521  0.00  0.00    -0.047 C 
ATOM      6  C   LIG d   1       3.764  88.240 115.373  0.00  0.00     0.091 C 
ENDROOT
BRANCH   1   7
ATOM      7  O   LIG d   1       6.150  88.765 115.559  0.00  0.00    -0.368 OA
BRANCH   7   8
ATOM      8  C   LIG d   1       6.364  88.380 116.940  0.00  0.00     0.119 C 
BRANCH   8   9
ATOM      9  C   LIG d   1       7.779  88.846 117.336  0.00  0.00     0.028 C 
ATOM     10  C   LIG d   1       7.817  90.328 117.745  0.00  0.00     0.006 C 
ENDBRANCH   8   9
BRANCH   8  11
ATOM     11  C   LIG d   1       6.379  86.857 117.099  0.00  0.00     0.028 C 
ATOM     12  C   LIG d   1       5.572  86.377 118.315  0.00  0.00     0.006 C 
ENDBRANCH   8  11
ENDBRANCH   7   8
ENDBRANCH   1   7
BRANCH   6  13
ATOM     13  N   LIG d   1       3.869  87.356 114.183  0.00  0.00    -0.311 N 
ATOM     14  C   LIG d   1       3.294  87.630 113.013  0.00  0.00     0.210 C 
ATOM     15  C   LIG d   1       3.511  86.575 111.923  0.00  0.00     0.109 C 
ATOM     16  O   LIG d   1       2.653  88.662 112.765  0.00  0.00    -0.276 OA
ATOM     17  H   LIG d   1       4.398  86.512 114.287  0.00  0.00     0.149 HD
ENDBRANCH   6  13
BRANCH   5  18
ATOM     18  N   LIG d   1       1.302  87.863 115.759  0.00  0.00     0.381 N 
ATOM     19  H   LIG d   1       0.695  87.816 114.966  0.00  0.00    -0.090 HD
ATOM     20  H   LIG d   1       0.759  88.147 116.555  0.00  0.00    -0.090 HD
ATOM     21  H   LIG d   1       1.710  86.971 115.928  0.00  0.00    -0.090 HD
ENDBRANCH   5  18
BRANCH   3  22
ATOM     22  C   LIG d   1       3.209  91.996 117.251  0.00  0.00     0.382 C 
ATOM     23  O   LIG d   1       3.873  92.986 116.860  0.00  0.00    -0.241 OA
ATOM     24  O   LIG d   1       2.403  92.129 118.191  0.00  0.00    -0.241 OA
ENDBRANCH   3  22
TORSDOF 7
ENDMDL
MODEL 9
REMARK VINA RESULT:      -4.1      2.368      5.200
REMARK  7 active torsions:
REMARK  status: ('A' for Active; 'I' for Inactive)
REMARK    1  A    between atoms: C_2  and  C_3 
REMARK    2  A    between atoms: C_3  and  O_6 
REMARK    3  A    between atoms: C_3  and  C_4 
REMARK    4  A    between atoms: C_7  and  O_6 
REMARK    5  A    between atoms: C_9  and  C_10 
REMARK    6  A    between atoms: N_15  and  C_14 
REMARK    7  A    between atoms: N_20  and  C_19 
REMARK       I    between atoms: C_22  and  N_20 
ROOT
ATOM      1  C   LIG d   1       4.811  89.852 115.482  0.00  0.00     0.161 C 
ATOM      2  C   LIG d   1       4.126  89.511 114.304  0.00  0.00     0.016 C 
ATOM      3  C   LIG d   1       3.738  88.190 113.984  0.00  0.00     0.038 C 
ATOM      4  C   LIG d   1       3.878  87.134 114.897  0.00  0.00     0.028 C 
ATOM      5  C   LIG d   1       5.019  87.337 115.888  0.00  0.00    -0.047 C 
ATOM      6  C   LIG d   1       4.874  88.731 116.541  0.00  0.00     0.091 C 
ENDROOT
BRANCH   1   7
ATOM      7  O   LIG d   1       4.242  91.047 116.051  0.00  0.00    -0.368 OA
BRANCH   7   8
ATOM      8  C   LIG d   1       3.377  90.858 117.199  0.00  0.00     0.119 C 
BRANCH   8   9
ATOM      9  C   LIG d   1       1.929  90.778 116.679  0.00  0.00     0.028 C 
ATOM     10  C   LIG d   1       1.260  89.433 117.009  0.00  0.00     0.006 C 
ENDBRANCH   8   9
BRANCH   8  11
ATOM     11  C   LIG d   1       3.409  92.075 118.127  0.00  0.00     0.028 C 
ATOM     12  C   LIG d   1       2.125  92.917 118.049  0.00  0.00     0.006 C 
ENDBRANCH   8  11
ENDBRANCH   7   8
ENDBRANCH   1   7
BRANCH   6  13
ATOM     13  N   LIG d   1       5.997  89.044 117.463  0.00  0.00    -0.311 N 
ATOM     14  C   LIG d   1       7.260  88.697 117.223  0.00  0.00     0.210 C 
ATOM     15  C   LIG d   1       8.259  89.101 118.313  0.00  0.00     0.109 C 
ATOM     16  O   LIG d   1       7.653  88.122 116.197  0.00  0.00    -0.276 OA
ATOM     17  H   LIG d   1       5.772  89.537 118.305  0.00  0.00     0.149 HD
ENDBRANCH   6  13
BRANCH   5  18
ATOM     18  N   LIG d   1       4.963  86.233 116.864  0.00  0.00     0.381 N 
ATOM     19  H   LIG d   1       4.158  85.666 116.688  0.00  0.00    -0.090 HD
ATOM     20  H   LIG d   1       4.881  86.619 117.788  0.00  0.00    -0.090 HD
ATOM     21  H   LIG d   1       5.789  85.679 116.799  0.00  0.00    -0.090 HD
ENDBRANCH   5  18
BRANCH   3  22
ATOM     22  C   LIG d   1       3.240  87.907 112.721  0.00  0.00     0.382 C 
ATOM     23  O   LIG d   1       3.879  87.151 111.950  0.00  0.00    -0.241 OA
ATOM     24  O   LIG d   1       2.183  88.434 112.326  0.00  0.00    -0.241 OA
ENDBRANCH   3  22
TORSDOF 7
ENDMDL
