MODEL 1
REMARK VINA RESULT:      -4.0      0.000      0.000
REMARK  7 active torsions:
REMARK  status: ('A' for Active; 'I' for Inactive)
REMARK    1  A    between atoms: C_2  and  C_3 
REMARK    2  A    between atoms: C_3  and  O_6 
REMARK    3  A    between atoms: C_3  and  C_4 
REMARK    4  A    between atoms: C_7  and  O_6 
REMARK    5  A    between atoms: C_9  and  C_10 
REMARK    6  A    between atoms: N_15  and  C_14 
REMARK    7  A    between atoms: N_20  and  C_19 
REMARK       I    between atoms: C_22  and  N_20 
ROOT
ATOM      1  C   LIG d   1       4.987  87.075 115.234  0.00  0.00     0.161 C 
ATOM      2  C   LIG d   1       6.013  87.522 116.083  0.00  0.00     0.016 C 
ATOM      3  C   LIG d   1       6.647  88.778 115.942  0.00  0.00     0.038 C 
ATOM      4  C   LIG d   1       6.191  89.741 115.030  0.00  0.00     0.028 C 
ATOM      5  C   LIG d   1       5.488  89.141 113.817  0.00  0.00    -0.047 C 
ATOM      6  C   LIG d   1       4.400  88.156 114.303  0.00  0.00     0.091 C 
ENDROOT
BRANCH   1   7
ATOM      7  O   LIG d   1       3.940  86.463 116.014  0.00  0.00    -0.368 OA
BRANCH   7   8
ATOM      8  C   LIG d   1       2.859  87.336 116.425  0.00  0.00     0.119 C 
BRANCH   8   9
ATOM      9  C   LIG d   1       3.040  87.620 117.929  0.00  0.00     0.028 C 
ATOM     10  C   LIG d   1       3.414  89.085 118.208  0.00  0.00     0.006 C 
ENDBRANCH   8   9
BRANCH   8  11
ATOM     11  C   LIG d   1       1.502  86.637 116.305  0.00  0.00     0.028 C 
ATOM     12  C   LIG d   1       1.535  85.431 115.352  0.00  0.00     0.006 C 
ENDBRANCH   8  11
ENDBRANCH   7   8
ENDBRANCH   1   7
BRANCH   6  13
ATOM     13  N   LIG d   1       3.721  87.462 113.179  0.00  0.00    -0.311 N 
ATOM     14  C   LIG d   1       2.525  87.817 112.713  0.00  0.00     0.210 C 
ATOM     15  C   LIG d   1       1.997  86.955 111.562  0.00  0.00     0.109 C 
ATOM     16  O   LIG d   1       1.865  88.784 113.122  0.00  0.00    -0.276 OA
ATOM     17  H   LIG d   1       4.199  86.684 112.767  0.00  0.00     0.149 HD
ENDBRANCH   6  13
BRANCH   5  18
ATOM     18  N   LIG d   1       4.944  90.256 113.020  0.00  0.00     0.381 N 
ATOM     19  H   LIG d   1       5.662  90.932 112.849  0.00  0.00    -0.090 HD
ATOM     20  H   LIG d   1       4.210  90.702 113.543  0.00  0.00    -0.090 HD
ATOM     21  H   LIG d   1       4.586  89.915 112.155  0.00  0.00    -0.090 HD
ENDBRANCH   5  18
BRANCH   3  22
ATOM     22  C   LIG d   1       7.777  89.065 116.693  0.00  0.00     0.382 C 
ATOM     23  O   LIG d   1       8.245  90.229 116.701  0.00  0.00    -0.241 OA
ATOM     24  O   LIG d   1       8.359  88.166 117.328  0.00  0.00    -0.241 OA
ENDBRANCH   3  22
TORSDOF 7
ENDMDL
MODEL 2
REMARK VINA RESULT:      -4.0      2.078      5.106
REMARK  7 active torsions:
REMARK  status: ('A' for Active; 'I' for Inactive)
REMARK    1  A    between atoms: C_2  and  C_3 
REMARK    2  A    between atoms: C_3  and  O_6 
REMARK    3  A    between atoms: C_3  and  C_4 
REMARK    4  A    between atoms: C_7  and  O_6 
REMARK    5  A    between atoms: C_9  and  C_10 
REMARK    6  A    between atoms: N_15  and  C_14 
REMARK    7  A    between atoms: N_20  and  C_19 
REMARK       I    between atoms: C_22  and  N_20 
ROOT
ATOM      1  C   LIG d   1       3.441  89.198 115.595  0.00  0.00     0.161 C 
ATOM      2  C   LIG d   1       2.749  88.432 114.642  0.00  0.00     0.016 C 
ATOM      3  C   LIG d   1       3.248  88.167 113.346  0.00  0.00     0.038 C 
ATOM      4  C   LIG d   1       4.549  88.527 112.964  0.00  0.00     0.028 C 
ATOM      5  C   LIG d   1       5.089  89.738 113.717  0.00  0.00    -0.047 C 
ATOM      6  C   LIG d   1       4.910  89.505 115.235  0.00  0.00     0.091 C 
ENDROOT
BRANCH   1   7
ATOM      7  O   LIG d   1       3.364  88.560 116.885  0.00  0.00    -0.368 OA
BRANCH   7   8
ATOM      8  C   LIG d   1       2.653  89.289 117.915  0.00  0.00     0.119 C 
BRANCH   8   9
ATOM      9  C   LIG d   1       1.555  88.359 118.466  0.00  0.00     0.028 C 
ATOM     10  C   LIG d   1       0.202  88.569 117.765  0.00  0.00     0.006 C 
ENDBRANCH   8   9
BRANCH   8  11
ATOM     11  C   LIG d   1       1.909  90.494 117.333  0.00  0.00     0.028 C 
ATOM     12  C   LIG d   1       2.433  91.835 117.872  0.00  0.00     0.006 C 
ENDBRANCH   8  11
ENDBRANCH   7   8
ENDBRANCH   1   7
BRANCH   6  13
ATOM     13  N   LIG d   1       5.336  90.678 116.042  0.00  0.00    -0.311 N 
ATOM     14  C   LIG d   1       6.101  90.582 117.128  0.00  0.00     0.210 C 
ATOM     15  C   LIG d   1       6.406  91.912 117.824  0.00  0.00     0.109 C 
ATOM     16  O   LIG d   1       6.583  89.525 117.563  0.00  0.00    -0.276 OA
ATOM     17  H   LIG d   1       5.016  91.578 115.743  0.00  0.00     0.149 HD
ENDBRANCH   6  13
BRANCH   5  18
ATOM     18  N   LIG d   1       6.499  89.917 113.322  0.00  0.00     0.381 N 
ATOM     19  H   LIG d   1       6.545  90.337 112.415  0.00  0.00    -0.090 HD
ATOM     20  H   LIG d   1       6.940  89.015 113.275  0.00  0.00    -0.090 HD
ATOM     21  H   LIG d   1       6.969  90.491 113.987  0.00  0.00    -0.090 HD
ENDBRANCH   5  18
BRANCH   3  22
ATOM     22  C   LIG d   1       2.426  87.570 112.402  0.00  0.00     0.382 C 
ATOM     23  O   LIG d   1       2.929  86.958 111.430  0.00  0.00    -0.241 OA
ATOM     24  O   LIG d   1       1.187  87.675 112.487  0.00  0.00    -0.241 OA
ENDBRANCH   3  22
TORSDOF 7
ENDMDL
MODEL 3
REMARK VINA RESULT:      -4.0      2.592      5.390
REMARK  7 active torsions:
REMARK  status: ('A' for Active; 'I' for Inactive)
REMARK    1  A    between atoms: C_2  and  C_3 
REMARK    2  A    between atoms: C_3  and  O_6 
REMARK    3  A    between atoms: C_3  and  C_4 
REMARK    4  A    between atoms: C_7  and  O_6 
REMARK    5  A    between atoms: C_9  and  C_10 
REMARK    6  A    between atoms: N_15  and  C_14 
REMARK    7  A    between atoms: N_20  and  C_19 
REMARK       I    between atoms: C_22  and  N_20 
ROOT
ATOM      1  C   LIG d   1       3.732  88.607 115.308  0.00  0.00     0.161 C 
ATOM      2  C   LIG d   1       2.448  89.116 115.567  0.00  0.00     0.016 C 
ATOM      3  C   LIG d   1       2.162  90.000 116.633  0.00  0.00     0.038 C 
ATOM      4  C   LIG d   1       3.175  90.557 117.427  0.00  0.00     0.028 C 
ATOM      5  C   LIG d   1       4.420  89.681 117.522  0.00  0.00    -0.047 C 
ATOM      6  C   LIG d   1       4.869  89.290 116.096  0.00  0.00     0.091 C 
ENDROOT
BRANCH   1   7
ATOM      7  O   LIG d   1       4.002  88.657 113.893  0.00  0.00    -0.368 OA
BRANCH   7   8
ATOM      8  C   LIG d   1       3.705  87.452 113.145  0.00  0.00     0.119 C 
BRANCH   8   9
ATOM      9  C   LIG d   1       4.941  87.125 112.285  0.00  0.00     0.028 C 
ATOM     10  C   LIG d   1       6.114  88.082 112.557  0.00  0.00     0.006 C 
ENDBRANCH   8   9
BRANCH   8  11
ATOM     11  C   LIG d   1       2.566  87.682 112.147  0.00  0.00     0.028 C 
ATOM     12  C   LIG d   1       2.029  86.375 111.544  0.00  0.00     0.006 C 
ENDBRANCH   8  11
ENDBRANCH   7   8
ENDBRANCH   1   7
BRANCH   6  13
ATOM     13  N   LIG d   1       6.032  88.364 116.101  0.00  0.00    -0.311 N 
ATOM     14  C   LIG d   1       7.296  88.774 116.009  0.00  0.00     0.210 C 
ATOM     15  C   LIG d   1       8.341  87.654 116.014  0.00  0.00     0.109 C 
ATOM     16  O   LIG d   1       7.653  89.961 115.957  0.00  0.00    -0.276 OA
ATOM     17  H   LIG d   1       5.835  87.385 116.172  0.00  0.00     0.149 HD
ENDBRANCH   6  13
BRANCH   5  18
ATOM     18  N   LIG d   1       5.444  90.442 118.263  0.00  0.00     0.381 N 
ATOM     19  H   LIG d   1       6.351  90.238 117.892  0.00  0.00    -0.090 HD
ATOM     20  H   LIG d   1       5.427  90.158 119.227  0.00  0.00    -0.090 HD
ATOM     21  H   LIG d   1       5.261  91.418 118.193  0.00  0.00    -0.090 HD
ENDBRANCH   5  18
BRANCH   3  22
ATOM     22  C   LIG d   1       0.844  90.303 116.938  0.00  0.00     0.382 C 
ATOM     23  O   LIG d   1      -0.001  89.383 117.054  0.00  0.00    -0.241 OA
ATOM     24  O   LIG d   1       0.480  91.489 117.056  0.00  0.00    -0.241 OA
ENDBRANCH   3  22
TORSDOF 7
ENDMDL
MODEL 4
REMARK VINA RESULT:      -3.9      1.834      4.893
REMARK  7 active torsions:
REMARK  status: ('A' for Active; 'I' for Inactive)
REMARK    1  A    between atoms: C_2  and  C_3 
REMARK    2  A    between atoms: C_3  and  O_6 
REMARK    3  A    between atoms: C_3  and  C_4 
REMARK    4  A    between atoms: C_7  and  O_6 
REMARK    5  A    between atoms: C_9  and  C_10 
REMARK    6  A    between atoms: N_15  and  C_14 
REMARK    7  A    between atoms: N_20  and  C_19 
REMARK       I    between atoms: C_22  and  N_20 
ROOT
ATOM      1  C   LIG d   1       4.029  88.776 115.798  0.00  0.00     0.161 C 
ATOM      2  C   LIG d   1       3.153  88.138 114.904  0.00  0.00     0.016 C 
ATOM      3  C   LIG d   1       3.373  88.077 113.509  0.00  0.00     0.038 C 
ATOM      4  C   LIG d   1       4.568  88.523 112.926  0.00  0.00     0.028 C 
ATOM      5  C   LIG d   1       5.255  89.627 113.724  0.00  0.00    -0.047 C 
ATOM      6  C   LIG d   1       5.393  89.172 115.195  0.00  0.00     0.091 C 
ENDROOT
BRANCH   1   7
ATOM      7  O   LIG d   1       4.217  87.955 116.967  0.00  0.00    -0.368 OA
BRANCH   7   8
ATOM      8  C   LIG d   1       4.165  86.523 116.756  0.00  0.00     0.119 C 
BRANCH   8   9
ATOM      9  C   LIG d   1       3.325  85.917 117.897  0.00  0.00     0.028 C 
ATOM     10  C   LIG d   1       2.446  86.965 118.599  0.00  0.00     0.006 C 
ENDBRANCH   8   9
BRANCH   8  11
ATOM     11  C   LIG d   1       5.552  85.889 116.893  0.00  0.00     0.028 C 
ATOM     12  C   LIG d   1       6.161  85.490 115.539  0.00  0.00     0.006 C 
ENDBRANCH   8  11
ENDBRANCH   7   8
ENDBRANCH   1   7
BRANCH   6  13
ATOM     13  N   LIG d   1       5.979  90.226 116.062  0.00  0.00    -0.311 N 
ATOM     14  C   LIG d   1       7.215  90.167 116.555  0.00  0.00     0.210 C 
ATOM     15  C   LIG d   1       7.614  91.350 117.443  0.00  0.00     0.109 C 
ATOM     16  O   LIG d   1       8.029  89.262 116.316  0.00  0.00    -0.276 OA
ATOM     17  H   LIG d   1       5.398  91.012 116.281  0.00  0.00     0.149 HD
ENDBRANCH   6  13
BRANCH   5  18
ATOM     18  N   LIG d   1       6.554  89.900 113.079  0.00  0.00     0.381 N 
ATOM     19  H   LIG d   1       7.236  89.242 113.400  0.00  0.00    -0.090 HD
ATOM     20  H   LIG d   1       6.858  90.822 113.339  0.00  0.00    -0.090 HD
ATOM     21  H   LIG d   1       6.463  89.839 112.089  0.00  0.00    -0.090 HD
ENDBRANCH   5  18
BRANCH   3  22
ATOM     22  C   LIG d   1       2.372  87.601 112.675  0.00  0.00     0.382 C 
ATOM     23  O   LIG d   1       2.528  87.625 111.431  0.00  0.00    -0.241 OA
ATOM     24  O   LIG d   1       1.297  87.189 113.151  0.00  0.00    -0.241 OA
ENDBRANCH   3  22
TORSDOF 7
ENDMDL
MODEL 5
REMARK VINA RESULT:      -3.9      2.569      5.490
REMARK  7 active torsions:
REMARK  status: ('A' for Active; 'I' for Inactive)
REMARK    1  A    between atoms: C_2  and  C_3 
REMARK    2  A    between atoms: C_3  and  O_6 
REMARK    3  A    between atoms: C_3  and  C_4 
REMARK    4  A    between atoms: C_7  and  O_6 
REMARK    5  A    between atoms: C_9  and  C_10 
REMARK    6  A    between atoms: N_15  and  C_14 
REMARK    7  A    between atoms: N_20  and  C_19 
REMARK       I    between atoms: C_22  and  N_20 
ROOT
ATOM      1  C   LIG d   1       3.660  88.360 116.102  0.00  0.00     0.161 C 
ATOM      2  C   LIG d   1       2.330  88.795 116.229  0.00  0.00     0.016 C 
ATOM      3  C   LIG d   1       1.971  90.055 116.761  0.00  0.00     0.038 C 
ATOM      4  C   LIG d   1       2.931  91.032 117.065  0.00  0.00     0.028 C 
ATOM      5  C   LIG d   1       4.293  90.452 117.426  0.00  0.00    -0.047 C 
ATOM      6  C   LIG d   1       4.723  89.457 116.324  0.00  0.00     0.091 C 
ENDROOT
BRANCH   1   7
ATOM      7  O   LIG d   1       3.848  87.733 114.818  0.00  0.00    -0.368 OA
BRANCH   7   8
ATOM      8  C   LIG d   1       3.878  88.621 113.673  0.00  0.00     0.119 C 
BRANCH   8   9
ATOM      9  C   LIG d   1       2.902  88.055 112.623  0.00  0.00     0.028 C 
ATOM     10  C   LIG d   1       2.253  86.736 113.076  0.00  0.00     0.006 C 
ENDBRANCH   8   9
BRANCH   8  11
ATOM     11  C   LIG d   1       5.252  88.612 112.996  0.00  0.00     0.028 C 
ATOM     12  C   LIG d   1       6.040  87.321 113.265  0.00  0.00     0.006 C 
ENDBRANCH   8  11
ENDBRANCH   7   8
ENDBRANCH   1   7
BRANCH   6  13
ATOM     13  N   LIG d   1       6.008  88.780 116.641  0.00  0.00    -0.311 N 
ATOM     14  C   LIG d   1       7.197  89.262 116.287  0.00  0.00     0.210 C 
ATOM     15  C   LIG d   1       8.394  88.397 116.696  0.00  0.00     0.109 C 
ATOM     16  O   LIG d   1       7.378  90.340 115.702  0.00  0.00    -0.276 OA
ATOM     17  H   LIG d   1       5.956  87.914 117.142  0.00  0.00     0.149 HD
ENDBRANCH   6  13
BRANCH   5  18
ATOM     18  N   LIG d   1       5.231  91.580 117.584  0.00  0.00     0.381 N 
ATOM     19  H   LIG d   1       4.725  92.411 117.818  0.00  0.00    -0.090 HD
ATOM     20  H   LIG d   1       5.704  91.734 116.711  0.00  0.00    -0.090 HD
ATOM     21  H   LIG d   1       5.894  91.374 118.298  0.00  0.00    -0.090 HD
ENDBRANCH   5  18
BRANCH   3  22
ATOM     22  C   LIG d   1       0.640  90.332 117.033  0.00  0.00     0.382 C 
ATOM     23  O   LIG d   1      -0.198  89.399 117.079  0.00  0.00    -0.241 OA
ATOM     24  O   LIG d   1       0.258  91.508 117.188  0.00  0.00    -0.241 OA
ENDBRANCH   3  22
TORSDOF 7
ENDMDL
MODEL 6
REMARK VINA RESULT:      -3.9      7.313      9.081
REMARK  7 active torsions:
REMARK  status: ('A' for Active; 'I' for Inactive)
REMARK    1  A    between atoms: C_2  and  C_3 
REMARK    2  A    between atoms: C_3  and  O_6 
REMARK    3  A    between atoms: C_3  and  C_4 
REMARK    4  A    between atoms: C_7  and  O_6 
REMARK    5  A    between atoms: C_9  and  C_10 
REMARK    6  A    between atoms: N_15  and  C_14 
REMARK    7  A    between atoms: N_20  and  C_19 
REMARK       I    between atoms: C_22  and  N_20 
ROOT
ATOM      1  C   LIG d   1      -2.643  91.567 118.218  0.00  0.00     0.161 C 
ATOM      2  C   LIG d   1      -2.679  92.966 118.095  0.00  0.00     0.016 C 
ATOM      3  C   LIG d   1      -1.521  93.766 117.961  0.00  0.00     0.038 C 
ATOM      4  C   LIG d   1      -0.248  93.203 117.786  0.00  0.00     0.028 C 
ATOM      5  C   LIG d   1      -0.107  91.818 118.409  0.00  0.00    -0.047 C 
ATOM      6  C   LIG d   1      -1.272  90.927 117.918  0.00  0.00     0.091 C 
ENDROOT
BRANCH   1   7
ATOM      7  O   LIG d   1      -3.663  90.978 117.388  0.00  0.00    -0.368 OA
BRANCH   7   8
ATOM      8  C   LIG d   1      -4.952  91.639 117.395  0.00  0.00     0.119 C 
BRANCH   8   9
ATOM      9  C   LIG d   1      -5.631  91.315 118.740  0.00  0.00     0.028 C 
ATOM     10  C   LIG d   1      -6.955  92.075 118.929  0.00  0.00     0.006 C 
ENDBRANCH   8   9
BRANCH   8  11
ATOM     11  C   LIG d   1      -5.881  91.063 116.323  0.00  0.00     0.028 C 
ATOM     12  C   LIG d   1      -6.458  92.141 115.392  0.00  0.00     0.006 C 
ENDBRANCH   8  11
ENDBRANCH   7   8
ENDBRANCH   1   7
BRANCH   6  13
ATOM     13  N   LIG d   1      -1.258  89.580 118.545  0.00  0.00    -0.311 N 
ATOM     14  C   LIG d   1      -0.629  88.531 118.017  0.00  0.00     0.210 C 
ATOM     15  C   LIG d   1      -0.757  87.230 118.815  0.00  0.00     0.109 C 
ATOM     16  O   LIG d   1       0.050  88.563 116.980  0.00  0.00    -0.276 OA
ATOM     17  H   LIG d   1      -1.758  89.472 119.406  0.00  0.00     0.149 HD
ENDBRANCH   6  13
BRANCH   5  18
ATOM     18  N   LIG d   1       1.219  91.293 118.034  0.00  0.00     0.381 N 
ATOM     19  H   LIG d   1       1.879  91.491 118.760  0.00  0.00    -0.090 HD
ATOM     20  H   LIG d   1       1.526  91.753 117.195  0.00  0.00    -0.090 HD
ATOM     21  H   LIG d   1       1.167  90.310 117.883  0.00  0.00    -0.090 HD
ENDBRANCH   5  18
BRANCH   3  22
ATOM     22  C   LIG d   1      -1.625  95.146 118.040  0.00  0.00     0.382 C 
ATOM     23  O   LIG d   1      -0.702  95.871 117.595  0.00  0.00    -0.241 OA
ATOM     24  O   LIG d   1      -2.610  95.675 118.589  0.00  0.00    -0.241 OA
ENDBRANCH   3  22
TORSDOF 7
ENDMDL
MODEL 7
REMARK VINA RESULT:      -3.8      2.759      4.614
REMARK  7 active torsions:
REMARK  status: ('A' for Active; 'I' for Inactive)
REMARK    1  A    between atoms: C_2  and  C_3 
REMARK    2  A    between atoms: C_3  and  O_6 
REMARK    3  A    between atoms: C_3  and  C_4 
REMARK    4  A    between atoms: C_7  and  O_6 
REMARK    5  A    between atoms: C_9  and  C_10 
REMARK    6  A    between atoms: N_15  and  C_14 
REMARK    7  A    between atoms: N_20  and  C_19 
REMARK       I    between atoms: C_22  and  N_20 
ROOT
ATOM      1  C   LIG d   1       4.088  89.012 115.842  0.00  0.00     0.161 C 
ATOM      2  C   LIG d   1       4.256  90.306 116.362  0.00  0.00     0.016 C 
ATOM      3  C   LIG d   1       3.266  90.975 117.118  0.00  0.00     0.038 C 
ATOM      4  C   LIG d   1       2.091  90.331 117.536  0.00  0.00     0.028 C 
ATOM      5  C   LIG d   1       1.658  89.199 116.610  0.00  0.00    -0.047 C 
ATOM      6  C   LIG d   1       2.858  88.252 116.381  0.00  0.00     0.091 C 
ENDROOT
BRANCH   1   7
ATOM      7  O   LIG d   1       5.287  88.240 116.055  0.00  0.00    -0.368 OA
BRANCH   7   8
ATOM      8  C   LIG d   1       6.251  88.248 114.973  0.00  0.00     0.119 C 
BRANCH   8   9
ATOM      9  C   LIG d   1       5.839  87.145 113.979  0.00  0.00     0.028 C 
ATOM     10  C   LIG d   1       5.580  87.694 112.566  0.00  0.00     0.006 C 
ENDBRANCH   8   9
BRANCH   8  11
ATOM     11  C   LIG d   1       7.645  87.850 115.466  0.00  0.00     0.028 C 
ATOM     12  C   LIG d   1       8.081  88.632 116.715  0.00  0.00     0.006 C 
ENDBRANCH   8  11
ENDBRANCH   7   8
ENDBRANCH   1   7
BRANCH   6  13
ATOM     13  N   LIG d   1       2.545  87.163 115.420  0.00  0.00    -0.311 N 
ATOM     14  C   LIG d   1       2.168  87.382 114.161  0.00  0.00     0.210 C 
ATOM     15  C   LIG d   1       1.874  86.119 113.345  0.00  0.00     0.109 C 
ATOM     16  O   LIG d   1       2.080  88.501 113.634  0.00  0.00    -0.276 OA
ATOM     17  H   LIG d   1       2.621  86.222 115.755  0.00  0.00     0.149 HD
ENDBRANCH   6  13
BRANCH   5  18
ATOM     18  N   LIG d   1       0.503  88.528 117.236  0.00  0.00     0.381 N 
ATOM     19  H   LIG d   1       0.815  87.955 117.995  0.00  0.00    -0.090 HD
ATOM     20  H   LIG d   1       0.063  87.936 116.555  0.00  0.00    -0.090 HD
ATOM     21  H   LIG d   1      -0.147  89.207 117.568  0.00  0.00    -0.090 HD
ENDBRANCH   5  18
BRANCH   3  22
ATOM     22  C   LIG d   1       3.428  92.316 117.430  0.00  0.00     0.382 C 
ATOM     23  O   LIG d   1       2.482  92.959 117.945  0.00  0.00    -0.241 OA
ATOM     24  O   LIG d   1       4.494  92.902 117.162  0.00  0.00    -0.241 OA
ENDBRANCH   3  22
TORSDOF 7
ENDMDL
MODEL 8
REMARK VINA RESULT:      -3.8      2.511      5.565
REMARK  7 active torsions:
REMARK  status: ('A' for Active; 'I' for Inactive)
REMARK    1  A    between atoms: C_2  and  C_3 
REMARK    2  A    between atoms: C_3  and  O_6 
REMARK    3  A    between atoms: C_3  and  C_4 
REMARK    4  A    between atoms: C_7  and  O_6 
REMARK    5  A    between atoms: C_9  and  C_10 
REMARK    6  A    between atoms: N_15  and  C_14 
REMARK    7  A    between atoms: N_20  and  C_19 
REMARK       I    between atoms: C_22  and  N_20 
ROOT
ATOM      1  C   LIG d   1       5.755  90.069 115.100  0.00  0.00     0.161 C 
ATOM      2  C   LIG d   1       4.841  89.653 114.117  0.00  0.00     0.016 C 
ATOM      3  C   LIG d   1       4.717  88.312 113.688  0.00  0.00     0.038 C 
ATOM      4  C   LIG d   1       5.397  87.263 114.325  0.00  0.00     0.028 C 
ATOM      5  C   LIG d   1       6.703  87.699 114.982  0.00  0.00    -0.047 C 
ATOM      6  C   LIG d   1       6.426  88.923 115.885  0.00  0.00     0.091 C 
ENDROOT
BRANCH   1   7
ATOM      7  O   LIG d   1       5.113  90.988 116.007  0.00  0.00    -0.368 OA
BRANCH   7   8
ATOM      8  C   LIG d   1       4.391  90.392 117.112  0.00  0.00     0.119 C 
BRANCH   8   9
ATOM      9  C   LIG d   1       2.888  90.622 116.861  0.00  0.00     0.028 C 
ATOM     10  C   LIG d   1       2.022  89.458 117.372  0.00  0.00     0.006 C 
ENDBRANCH   8   9
BRANCH   8  11
ATOM     11  C   LIG d   1       4.697  91.111 118.430  0.00  0.00     0.028 C 
ATOM     12  C   LIG d   1       5.693  92.268 118.259  0.00  0.00     0.006 C 
ENDBRANCH   8  11
ENDBRANCH   7   8
ENDBRANCH   1   7
BRANCH   6  13
ATOM     13  N   LIG d   1       7.666  89.464 116.500  0.00  0.00    -0.311 N 
ATOM     14  C   LIG d   1       7.972  89.315 117.788  0.00  0.00     0.210 C 
ATOM     15  C   LIG d   1       9.288  89.969 118.220  0.00  0.00     0.109 C 
ATOM     16  O   LIG d   1       7.294  88.675 118.606  0.00  0.00    -0.276 OA
ATOM     17  H   LIG d   1       8.289  89.971 115.901  0.00  0.00     0.149 HD
ENDBRANCH   6  13
BRANCH   5  18
ATOM     18  N   LIG d   1       7.236  86.541 115.724  0.00  0.00     0.381 N 
ATOM     19  H   LIG d   1       7.736  86.857 116.531  0.00  0.00    -0.090 HD
ATOM     20  H   LIG d   1       7.877  86.043 115.132  0.00  0.00    -0.090 HD
ATOM     21  H   LIG d   1       6.491  85.940 116.000  0.00  0.00    -0.090 HD
ENDBRANCH   5  18
BRANCH   3  22
ATOM     22  C   LIG d   1       3.934  88.014 112.583  0.00  0.00     0.382 C 
ATOM     23  O   LIG d   1       4.339  87.186 111.733  0.00  0.00    -0.241 OA
ATOM     24  O   LIG d   1       2.847  88.596 112.403  0.00  0.00    -0.241 OA
ENDBRANCH   3  22
TORSDOF 7
ENDMDL
MODEL 9
REMARK VINA RESULT:      -3.7      1.919      2.354
REMARK  7 active torsions:
REMARK  status: ('A' for Active; 'I' for Inactive)
REMARK    1  A    between atoms: C_2  and  C_3 
REMARK    2  A    between atoms: C_3  and  O_6 
REMARK    3  A    between atoms: C_3  and  C_4 
REMARK    4  A    between atoms: C_7  and  O_6 
REMARK    5  A    between atoms: C_9  and  C_10 
REMARK    6  A    between atoms: N_15  and  C_14 
REMARK    7  A    between atoms: N_20  and  C_19 
REMARK       I    between atoms: C_22  and  N_20 
ROOT
ATOM      1  C   LIG d   1       4.759  88.591 116.588  0.00  0.00     0.161 C 
ATOM      2  C   LIG d   1       5.722  89.281 117.344  0.00  0.00     0.016 C 
ATOM      3  C   LIG d   1       6.782  90.018 116.768  0.00  0.00     0.038 C 
ATOM      4  C   LIG d   1       6.863  90.242 115.386  0.00  0.00     0.028 C 
ATOM      5  C   LIG d   1       6.203  89.147 114.554  0.00  0.00    -0.047 C 
ATOM      6  C   LIG d   1       4.768  88.916 115.080  0.00  0.00     0.091 C 
ENDROOT
BRANCH   1   7
ATOM      7  O   LIG d   1       3.448  88.818 117.142  0.00  0.00    -0.368 OA
BRANCH   7   8
ATOM      8  C   LIG d   1       2.750  89.995 116.666  0.00  0.00     0.119 C 
BRANCH   8   9
ATOM      9  C   LIG d   1       2.651  90.983 117.845  0.00  0.00     0.028 C 
ATOM     10  C   LIG d   1       3.565  92.206 117.664  0.00  0.00     0.006 C 
ENDBRANCH   8   9
BRANCH   8  11
ATOM     11  C   LIG d   1       1.303  89.669 116.287  0.00  0.00     0.028 C 
ATOM     12  C   LIG d   1       0.278  90.499 117.077  0.00  0.00     0.006 C 
ENDBRANCH   8  11
ENDBRANCH   7   8
ENDBRANCH   1   7
BRANCH   6  13
ATOM     13  N   LIG d   1       4.079  87.802 114.376  0.00  0.00    -0.311 N 
ATOM     14  C   LIG d   1       3.347  87.971 113.277  0.00  0.00     0.210 C 
ATOM     15  C   LIG d   1       2.708  86.693 112.723  0.00  0.00     0.109 C 
ATOM     16  O   LIG d   1       3.192  89.052 112.689  0.00  0.00    -0.276 OA
ATOM     17  H   LIG d   1       4.178  86.886 114.767  0.00  0.00     0.149 HD
ENDBRANCH   6  13
BRANCH   5  18
ATOM     18  N   LIG d   1       6.240  89.575 113.143  0.00  0.00     0.381 N 
ATOM     19  H   LIG d   1       5.446  90.150 112.942  0.00  0.00    -0.090 HD
ATOM     20  H   LIG d   1       6.198  88.762 112.556  0.00  0.00    -0.090 HD
ATOM     21  H   LIG d   1       7.079  90.082 112.962  0.00  0.00    -0.090 HD
ENDBRANCH   5  18
BRANCH   3  22
ATOM     22  C   LIG d   1       7.797  90.507 117.576  0.00  0.00     0.382 C 
ATOM     23  O   LIG d   1       7.526  91.282 118.524  0.00  0.00    -0.241 OA
ATOM     24  O   LIG d   1       8.986  90.218 117.341  0.00  0.00    -0.241 OA
ENDBRANCH   3  22
TORSDOF 7
ENDMDL
