MODEL 1
REMARK VINA RESULT:      -4.8      0.000      0.000
REMARK  7 active torsions:
REMARK  status: ('A' for Active; 'I' for Inactive)
REMARK    1  A    between atoms: C_2  and  C_3 
REMARK    2  A    between atoms: C_3  and  O_6 
REMARK    3  A    between atoms: C_3  and  C_4 
REMARK    4  A    between atoms: C_7  and  O_6 
REMARK    5  A    between atoms: C_9  and  C_10 
REMARK    6  A    between atoms: N_15  and  C_14 
REMARK    7  A    between atoms: N_20  and  C_19 
REMARK       I    between atoms: C_22  and  N_20 
ROOT
ATOM      1  C   LIG d   1       4.145  90.404 114.708  0.00  0.00     0.161 C 
ATOM      2  C   LIG d   1       3.532  89.626 113.712  0.00  0.00     0.016 C 
ATOM      3  C   LIG d   1       3.915  88.297 113.418  0.00  0.00     0.038 C 
ATOM      4  C   LIG d   1       4.842  87.600 114.207  0.00  0.00     0.028 C 
ATOM      5  C   LIG d   1       5.848  88.510 114.905  0.00  0.00    -0.047 C 
ATOM      6  C   LIG d   1       5.082  89.624 115.654  0.00  0.00     0.091 C 
ENDROOT
BRANCH   1   7
ATOM      7  O   LIG d   1       3.140  91.107 115.466  0.00  0.00    -0.368 OA
BRANCH   7   8
ATOM      8  C   LIG d   1       2.779  90.521 116.741  0.00  0.00     0.119 C 
BRANCH   8   9
ATOM      9  C   LIG d   1       1.334  89.998 116.618  0.00  0.00     0.028 C 
ATOM     10  C   LIG d   1       1.278  88.478 116.394  0.00  0.00     0.006 C 
ENDBRANCH   8   9
BRANCH   8  11
ATOM     11  C   LIG d   1       2.733  91.580 117.848  0.00  0.00     0.028 C 
ATOM     12  C   LIG d   1       3.329  92.927 117.408  0.00  0.00     0.006 C 
ENDBRANCH   8  11
ENDBRANCH   7   8
ENDBRANCH   1   7
BRANCH   6  13
ATOM     13  N   LIG d   1       5.995  90.607 116.294  0.00  0.00    -0.311 N 
ATOM     14  C   LIG d   1       6.379  90.529 117.567  0.00  0.00     0.210 C 
ATOM     15  C   LIG d   1       7.307  91.656 118.032  0.00  0.00     0.109 C 
ATOM     16  O   LIG d   1       6.066  89.617 118.346  0.00  0.00    -0.276 OA
ATOM     17  H   LIG d   1       6.322  91.363 115.725  0.00  0.00     0.149 HD
ENDBRANCH   6  13
BRANCH   5  18
ATOM     18  N   LIG d   1       6.665  87.668 115.799  0.00  0.00     0.381 N 
ATOM     19  H   LIG d   1       6.621  88.024 116.733  0.00  0.00    -0.090 HD
ATOM     20  H   LIG d   1       7.622  87.702 115.494  0.00  0.00    -0.090 HD
ATOM     21  H   LIG d   1       6.335  86.728 115.778  0.00  0.00    -0.090 HD
ENDBRANCH   5  18
BRANCH   3  22
ATOM     22  C   LIG d   1       3.397  87.665 112.298  0.00  0.00     0.382 C 
ATOM     23  O   LIG d   1       4.035  86.732 111.753  0.00  0.00    -0.241 OA
ATOM     24  O   LIG d   1       2.320  88.044 111.799  0.00  0.00    -0.241 OA
ENDBRANCH   3  22
TORSDOF 7
ENDMDL
MODEL 2
REMARK VINA RESULT:      -4.6      2.837      5.998
REMARK  7 active torsions:
REMARK  status: ('A' for Active; 'I' for Inactive)
REMARK    1  A    between atoms: C_2  and  C_3 
REMARK    2  A    between atoms: C_3  and  O_6 
REMARK    3  A    between atoms: C_3  and  C_4 
REMARK    4  A    between atoms: C_7  and  O_6 
REMARK    5  A    between atoms: C_9  and  C_10 
REMARK    6  A    between atoms: N_15  and  C_14 
REMARK    7  A    between atoms: N_20  and  C_19 
REMARK       I    between atoms: C_22  and  N_20 
ROOT
ATOM      1  C   LIG d   1       2.483  89.117 115.140  0.00  0.00     0.161 C 
ATOM      2  C   LIG d   1       3.252  90.240 115.488  0.00  0.00     0.016 C 
ATOM      3  C   LIG d   1       3.100  90.940 116.707  0.00  0.00     0.038 C 
ATOM      4  C   LIG d   1       2.266  90.471 117.732  0.00  0.00     0.028 C 
ATOM      5  C   LIG d   1       1.100  89.628 117.227  0.00  0.00    -0.047 C 
ATOM      6  C   LIG d   1       1.647  88.524 116.293  0.00  0.00     0.091 C 
ENDROOT
BRANCH   1   7
ATOM      7  O   LIG d   1       3.331  88.104 114.564  0.00  0.00    -0.368 OA
BRANCH   7   8
ATOM      8  C   LIG d   1       3.399  88.077 113.117  0.00  0.00     0.119 C 
BRANCH   8   9
ATOM      9  C   LIG d   1       2.514  86.911 112.634  0.00  0.00     0.028 C 
ATOM     10  C   LIG d   1       3.257  85.564 112.652  0.00  0.00     0.006 C 
ENDBRANCH   8   9
BRANCH   8  11
ATOM     11  C   LIG d   1       4.812  87.742 112.631  0.00  0.00     0.028 C 
ATOM     12  C   LIG d   1       5.852  88.792 113.054  0.00  0.00     0.006 C 
ENDBRANCH   8  11
ENDBRANCH   7   8
ENDBRANCH   1   7
BRANCH   6  13
ATOM     13  N   LIG d   1       0.564  87.706 115.688  0.00  0.00    -0.311 N 
ATOM     14  C   LIG d   1       0.592  86.375 115.636  0.00  0.00     0.210 C 
ATOM     15  C   LIG d   1      -0.617  85.729 114.951  0.00  0.00     0.109 C 
ATOM     16  O   LIG d   1       1.488  85.667 116.120  0.00  0.00    -0.276 OA
ATOM     17  H   LIG d   1      -0.217  88.198 115.299  0.00  0.00     0.149 HD
ENDBRANCH   6  13
BRANCH   5  18
ATOM     18  N   LIG d   1       0.395  89.091 118.406  0.00  0.00     0.381 N 
ATOM     19  H   LIG d   1      -0.196  89.797 118.798  0.00  0.00    -0.090 HD
ATOM     20  H   LIG d   1       1.073  88.826 119.098  0.00  0.00    -0.090 HD
ATOM     21  H   LIG d   1      -0.151  88.299 118.146  0.00  0.00    -0.090 HD
ENDBRANCH   5  18
BRANCH   3  22
ATOM     22  C   LIG d   1       3.757  92.147 116.893  0.00  0.00     0.382 C 
ATOM     23  O   LIG d   1       3.168  93.227 116.645  0.00  0.00    -0.241 OA
ATOM     24  O   LIG d   1       4.946  92.168 117.262  0.00  0.00    -0.241 OA
ENDBRANCH   3  22
TORSDOF 7
ENDMDL
MODEL 3
REMARK VINA RESULT:      -4.2      2.145      4.965
REMARK  7 active torsions:
REMARK  status: ('A' for Active; 'I' for Inactive)
REMARK    1  A    between atoms: C_2  and  C_3 
REMARK    2  A    between atoms: C_3  and  O_6 
REMARK    3  A    between atoms: C_3  and  C_4 
REMARK    4  A    between atoms: C_7  and  O_6 
REMARK    5  A    between atoms: C_9  and  C_10 
REMARK    6  A    between atoms: N_15  and  C_14 
REMARK    7  A    between atoms: N_20  and  C_19 
REMARK       I    between atoms: C_22  and  N_20 
ROOT
ATOM      1  C   LIG d   1       3.991  88.942 116.953  0.00  0.00     0.161 C 
ATOM      2  C   LIG d   1       3.290  90.158 116.897  0.00  0.00     0.016 C 
ATOM      3  C   LIG d   1       3.918  91.423 116.976  0.00  0.00     0.038 C 
ATOM      4  C   LIG d   1       5.314  91.559 116.965  0.00  0.00     0.028 C 
ATOM      5  C   LIG d   1       6.046  90.347 117.532  0.00  0.00    -0.047 C 
ATOM      6  C   LIG d   1       5.524  89.072 116.830  0.00  0.00     0.091 C 
ENDROOT
BRANCH   1   7
ATOM      7  O   LIG d   1       3.483  88.038 115.952  0.00  0.00    -0.368 OA
BRANCH   7   8
ATOM      8  C   LIG d   1       4.251  87.946 114.727  0.00  0.00     0.119 C 
BRANCH   8   9
ATOM      9  C   LIG d   1       3.500  88.750 113.648  0.00  0.00     0.028 C 
ATOM     10  C   LIG d   1       4.127  90.133 113.404  0.00  0.00     0.006 C 
ENDBRANCH   8   9
BRANCH   8  11
ATOM     11  C   LIG d   1       4.295  86.507 114.204  0.00  0.00     0.028 C 
ATOM     12  C   LIG d   1       4.251  86.430 112.670  0.00  0.00     0.006 C 
ENDBRANCH   8  11
ENDBRANCH   7   8
ENDBRANCH   1   7
BRANCH   6  13
ATOM     13  N   LIG d   1       6.127  87.832 117.384  0.00  0.00    -0.311 N 
ATOM     14  C   LIG d   1       7.247  87.287 116.912  0.00  0.00     0.210 C 
ATOM     15  C   LIG d   1       7.684  85.998 117.615  0.00  0.00     0.109 C 
ATOM     16  O   LIG d   1       7.937  87.767 116.000  0.00  0.00    -0.276 OA
ATOM     17  H   LIG d   1       5.649  87.394 118.147  0.00  0.00     0.149 HD
ENDBRANCH   6  13
BRANCH   5  18
ATOM     18  N   LIG d   1       7.491  90.565 117.333  0.00  0.00     0.381 N 
ATOM     19  H   LIG d   1       7.994  90.261 118.143  0.00  0.00    -0.090 HD
ATOM     20  H   LIG d   1       7.657  91.548 117.210  0.00  0.00    -0.090 HD
ATOM     21  H   LIG d   1       7.805  90.065 116.531  0.00  0.00    -0.090 HD
ENDBRANCH   5  18
BRANCH   3  22
ATOM     22  C   LIG d   1       3.146  92.567 117.107  0.00  0.00     0.382 C 
ATOM     23  O   LIG d   1       1.941  92.474 117.444  0.00  0.00    -0.241 OA
ATOM     24  O   LIG d   1       3.627  93.686 116.849  0.00  0.00    -0.241 OA
ENDBRANCH   3  22
TORSDOF 7
ENDMDL
MODEL 4
REMARK VINA RESULT:      -4.2      2.036      5.402
REMARK  7 active torsions:
REMARK  status: ('A' for Active; 'I' for Inactive)
REMARK    1  A    between atoms: C_2  and  C_3 
REMARK    2  A    between atoms: C_3  and  O_6 
REMARK    3  A    between atoms: C_3  and  C_4 
REMARK    4  A    between atoms: C_7  and  O_6 
REMARK    5  A    between atoms: C_9  and  C_10 
REMARK    6  A    between atoms: N_15  and  C_14 
REMARK    7  A    between atoms: N_20  and  C_19 
REMARK       I    between atoms: C_22  and  N_20 
ROOT
ATOM      1  C   LIG d   1       3.923  87.643 115.996  0.00  0.00     0.161 C 
ATOM      2  C   LIG d   1       4.268  88.440 117.101  0.00  0.00     0.016 C 
ATOM      3  C   LIG d   1       4.746  89.765 116.986  0.00  0.00     0.038 C 
ATOM      4  C   LIG d   1       4.770  90.441 115.757  0.00  0.00     0.028 C 
ATOM      5  C   LIG d   1       4.909  89.510 114.557  0.00  0.00    -0.047 C 
ATOM      6  C   LIG d   1       3.837  88.401 114.655  0.00  0.00     0.091 C 
ENDROOT
BRANCH   1   7
ATOM      7  O   LIG d   1       2.688  86.950 116.260  0.00  0.00    -0.368 OA
BRANCH   7   8
ATOM      8  C   LIG d   1       1.476  87.627 115.847  0.00  0.00     0.119 C 
BRANCH   8   9
ATOM      9  C   LIG d   1       0.935  88.395 117.069  0.00  0.00     0.028 C 
ATOM     10  C   LIG d   1       0.961  89.919 116.863  0.00  0.00     0.006 C 
ENDBRANCH   8   9
BRANCH   8  11
ATOM     11  C   LIG d   1       0.376  86.627 115.477  0.00  0.00     0.028 C 
ATOM     12  C   LIG d   1       0.376  86.266 113.984  0.00  0.00     0.006 C 
ENDBRANCH   8  11
ENDBRANCH   7   8
ENDBRANCH   1   7
BRANCH   6  13
ATOM     13  N   LIG d   1       3.957  87.399 113.564  0.00  0.00    -0.311 N 
ATOM     14  C   LIG d   1       3.297  87.488 112.410  0.00  0.00     0.210 C 
ATOM     15  C   LIG d   1       3.549  86.338 111.430  0.00  0.00     0.109 C 
ATOM     16  O   LIG d   1       2.552  88.427 112.093  0.00  0.00    -0.276 OA
ATOM     17  H   LIG d   1       4.565  86.620 113.725  0.00  0.00     0.149 HD
ENDBRANCH   6  13
BRANCH   5  18
ATOM     18  N   LIG d   1       4.782  90.332 113.338  0.00  0.00     0.381 N 
ATOM     19  H   LIG d   1       5.684  90.474 112.929  0.00  0.00    -0.090 HD
ATOM     20  H   LIG d   1       4.405  91.229 113.589  0.00  0.00    -0.090 HD
ATOM     21  H   LIG d   1       4.180  89.881 112.685  0.00  0.00    -0.090 HD
ENDBRANCH   5  18
BRANCH   3  22
ATOM     22  C   LIG d   1       5.246  90.415 118.104  0.00  0.00     0.382 C 
ATOM     23  O   LIG d   1       6.468  90.346 118.376  0.00  0.00    -0.241 OA
ATOM     24  O   LIG d   1       4.481  91.033 118.869  0.00  0.00    -0.241 OA
ENDBRANCH   3  22
TORSDOF 7
ENDMDL
MODEL 5
REMARK VINA RESULT:      -4.2      2.104      3.122
REMARK  7 active torsions:
REMARK  status: ('A' for Active; 'I' for Inactive)
REMARK    1  A    between atoms: C_2  and  C_3 
REMARK    2  A    between atoms: C_3  and  O_6 
REMARK    3  A    between atoms: C_3  and  C_4 
REMARK    4  A    between atoms: C_7  and  O_6 
REMARK    5  A    between atoms: C_9  and  C_10 
REMARK    6  A    between atoms: N_15  and  C_14 
REMARK    7  A    between atoms: N_20  and  C_19 
REMARK       I    between atoms: C_22  and  N_20 
ROOT
ATOM      1  C   LIG d   1       3.314  87.939 115.227  0.00  0.00     0.161 C 
ATOM      2  C   LIG d   1       2.620  87.262 114.211  0.00  0.00     0.016 C 
ATOM      3  C   LIG d   1       3.076  87.186 112.875  0.00  0.00     0.038 C 
ATOM      4  C   LIG d   1       4.341  87.658 112.495  0.00  0.00     0.028 C 
ATOM      5  C   LIG d   1       4.854  88.793 113.375  0.00  0.00    -0.047 C 
ATOM      6  C   LIG d   1       4.750  88.365 114.857  0.00  0.00     0.091 C 
ENDROOT
BRANCH   1   7
ATOM      7  O   LIG d   1       3.321  87.143 116.428  0.00  0.00    -0.368 OA
BRANCH   7   8
ATOM      8  C   LIG d   1       2.136  87.228 117.257  0.00  0.00     0.119 C 
BRANCH   8   9
ATOM      9  C   LIG d   1       1.907  88.717 117.586  0.00  0.00     0.028 C 
ATOM     10  C   LIG d   1       0.415  89.090 117.610  0.00  0.00     0.006 C 
ENDBRANCH   8   9
BRANCH   8  11
ATOM     11  C   LIG d   1       2.351  86.543 118.610  0.00  0.00     0.028 C 
ATOM     12  C   LIG d   1       3.781  86.008 118.786  0.00  0.00     0.006 C 
ENDBRANCH   8  11
ENDBRANCH   7   8
ENDBRANCH   1   7
BRANCH   6  13
ATOM     13  N   LIG d   1       5.153  89.449 115.790  0.00  0.00    -0.311 N 
ATOM     14  C   LIG d   1       4.549  90.636 115.838  0.00  0.00     0.210 C 
ATOM     15  C   LIG d   1       5.135  91.618 116.858  0.00  0.00     0.109 C 
ATOM     16  O   LIG d   1       3.565  90.957 115.156  0.00  0.00    -0.276 OA
ATOM     17  H   LIG d   1       5.923  89.263 116.401  0.00  0.00     0.149 HD
ENDBRANCH   6  13
BRANCH   5  18
ATOM     18  N   LIG d   1       6.235  89.093 112.955  0.00  0.00     0.381 N 
ATOM     19  H   LIG d   1       6.350  90.081 112.848  0.00  0.00    -0.090 HD
ATOM     20  H   LIG d   1       6.407  88.658 112.066  0.00  0.00    -0.090 HD
ATOM     21  H   LIG d   1       6.880  88.748 113.632  0.00  0.00    -0.090 HD
ENDBRANCH   5  18
BRANCH   3  22
ATOM     22  C   LIG d   1       2.244  86.669 111.893  0.00  0.00     0.382 C 
ATOM     23  O   LIG d   1       1.308  87.366 111.433  0.00  0.00    -0.241 OA
ATOM     24  O   LIG d   1       2.391  85.498 111.494  0.00  0.00    -0.241 OA
ENDBRANCH   3  22
TORSDOF 7
ENDMDL
MODEL 6
REMARK VINA RESULT:      -4.2      2.663      4.549
REMARK  7 active torsions:
REMARK  status: ('A' for Active; 'I' for Inactive)
REMARK    1  A    between atoms: C_2  and  C_3 
REMARK    2  A    between atoms: C_3  and  O_6 
REMARK    3  A    between atoms: C_3  and  C_4 
REMARK    4  A    between atoms: C_7  and  O_6 
REMARK    5  A    between atoms: C_9  and  C_10 
REMARK    6  A    between atoms: N_15  and  C_14 
REMARK    7  A    between atoms: N_20  and  C_19 
REMARK       I    between atoms: C_22  and  N_20 
ROOT
ATOM      1  C   LIG d   1       2.681  89.764 116.269  0.00  0.00     0.161 C 
ATOM      2  C   LIG d   1       2.149  88.562 115.773  0.00  0.00     0.016 C 
ATOM      3  C   LIG d   1       0.966  87.970 116.273  0.00  0.00     0.038 C 
ATOM      4  C   LIG d   1       0.148  88.623 117.207  0.00  0.00     0.028 C 
ATOM      5  C   LIG d   1       0.907  89.598 118.100  0.00  0.00    -0.047 C 
ATOM      6  C   LIG d   1       1.743  90.547 117.211  0.00  0.00     0.091 C 
ENDROOT
BRANCH   1   7
ATOM      7  O   LIG d   1       3.103  90.600 115.174  0.00  0.00    -0.368 OA
BRANCH   7   8
ATOM      8  C   LIG d   1       4.532  90.698 114.960  0.00  0.00     0.119 C 
BRANCH   8   9
ATOM      9  C   LIG d   1       4.872  89.865 113.710  0.00  0.00     0.028 C 
ATOM     10  C   LIG d   1       5.522  88.516 114.062  0.00  0.00     0.006 C 
ENDBRANCH   8   9
BRANCH   8  11
ATOM     11  C   LIG d   1       5.313  90.047 116.106  0.00  0.00     0.028 C 
ATOM     12  C   LIG d   1       6.036  91.073 116.993  0.00  0.00     0.006 C 
ENDBRANCH   8  11
ENDBRANCH   7   8
ENDBRANCH   1   7
BRANCH   6  13
ATOM     13  N   LIG d   1       2.582  91.479 118.009  0.00  0.00    -0.311 N 
ATOM     14  C   LIG d   1       2.585  92.798 117.830  0.00  0.00     0.210 C 
ATOM     15  C   LIG d   1       3.538  93.573 118.745  0.00  0.00     0.109 C 
ATOM     16  O   LIG d   1       1.865  93.404 117.021  0.00  0.00    -0.276 OA
ATOM     17  H   LIG d   1       3.173  91.075 118.709  0.00  0.00     0.149 HD
ENDBRANCH   6  13
BRANCH   5  18
ATOM     18  N   LIG d   1      -0.085  90.307 118.930  0.00  0.00     0.381 N 
ATOM     19  H   LIG d   1      -0.561  89.655 119.521  0.00  0.00    -0.090 HD
ATOM     20  H   LIG d   1      -0.764  90.739 118.327  0.00  0.00    -0.090 HD
ATOM     21  H   LIG d   1       0.367  91.001 119.484  0.00  0.00    -0.090 HD
ENDBRANCH   5  18
BRANCH   3  22
ATOM     22  C   LIG d   1       0.613  86.692 115.866  0.00  0.00     0.382 C 
ATOM     23  O   LIG d   1      -0.362  86.527 115.094  0.00  0.00    -0.241 OA
ATOM     24  O   LIG d   1       1.229  85.699 116.298  0.00  0.00    -0.241 OA
ENDBRANCH   3  22
TORSDOF 7
ENDMDL
MODEL 7
REMARK VINA RESULT:      -4.0      2.110      2.687
REMARK  7 active torsions:
REMARK  status: ('A' for Active; 'I' for Inactive)
REMARK    1  A    between atoms: C_2  and  C_3 
REMARK    2  A    between atoms: C_3  and  O_6 
REMARK    3  A    between atoms: C_3  and  C_4 
REMARK    4  A    between atoms: C_7  and  O_6 
REMARK    5  A    between atoms: C_9  and  C_10 
REMARK    6  A    between atoms: N_15  and  C_14 
REMARK    7  A    between atoms: N_20  and  C_19 
REMARK       I    between atoms: C_22  and  N_20 
ROOT
ATOM      1  C   LIG d   1       3.434  88.163 115.179  0.00  0.00     0.161 C 
ATOM      2  C   LIG d   1       2.700  87.462 114.208  0.00  0.00     0.016 C 
ATOM      3  C   LIG d   1       3.146  87.275 112.879  0.00  0.00     0.038 C 
ATOM      4  C   LIG d   1       4.434  87.651 112.470  0.00  0.00     0.028 C 
ATOM      5  C   LIG d   1       5.012  88.810 113.276  0.00  0.00    -0.047 C 
ATOM      6  C   LIG d   1       4.890  88.484 114.782  0.00  0.00     0.091 C 
ENDROOT
BRANCH   1   7
ATOM      7  O   LIG d   1       3.402  87.446 116.429  0.00  0.00    -0.368 OA
BRANCH   7   8
ATOM      8  C   LIG d   1       2.881  88.174 117.568  0.00  0.00     0.119 C 
BRANCH   8   9
ATOM      9  C   LIG d   1       3.636  87.680 118.817  0.00  0.00     0.028 C 
ATOM     10  C   LIG d   1       4.205  86.263 118.636  0.00  0.00     0.006 C 
ENDBRANCH   8   9
BRANCH   8  11
ATOM     11  C   LIG d   1       1.410  87.834 117.822  0.00  0.00     0.028 C 
ATOM     12  C   LIG d   1       0.449  88.912 117.293  0.00  0.00     0.006 C 
ENDBRANCH   8  11
ENDBRANCH   7   8
ENDBRANCH   1   7
BRANCH   6  13
ATOM     13  N   LIG d   1       5.355  89.602 115.643  0.00  0.00    -0.311 N 
ATOM     14  C   LIG d   1       6.165  89.436 116.687  0.00  0.00     0.210 C 
ATOM     15  C   LIG d   1       6.506  90.718 117.452  0.00  0.00     0.109 C 
ATOM     16  O   LIG d   1       6.658  88.352 117.034  0.00  0.00    -0.276 OA
ATOM     17  H   LIG d   1       5.028  90.520 115.414  0.00  0.00     0.149 HD
ENDBRANCH   6  13
BRANCH   5  18
ATOM     18  N   LIG d   1       6.407  89.006 112.837  0.00  0.00     0.381 N 
ATOM     19  H   LIG d   1       6.691  89.946 113.023  0.00  0.00    -0.090 HD
ATOM     20  H   LIG d   1       6.461  88.850 111.846  0.00  0.00    -0.090 HD
ATOM     21  H   LIG d   1       7.006  88.369 113.314  0.00  0.00    -0.090 HD
ENDBRANCH   5  18
BRANCH   3  22
ATOM     22  C   LIG d   1       2.284  86.742 111.933  0.00  0.00     0.382 C 
ATOM     23  O   LIG d   1       2.433  85.559 111.545  0.00  0.00    -0.241 OA
ATOM     24  O   LIG d   1       1.385  87.444 111.431  0.00  0.00    -0.241 OA
ENDBRANCH   3  22
TORSDOF 7
ENDMDL
MODEL 8
REMARK VINA RESULT:      -3.9      2.694      4.795
REMARK  7 active torsions:
REMARK  status: ('A' for Active; 'I' for Inactive)
REMARK    1  A    between atoms: C_2  and  C_3 
REMARK    2  A    between atoms: C_3  and  O_6 
REMARK    3  A    between atoms: C_3  and  C_4 
REMARK    4  A    between atoms: C_7  and  O_6 
REMARK    5  A    between atoms: C_9  and  C_10 
REMARK    6  A    between atoms: N_15  and  C_14 
REMARK    7  A    between atoms: N_20  and  C_19 
REMARK       I    between atoms: C_22  and  N_20 
ROOT
ATOM      1  C   LIG d   1       3.636  89.313 117.443  0.00  0.00     0.161 C 
ATOM      2  C   LIG d   1       3.098  88.084 117.029  0.00  0.00     0.016 C 
ATOM      3  C   LIG d   1       1.739  87.906 116.681  0.00  0.00     0.038 C 
ATOM      4  C   LIG d   1       0.853  88.989 116.578  0.00  0.00     0.028 C 
ATOM      5  C   LIG d   1       1.228  90.165 117.473  0.00  0.00    -0.047 C 
ATOM      6  C   LIG d   1       2.710  90.529 117.229  0.00  0.00     0.091 C 
ENDROOT
BRANCH   1   7
ATOM      7  O   LIG d   1       4.907  89.533 116.798  0.00  0.00    -0.368 OA
BRANCH   7   8
ATOM      8  C   LIG d   1       5.188  88.703 115.644  0.00  0.00     0.119 C 
BRANCH   8   9
ATOM      9  C   LIG d   1       6.650  88.230 115.758  0.00  0.00     0.028 C 
ATOM     10  C   LIG d   1       7.263  88.546 117.133  0.00  0.00     0.006 C 
ENDBRANCH   8   9
BRANCH   8  11
ATOM     11  C   LIG d   1       5.124  89.514 114.346  0.00  0.00     0.028 C 
ATOM     12  C   LIG d   1       5.564  88.704 113.116  0.00  0.00     0.006 C 
ENDBRANCH   8  11
ENDBRANCH   7   8
ENDBRANCH   1   7
BRANCH   6  13
ATOM     13  N   LIG d   1       3.182  91.616 118.126  0.00  0.00    -0.311 N 
ATOM     14  C   LIG d   1       3.160  92.905 117.790  0.00  0.00     0.210 C 
ATOM     15  C   LIG d   1       3.711  93.860 118.853  0.00  0.00     0.109 C 
ATOM     16  O   LIG d   1       2.706  93.351 116.725  0.00  0.00    -0.276 OA
ATOM     17  H   LIG d   1       3.537  91.347 119.022  0.00  0.00     0.149 HD
ENDBRANCH   6  13
BRANCH   5  18
ATOM     18  N   LIG d   1       0.303  91.272 117.164  0.00  0.00     0.381 N 
ATOM     19  H   LIG d   1       0.746  92.148 117.356  0.00  0.00    -0.090 HD
ATOM     20  H   LIG d   1      -0.507  91.193 117.753  0.00  0.00    -0.090 HD
ATOM     21  H   LIG d   1       0.031  91.232 116.206  0.00  0.00    -0.090 HD
ENDBRANCH   5  18
BRANCH   3  22
ATOM     22  C   LIG d   1       1.245  86.628 116.471  0.00  0.00     0.382 C 
ATOM     23  O   LIG d   1       1.793  85.645 117.025  0.00  0.00    -0.241 OA
ATOM     24  O   LIG d   1       0.286  86.441 115.698  0.00  0.00    -0.241 OA
ENDBRANCH   3  22
TORSDOF 7
ENDMDL
MODEL 9
REMARK VINA RESULT:      -3.8      2.373      5.719
REMARK  7 active torsions:
REMARK  status: ('A' for Active; 'I' for Inactive)
REMARK    1  A    between atoms: C_2  and  C_3 
REMARK    2  A    between atoms: C_3  and  O_6 
REMARK    3  A    between atoms: C_3  and  C_4 
REMARK    4  A    between atoms: C_7  and  O_6 
REMARK    5  A    between atoms: C_9  and  C_10 
REMARK    6  A    between atoms: N_15  and  C_14 
REMARK    7  A    between atoms: N_20  and  C_19 
REMARK       I    between atoms: C_22  and  N_20 
ROOT
ATOM      1  C   LIG d   1       5.096  89.537 115.417  0.00  0.00     0.161 C 
ATOM      2  C   LIG d   1       5.046  90.764 116.099  0.00  0.00     0.016 C 
ATOM      3  C   LIG d   1       3.860  91.297 116.655  0.00  0.00     0.038 C 
ATOM      4  C   LIG d   1       2.667  90.562 116.700  0.00  0.00     0.028 C 
ATOM      5  C   LIG d   1       2.546  89.534 115.580  0.00  0.00    -0.047 C 
ATOM      6  C   LIG d   1       3.827  88.669 115.553  0.00  0.00     0.091 C 
ENDROOT
BRANCH   1   7
ATOM      7  O   LIG d   1       6.258  88.794 115.835  0.00  0.00    -0.368 OA
BRANCH   7   8
ATOM      8  C   LIG d   1       6.505  88.745 117.261  0.00  0.00     0.119 C 
BRANCH   8   9
ATOM      9  C   LIG d   1       7.912  89.322 117.508  0.00  0.00     0.028 C 
ATOM     10  C   LIG d   1       8.780  88.401 118.382  0.00  0.00     0.006 C 
ENDBRANCH   8   9
BRANCH   8  11
ATOM     11  C   LIG d   1       6.565  87.300 117.767  0.00  0.00     0.028 C 
ATOM     12  C   LIG d   1       6.371  86.268 116.646  0.00  0.00     0.006 C 
ENDBRANCH   8  11
ENDBRANCH   7   8
ENDBRANCH   1   7
BRANCH   6  13
ATOM     13  N   LIG d   1       3.828  87.693 114.433  0.00  0.00    -0.311 N 
ATOM     14  C   LIG d   1       3.837  88.049 113.149  0.00  0.00     0.210 C 
ATOM     15  C   LIG d   1       3.816  86.884 112.155  0.00  0.00     0.109 C 
ATOM     16  O   LIG d   1       3.893  89.219 112.741  0.00  0.00    -0.276 OA
ATOM     17  H   LIG d   1       3.815  86.721 114.674  0.00  0.00     0.149 HD
ENDBRANCH   6  13
BRANCH   5  18
ATOM     18  N   LIG d   1       1.323  88.747 115.827  0.00  0.00     0.381 N 
ATOM     19  H   LIG d   1       1.048  88.276 114.989  0.00  0.00    -0.090 HD
ATOM     20  H   LIG d   1       0.583  89.372 116.096  0.00  0.00    -0.090 HD
ATOM     21  H   LIG d   1       1.485  88.083 116.552  0.00  0.00    -0.090 HD
ENDBRANCH   5  18
BRANCH   3  22
ATOM     22  C   LIG d   1       3.852  92.596 117.140  0.00  0.00     0.382 C 
ATOM     23  O   LIG d   1       4.688  92.947 118.008  0.00  0.00    -0.241 OA
ATOM     24  O   LIG d   1       2.992  93.410 116.753  0.00  0.00    -0.241 OA
ENDBRANCH   3  22
TORSDOF 7
ENDMDL
