MODEL 1
REMARK VINA RESULT:      -4.9      0.000      0.000
REMARK  7 active torsions:
REMARK  status: ('A' for Active; 'I' for Inactive)
REMARK    1  A    between atoms: C_2  and  C_3 
REMARK    2  A    between atoms: C_3  and  O_6 
REMARK    3  A    between atoms: C_3  and  C_4 
REMARK    4  A    between atoms: C_7  and  O_6 
REMARK    5  A    between atoms: C_9  and  C_10 
REMARK    6  A    between atoms: N_15  and  C_14 
REMARK    7  A    between atoms: N_20  and  C_19 
REMARK       I    between atoms: C_22  and  N_20 
ROOT
ATOM      1  C   LIG d   1       3.426  87.544 115.837  0.00  0.00     0.161 C 
ATOM      2  C   LIG d   1       3.904  88.355 116.881  0.00  0.00     0.016 C 
ATOM      3  C   LIG d   1       4.777  89.448 116.679  0.00  0.00     0.038 C 
ATOM      4  C   LIG d   1       5.113  89.901 115.395  0.00  0.00     0.028 C 
ATOM      5  C   LIG d   1       5.061  88.808 114.333  0.00  0.00    -0.047 C 
ATOM      6  C   LIG d   1       3.694  88.091 114.419  0.00  0.00     0.091 C 
ENDROOT
BRANCH   1   7
ATOM      7  O   LIG d   1       2.019  87.292 116.020  0.00  0.00    -0.368 OA
BRANCH   7   8
ATOM      8  C   LIG d   1       1.387  87.977 117.129  0.00  0.00     0.119 C 
BRANCH   8   9
ATOM      9  C   LIG d   1       0.678  86.912 117.988  0.00  0.00     0.028 C 
ATOM     10  C   LIG d   1      -0.530  87.481 118.750  0.00  0.00     0.006 C 
ENDBRANCH   8   9
BRANCH   8  11
ATOM     11  C   LIG d   1       0.276  88.913 116.646  0.00  0.00     0.028 C 
ATOM     12  C   LIG d   1       0.697  90.391 116.653  0.00  0.00     0.006 C 
ENDBRANCH   8  11
ENDBRANCH   7   8
ENDBRANCH   1   7
BRANCH   6  13
ATOM     13  N   LIG d   1       3.591  86.951 113.471  0.00  0.00    -0.311 N 
ATOM     14  C   LIG d   1       3.013  87.042 112.275  0.00  0.00     0.210 C 
ATOM     15  C   LIG d   1       2.997  85.743 111.463  0.00  0.00     0.109 C 
ATOM     16  O   LIG d   1       2.541  88.084 111.795  0.00  0.00    -0.276 OA
ATOM     17  H   LIG d   1       3.976  86.075 113.767  0.00  0.00     0.149 HD
ENDBRANCH   6  13
BRANCH   5  18
ATOM     18  N   LIG d   1       5.298  89.445 113.024  0.00  0.00     0.381 N 
ATOM     19  H   LIG d   1       4.794  88.955 112.313  0.00  0.00    -0.090 HD
ATOM     20  H   LIG d   1       6.278  89.391 112.810  0.00  0.00    -0.090 HD
ATOM     21  H   LIG d   1       5.008  90.397 113.051  0.00  0.00    -0.090 HD
ENDBRANCH   5  18
BRANCH   3  22
ATOM     22  C   LIG d   1       5.355  90.077 117.771  0.00  0.00     0.382 C 
ATOM     23  O   LIG d   1       4.724  90.160 118.853  0.00  0.00    -0.241 OA
ATOM     24  O   LIG d   1       6.480  90.601 117.676  0.00  0.00    -0.241 OA
ENDBRANCH   3  22
TORSDOF 7
ENDMDL
MODEL 2
REMARK VINA RESULT:      -4.9      3.152      6.082
REMARK  7 active torsions:
REMARK  status: ('A' for Active; 'I' for Inactive)
REMARK    1  A    between atoms: C_2  and  C_3 
REMARK    2  A    between atoms: C_3  and  O_6 
REMARK    3  A    between atoms: C_3  and  C_4 
REMARK    4  A    between atoms: C_7  and  O_6 
REMARK    5  A    between atoms: C_9  and  C_10 
REMARK    6  A    between atoms: N_15  and  C_14 
REMARK    7  A    between atoms: N_20  and  C_19 
REMARK       I    between atoms: C_22  and  N_20 
ROOT
ATOM      1  C   LIG d   1       1.066  88.842 116.797  0.00  0.00     0.161 C 
ATOM      2  C   LIG d   1      -0.327  88.663 116.843  0.00  0.00     0.016 C 
ATOM      3  C   LIG d   1      -1.217  89.622 117.379  0.00  0.00     0.038 C 
ATOM      4  C   LIG d   1      -0.785  90.899 117.769  0.00  0.00     0.028 C 
ATOM      5  C   LIG d   1       0.675  90.936 118.208  0.00  0.00    -0.047 C 
ATOM      6  C   LIG d   1       1.545  90.273 117.116  0.00  0.00     0.091 C 
ENDROOT
BRANCH   1   7
ATOM      7  O   LIG d   1       1.570  88.419 115.515  0.00  0.00    -0.368 OA
BRANCH   7   8
ATOM      8  C   LIG d   1       2.559  87.360 115.537  0.00  0.00     0.119 C 
BRANCH   8   9
ATOM      9  C   LIG d   1       3.632  87.706 114.486  0.00  0.00     0.028 C 
ATOM     10  C   LIG d   1       3.598  89.189 114.079  0.00  0.00     0.006 C 
ENDBRANCH   8   9
BRANCH   8  11
ATOM     11  C   LIG d   1       1.958  86.027 115.079  0.00  0.00     0.028 C 
ATOM     12  C   LIG d   1       1.994  85.850 113.553  0.00  0.00     0.006 C 
ENDBRANCH   8  11
ENDBRANCH   7   8
ENDBRANCH   1   7
BRANCH   6  13
ATOM     13  N   LIG d   1       2.978  90.192 117.504  0.00  0.00    -0.311 N 
ATOM     14  C   LIG d   1       3.862  91.154 117.247  0.00  0.00     0.210 C 
ATOM     15  C   LIG d   1       5.291  90.860 117.715  0.00  0.00     0.109 C 
ATOM     16  O   LIG d   1       3.593  92.236 116.704  0.00  0.00    -0.276 OA
ATOM     17  H   LIG d   1       3.276  89.361 117.976  0.00  0.00     0.149 HD
ENDBRANCH   6  13
BRANCH   5  18
ATOM     18  N   LIG d   1       1.031  92.346 118.455  0.00  0.00     0.381 N 
ATOM     19  H   LIG d   1       1.757  92.397 119.141  0.00  0.00    -0.090 HD
ATOM     20  H   LIG d   1       0.224  92.827 118.813  0.00  0.00    -0.090 HD
ATOM     21  H   LIG d   1       1.333  92.774 117.608  0.00  0.00    -0.090 HD
ENDBRANCH   5  18
BRANCH   3  22
ATOM     22  C   LIG d   1      -2.551  89.293 117.565  0.00  0.00     0.382 C 
ATOM     23  O   LIG d   1      -3.395  89.569 116.678  0.00  0.00    -0.241 OA
ATOM     24  O   LIG d   1      -2.929  88.764 118.628  0.00  0.00    -0.241 OA
ENDBRANCH   3  22
TORSDOF 7
ENDMDL
MODEL 3
REMARK VINA RESULT:      -4.4      2.657      5.023
REMARK  7 active torsions:
REMARK  status: ('A' for Active; 'I' for Inactive)
REMARK    1  A    between atoms: C_2  and  C_3 
REMARK    2  A    between atoms: C_3  and  O_6 
REMARK    3  A    between atoms: C_3  and  C_4 
REMARK    4  A    between atoms: C_7  and  O_6 
REMARK    5  A    between atoms: C_9  and  C_10 
REMARK    6  A    between atoms: N_15  and  C_14 
REMARK    7  A    between atoms: N_20  and  C_19 
REMARK       I    between atoms: C_22  and  N_20 
ROOT
ATOM      1  C   LIG d   1       3.842  87.376 116.142  0.00  0.00     0.161 C 
ATOM      2  C   LIG d   1       2.746  88.245 116.010  0.00  0.00     0.016 C 
ATOM      3  C   LIG d   1       2.707  89.540 116.576  0.00  0.00     0.038 C 
ATOM      4  C   LIG d   1       3.830  90.115 117.189  0.00  0.00     0.028 C 
ATOM      5  C   LIG d   1       4.786  89.088 117.787  0.00  0.00    -0.047 C 
ATOM      6  C   LIG d   1       5.119  88.028 116.713  0.00  0.00     0.091 C 
ENDROOT
BRANCH   1   7
ATOM      7  O   LIG d   1       4.123  86.748 114.876  0.00  0.00    -0.368 OA
BRANCH   7   8
ATOM      8  C   LIG d   1       3.555  87.387 113.707  0.00  0.00     0.119 C 
BRANCH   8   9
ATOM      9  C   LIG d   1       2.934  86.282 112.831  0.00  0.00     0.028 C 
ATOM     10  C   LIG d   1       3.567  86.218 111.431  0.00  0.00     0.006 C 
ENDBRANCH   8   9
BRANCH   8  11
ATOM     11  C   LIG d   1       4.641  88.030 112.840  0.00  0.00     0.028 C 
ATOM     12  C   LIG d   1       5.031  89.437 113.319  0.00  0.00     0.006 C 
ENDBRANCH   8  11
ENDBRANCH   7   8
ENDBRANCH   1   7
BRANCH   6  13
ATOM     13  N   LIG d   1       5.982  86.939 117.241  0.00  0.00    -0.311 N 
ATOM     14  C   LIG d   1       7.313  86.992 117.236  0.00  0.00     0.210 C 
ATOM     15  C   LIG d   1       8.011  85.754 117.808  0.00  0.00     0.109 C 
ATOM     16  O   LIG d   1       7.981  87.959 116.842  0.00  0.00    -0.276 OA
ATOM     17  H   LIG d   1       5.522  86.129 117.608  0.00  0.00     0.149 HD
ENDBRANCH   6  13
BRANCH   5  18
ATOM     18  N   LIG d   1       5.975  89.815 118.270  0.00  0.00     0.381 N 
ATOM     19  H   LIG d   1       6.803  89.310 118.025  0.00  0.00    -0.090 HD
ATOM     20  H   LIG d   1       5.931  89.882 119.272  0.00  0.00    -0.090 HD
ATOM     21  H   LIG d   1       6.003  90.727 117.871  0.00  0.00    -0.090 HD
ENDBRANCH   5  18
BRANCH   3  22
ATOM     22  C   LIG d   1       1.521  90.259 116.566  0.00  0.00     0.382 C 
ATOM     23  O   LIG d   1       1.429  91.325 117.221  0.00  0.00    -0.241 OA
ATOM     24  O   LIG d   1       0.529  89.832 115.946  0.00  0.00    -0.241 OA
ENDBRANCH   3  22
TORSDOF 7
ENDMDL
MODEL 4
REMARK VINA RESULT:      -4.4      1.546      4.686
REMARK  7 active torsions:
REMARK  status: ('A' for Active; 'I' for Inactive)
REMARK    1  A    between atoms: C_2  and  C_3 
REMARK    2  A    between atoms: C_3  and  O_6 
REMARK    3  A    between atoms: C_3  and  C_4 
REMARK    4  A    between atoms: C_7  and  O_6 
REMARK    5  A    between atoms: C_9  and  C_10 
REMARK    6  A    between atoms: N_15  and  C_14 
REMARK    7  A    between atoms: N_20  and  C_19 
REMARK       I    between atoms: C_22  and  N_20 
ROOT
ATOM      1  C   LIG d   1       2.693  88.015 115.454  0.00  0.00     0.161 C 
ATOM      2  C   LIG d   1       2.282  87.049 114.521  0.00  0.00     0.016 C 
ATOM      3  C   LIG d   1       2.858  86.912 113.237  0.00  0.00     0.038 C 
ATOM      4  C   LIG d   1       3.994  87.640 112.853  0.00  0.00     0.028 C 
ATOM      5  C   LIG d   1       4.128  88.978 113.572  0.00  0.00    -0.047 C 
ATOM      6  C   LIG d   1       4.005  88.744 115.095  0.00  0.00     0.091 C 
ENDROOT
BRANCH   1   7
ATOM      7  O   LIG d   1       2.793  87.418 116.763  0.00  0.00    -0.368 OA
BRANCH   7   8
ATOM      8  C   LIG d   1       1.923  87.968 117.782  0.00  0.00     0.119 C 
BRANCH   8   9
ATOM      9  C   LIG d   1       1.089  86.806 118.355  0.00  0.00     0.028 C 
ATOM     10  C   LIG d   1       1.670  85.430 117.988  0.00  0.00     0.006 C 
ENDBRANCH   8   9
BRANCH   8  11
ATOM     11  C   LIG d   1       0.904  88.941 117.180  0.00  0.00     0.028 C 
ATOM     12  C   LIG d   1      -0.542  88.433 117.291  0.00  0.00     0.006 C 
ENDBRANCH   8  11
ENDBRANCH   7   8
ENDBRANCH   1   7
BRANCH   6  13
ATOM     13  N   LIG d   1       4.041  90.012 115.869  0.00  0.00    -0.311 N 
ATOM     14  C   LIG d   1       4.966  90.285 116.787  0.00  0.00     0.210 C 
ATOM     15  C   LIG d   1       4.807  91.641 117.482  0.00  0.00     0.109 C 
ATOM     16  O   LIG d   1       5.921  89.546 117.070  0.00  0.00    -0.276 OA
ATOM     17  H   LIG d   1       3.320  90.682 115.681  0.00  0.00     0.149 HD
ENDBRANCH   6  13
BRANCH   5  18
ATOM     18  N   LIG d   1       5.423  89.567 113.181  0.00  0.00     0.381 N 
ATOM     19  H   LIG d   1       6.127  88.856 113.164  0.00  0.00    -0.090 HD
ATOM     20  H   LIG d   1       5.686  90.256 113.863  0.00  0.00    -0.090 HD
ATOM     21  H   LIG d   1       5.347  89.991 112.282  0.00  0.00    -0.090 HD
ENDBRANCH   5  18
BRANCH   3  22
ATOM     22  C   LIG d   1       2.271  86.068 112.306  0.00  0.00     0.382 C 
ATOM     23  O   LIG d   1       1.043  85.821 112.371  0.00  0.00    -0.241 OA
ATOM     24  O   LIG d   1       2.963  85.516 111.430  0.00  0.00    -0.241 OA
ENDBRANCH   3  22
TORSDOF 7
ENDMDL
MODEL 5
REMARK VINA RESULT:      -4.3      2.237      4.837
REMARK  7 active torsions:
REMARK  status: ('A' for Active; 'I' for Inactive)
REMARK    1  A    between atoms: C_2  and  C_3 
REMARK    2  A    between atoms: C_3  and  O_6 
REMARK    3  A    between atoms: C_3  and  C_4 
REMARK    4  A    between atoms: C_7  and  O_6 
REMARK    5  A    between atoms: C_9  and  C_10 
REMARK    6  A    between atoms: N_15  and  C_14 
REMARK    7  A    between atoms: N_20  and  C_19 
REMARK       I    between atoms: C_22  and  N_20 
ROOT
ATOM      1  C   LIG d   1       2.547  90.093 115.801  0.00  0.00     0.161 C 
ATOM      2  C   LIG d   1       1.279  90.310 116.364  0.00  0.00     0.016 C 
ATOM      3  C   LIG d   1       0.434  89.266 116.804  0.00  0.00     0.038 C 
ATOM      4  C   LIG d   1       0.866  87.932 116.851  0.00  0.00     0.028 C 
ATOM      5  C   LIG d   1       1.947  87.609 115.825  0.00  0.00    -0.047 C 
ATOM      6  C   LIG d   1       3.081  88.653 115.946  0.00  0.00     0.091 C 
ENDROOT
BRANCH   1   7
ATOM      7  O   LIG d   1       3.492  91.035 116.347  0.00  0.00    -0.368 OA
BRANCH   7   8
ATOM      8  C   LIG d   1       4.061  90.693 117.634  0.00  0.00     0.119 C 
BRANCH   8   9
ATOM      9  C   LIG d   1       3.710  91.831 118.613  0.00  0.00     0.028 C 
ATOM     10  C   LIG d   1       4.919  92.727 118.928  0.00  0.00     0.006 C 
ENDBRANCH   8   9
BRANCH   8  11
ATOM     11  C   LIG d   1       5.591  90.665 117.577  0.00  0.00     0.028 C 
ATOM     12  C   LIG d   1       6.175  89.284 117.915  0.00  0.00     0.006 C 
ENDBRANCH   8  11
ENDBRANCH   7   8
ENDBRANCH   1   7
BRANCH   6  13
ATOM     13  N   LIG d   1       4.140  88.460 114.921  0.00  0.00    -0.311 N 
ATOM     14  C   LIG d   1       3.969  88.738 113.629  0.00  0.00     0.210 C 
ATOM     15  C   LIG d   1       5.182  88.447 112.740  0.00  0.00     0.109 C 
ATOM     16  O   LIG d   1       2.939  89.227 113.141  0.00  0.00    -0.276 OA
ATOM     17  H   LIG d   1       5.018  88.096 115.235  0.00  0.00     0.149 HD
ENDBRANCH   6  13
BRANCH   5  18
ATOM     18  N   LIG d   1       2.402  86.229 116.075  0.00  0.00     0.381 N 
ATOM     19  H   LIG d   1       2.846  86.176 116.970  0.00  0.00    -0.090 HD
ATOM     20  H   LIG d   1       3.075  85.976 115.374  0.00  0.00    -0.090 HD
ATOM     21  H   LIG d   1       1.627  85.603 116.043  0.00  0.00    -0.090 HD
ENDBRANCH   5  18
BRANCH   3  22
ATOM     22  C   LIG d   1      -0.874  89.547 117.168  0.00  0.00     0.382 C 
ATOM     23  O   LIG d   1      -1.164  90.668 117.650  0.00  0.00    -0.241 OA
ATOM     24  O   LIG d   1      -1.761  88.678 117.060  0.00  0.00    -0.241 OA
ENDBRANCH   3  22
TORSDOF 7
ENDMDL
MODEL 6
REMARK VINA RESULT:      -4.2      2.903      4.797
REMARK  7 active torsions:
REMARK  status: ('A' for Active; 'I' for Inactive)
REMARK    1  A    between atoms: C_2  and  C_3 
REMARK    2  A    between atoms: C_3  and  O_6 
REMARK    3  A    between atoms: C_3  and  C_4 
REMARK    4  A    between atoms: C_7  and  O_6 
REMARK    5  A    between atoms: C_9  and  C_10 
REMARK    6  A    between atoms: N_15  and  C_14 
REMARK    7  A    between atoms: N_20  and  C_19 
REMARK       I    between atoms: C_22  and  N_20 
ROOT
ATOM      1  C   LIG d   1       1.422  88.985 115.838  0.00  0.00     0.161 C 
ATOM      2  C   LIG d   1       2.820  89.064 115.719  0.00  0.00     0.016 C 
ATOM      3  C   LIG d   1       3.616  89.949 116.482  0.00  0.00     0.038 C 
ATOM      4  C   LIG d   1       3.081  90.712 117.530  0.00  0.00     0.028 C 
ATOM      5  C   LIG d   1       1.603  91.038 117.348  0.00  0.00    -0.047 C 
ATOM      6  C   LIG d   1       0.833  89.731 117.053  0.00  0.00     0.091 C 
ENDROOT
BRANCH   1   7
ATOM      7  O   LIG d   1       1.010  87.604 115.849  0.00  0.00    -0.368 OA
BRANCH   7   8
ATOM      8  C   LIG d   1       2.066  86.623 115.703  0.00  0.00     0.119 C 
BRANCH   8   9
ATOM      9  C   LIG d   1       1.752  85.789 114.446  0.00  0.00     0.028 C 
ATOM     10  C   LIG d   1       2.600  86.212 113.234  0.00  0.00     0.006 C 
ENDBRANCH   8   9
BRANCH   8  11
ATOM     11  C   LIG d   1       2.062  85.624 116.864  0.00  0.00     0.028 C 
ATOM     12  C   LIG d   1       1.242  86.113 118.068  0.00  0.00     0.006 C 
ENDBRANCH   8  11
ENDBRANCH   7   8
ENDBRANCH   1   7
BRANCH   6  13
ATOM     13  N   LIG d   1      -0.608  89.971 116.779  0.00  0.00    -0.311 N 
ATOM     14  C   LIG d   1      -1.591  89.315 117.394  0.00  0.00     0.210 C 
ATOM     15  C   LIG d   1      -3.004  89.702 116.948  0.00  0.00     0.109 C 
ATOM     16  O   LIG d   1      -1.427  88.473 118.290  0.00  0.00    -0.276 OA
ATOM     17  H   LIG d   1      -0.832  90.660 116.088  0.00  0.00     0.149 HD
ENDBRANCH   6  13
BRANCH   5  18
ATOM     18  N   LIG d   1       1.142  91.717 118.574  0.00  0.00     0.381 N 
ATOM     19  H   LIG d   1       1.886  92.264 118.958  0.00  0.00    -0.090 HD
ATOM     20  H   LIG d   1       0.879  91.022 119.251  0.00  0.00    -0.090 HD
ATOM     21  H   LIG d   1       0.362  92.302 118.367  0.00  0.00    -0.090 HD
ENDBRANCH   5  18
BRANCH   3  22
ATOM     22  C   LIG d   1       4.959  90.105 116.173  0.00  0.00     0.382 C 
ATOM     23  O   LIG d   1       5.743  90.604 117.016  0.00  0.00    -0.241 OA
ATOM     24  O   LIG d   1       5.388  89.794 115.045  0.00  0.00    -0.241 OA
ENDBRANCH   3  22
TORSDOF 7
ENDMDL
MODEL 7
REMARK VINA RESULT:      -3.9      2.214      4.581
REMARK  7 active torsions:
REMARK  status: ('A' for Active; 'I' for Inactive)
REMARK    1  A    between atoms: C_2  and  C_3 
REMARK    2  A    between atoms: C_3  and  O_6 
REMARK    3  A    between atoms: C_3  and  C_4 
REMARK    4  A    between atoms: C_7  and  O_6 
REMARK    5  A    between atoms: C_9  and  C_10 
REMARK    6  A    between atoms: N_15  and  C_14 
REMARK    7  A    between atoms: N_20  and  C_19 
REMARK       I    between atoms: C_22  and  N_20 
ROOT
ATOM      1  C   LIG d   1       2.160  88.238 116.726  0.00  0.00     0.161 C 
ATOM      2  C   LIG d   1       1.709  87.349 115.735  0.00  0.00     0.016 C 
ATOM      3  C   LIG d   1       2.564  86.744 114.786  0.00  0.00     0.038 C 
ATOM      4  C   LIG d   1       3.960  86.870 114.858  0.00  0.00     0.028 C 
ATOM      5  C   LIG d   1       4.417  88.160 115.531  0.00  0.00    -0.047 C 
ATOM      6  C   LIG d   1       3.693  88.301 116.889  0.00  0.00     0.091 C 
ENDROOT
BRANCH   1   7
ATOM      7  O   LIG d   1       1.534  87.923 117.985  0.00  0.00    -0.368 OA
BRANCH   7   8
ATOM      8  C   LIG d   1       0.517  88.850 118.441  0.00  0.00     0.119 C 
BRANCH   8   9
ATOM      9  C   LIG d   1      -0.832  88.105 118.416  0.00  0.00     0.028 C 
ATOM     10  C   LIG d   1      -1.805  88.686 117.376  0.00  0.00     0.006 C 
ENDBRANCH   8   9
BRANCH   8  11
ATOM     11  C   LIG d   1       0.352  90.019 117.466  0.00  0.00     0.028 C 
ATOM     12  C   LIG d   1       0.497  91.389 118.149  0.00  0.00     0.006 C 
ENDBRANCH   8  11
ENDBRANCH   7   8
ENDBRANCH   1   7
BRANCH   6  13
ATOM     13  N   LIG d   1       4.020  89.578 117.576  0.00  0.00    -0.311 N 
ATOM     14  C   LIG d   1       3.889  90.773 117.003  0.00  0.00     0.210 C 
ATOM     15  C   LIG d   1       4.301  91.959 117.881  0.00  0.00     0.109 C 
ATOM     16  O   LIG d   1       3.442  90.965 115.862  0.00  0.00    -0.276 OA
ATOM     17  H   LIG d   1       4.360  89.516 118.516  0.00  0.00     0.149 HD
ENDBRANCH   6  13
BRANCH   5  18
ATOM     18  N   LIG d   1       5.885  88.097 115.663  0.00  0.00     0.381 N 
ATOM     19  H   LIG d   1       6.315  88.410 114.815  0.00  0.00    -0.090 HD
ATOM     20  H   LIG d   1       6.157  87.143 115.820  0.00  0.00    -0.090 HD
ATOM     21  H   LIG d   1       6.184  88.666 116.424  0.00  0.00    -0.090 HD
ENDBRANCH   5  18
BRANCH   3  22
ATOM     22  C   LIG d   1       2.021  86.035 113.725  0.00  0.00     0.382 C 
ATOM     23  O   LIG d   1       2.774  85.431 112.924  0.00  0.00    -0.241 OA
ATOM     24  O   LIG d   1       0.790  86.028 113.535  0.00  0.00    -0.241 OA
ENDBRANCH   3  22
TORSDOF 7
ENDMDL
MODEL 8
REMARK VINA RESULT:      -3.9      2.374      4.460
REMARK  7 active torsions:
REMARK  status: ('A' for Active; 'I' for Inactive)
REMARK    1  A    between atoms: C_2  and  C_3 
REMARK    2  A    between atoms: C_3  and  O_6 
REMARK    3  A    between atoms: C_3  and  C_4 
REMARK    4  A    between atoms: C_7  and  O_6 
REMARK    5  A    between atoms: C_9  and  C_10 
REMARK    6  A    between atoms: N_15  and  C_14 
REMARK    7  A    between atoms: N_20  and  C_19 
REMARK       I    between atoms: C_22  and  N_20 
ROOT
ATOM      1  C   LIG d   1       4.487  88.689 118.115  0.00  0.00     0.161 C 
ATOM      2  C   LIG d   1       5.876  88.500 118.021  0.00  0.00     0.016 C 
ATOM      3  C   LIG d   1       6.506  87.894 116.909  0.00  0.00     0.038 C 
ATOM      4  C   LIG d   1       5.798  87.572 115.742  0.00  0.00     0.028 C 
ATOM      5  C   LIG d   1       4.322  87.282 115.989  0.00  0.00    -0.047 C 
ATOM      6  C   LIG d   1       3.711  88.445 116.804  0.00  0.00     0.091 C 
ENDROOT
BRANCH   1   7
ATOM      7  O   LIG d   1       4.208  90.008 118.625  0.00  0.00    -0.368 OA
BRANCH   7   8
ATOM      8  C   LIG d   1       4.652  91.116 117.803  0.00  0.00     0.119 C 
BRANCH   8   9
ATOM      9  C   LIG d   1       5.416  92.093 118.718  0.00  0.00     0.028 C 
ATOM     10  C   LIG d   1       6.940  91.996 118.536  0.00  0.00     0.006 C 
ENDBRANCH   8   9
BRANCH   8  11
ATOM     11  C   LIG d   1       3.465  91.916 117.258  0.00  0.00     0.028 C 
ATOM     12  C   LIG d   1       2.235  91.859 118.177  0.00  0.00     0.006 C 
ENDBRANCH   8  11
ENDBRANCH   7   8
ENDBRANCH   1   7
BRANCH   6  13
ATOM     13  N   LIG d   1       2.290  88.202 117.162  0.00  0.00    -0.311 N 
ATOM     14  C   LIG d   1       1.265  88.728 116.493  0.00  0.00     0.210 C 
ATOM     15  C   LIG d   1      -0.119  88.366 117.040  0.00  0.00     0.109 C 
ATOM     16  O   LIG d   1       1.370  89.434 115.479  0.00  0.00    -0.276 OA
ATOM     17  H   LIG d   1       2.112  87.614 117.953  0.00  0.00     0.149 HD
ENDBRANCH   6  13
BRANCH   5  18
ATOM     18  N   LIG d   1       3.678  87.097 114.675  0.00  0.00     0.381 N 
ATOM     19  H   LIG d   1       4.354  87.212 113.947  0.00  0.00    -0.090 HD
ATOM     20  H   LIG d   1       2.967  87.798 114.559  0.00  0.00    -0.090 HD
ATOM     21  H   LIG d   1       3.271  86.189 114.619  0.00  0.00    -0.090 HD
ENDBRANCH   5  18
BRANCH   3  22
ATOM     22  C   LIG d   1       7.852  87.569 116.975  0.00  0.00     0.382 C 
ATOM     23  O   LIG d   1       8.223  86.390 116.761  0.00  0.00    -0.241 OA
ATOM     24  O   LIG d   1       8.696  88.430 117.288  0.00  0.00    -0.241 OA
ENDBRANCH   3  22
TORSDOF 7
ENDMDL
MODEL 9
REMARK VINA RESULT:      -3.6      2.217      4.848
REMARK  7 active torsions:
REMARK  status: ('A' for Active; 'I' for Inactive)
REMARK    1  A    between atoms: C_2  and  C_3 
REMARK    2  A    between atoms: C_3  and  O_6 
REMARK    3  A    between atoms: C_3  and  C_4 
REMARK    4  A    between atoms: C_7  and  O_6 
REMARK    5  A    between atoms: C_9  and  C_10 
REMARK    6  A    between atoms: N_15  and  C_14 
REMARK    7  A    between atoms: N_20  and  C_19 
REMARK       I    between atoms: C_22  and  N_20 
ROOT
ATOM      1  C   LIG d   1       2.649  88.734 115.746  0.00  0.00     0.161 C 
ATOM      2  C   LIG d   1       4.003  89.026 115.981  0.00  0.00     0.016 C 
ATOM      3  C   LIG d   1       4.719  88.548 117.102  0.00  0.00     0.038 C 
ATOM      4  C   LIG d   1       4.166  87.615 117.992  0.00  0.00     0.028 C 
ATOM      5  C   LIG d   1       2.645  87.685 118.075  0.00  0.00    -0.047 C 
ATOM      6  C   LIG d   1       2.061  87.627 116.645  0.00  0.00     0.091 C 
ENDROOT
BRANCH   1   7
ATOM      7  O   LIG d   1       2.454  88.406 114.356  0.00  0.00    -0.368 OA
BRANCH   7   8
ATOM      8  C   LIG d   1       3.285  87.341 113.830  0.00  0.00     0.119 C 
BRANCH   8   9
ATOM      9  C   LIG d   1       3.957  87.869 112.548  0.00  0.00     0.028 C 
ATOM     10  C   LIG d   1       5.348  88.467 112.818  0.00  0.00     0.006 C 
ENDBRANCH   8   9
BRANCH   8  11
ATOM     11  C   LIG d   1       2.440  86.145 113.382  0.00  0.00     0.028 C 
ATOM     12  C   LIG d   1       2.676  85.766 111.911  0.00  0.00     0.006 C 
ENDBRANCH   8  11
ENDBRANCH   7   8
ENDBRANCH   1   7
BRANCH   6  13
ATOM     13  N   LIG d   1       0.582  87.775 116.631  0.00  0.00    -0.311 N 
ATOM     14  C   LIG d   1      -0.057  88.812 117.170  0.00  0.00     0.210 C 
ATOM     15  C   LIG d   1      -1.584  88.757 117.063  0.00  0.00     0.109 C 
ATOM     16  O   LIG d   1       0.498  89.787 117.698  0.00  0.00    -0.276 OA
ATOM     17  H   LIG d   1       0.055  87.043 116.195  0.00  0.00     0.149 HD
ENDBRANCH   6  13
BRANCH   5  18
ATOM     18  N   LIG d   1       2.194  86.570 118.930  0.00  0.00     0.381 N 
ATOM     19  H   LIG d   1       2.158  86.867 119.884  0.00  0.00    -0.090 HD
ATOM     20  H   LIG d   1       2.856  85.817 118.858  0.00  0.00    -0.090 HD
ATOM     21  H   LIG d   1       1.294  86.259 118.637  0.00  0.00    -0.090 HD
ENDBRANCH   5  18
BRANCH   3  22
ATOM     22  C   LIG d   1       5.990  89.036 117.365  0.00  0.00     0.382 C 
ATOM     23  O   LIG d   1       6.131  90.105 118.006  0.00  0.00    -0.241 OA
ATOM     24  O   LIG d   1       6.996  88.443 116.931  0.00  0.00    -0.241 OA
ENDBRANCH   3  22
TORSDOF 7
ENDMDL
