MODEL 1
REMARK VINA RESULT:      -4.9      0.000      0.000
REMARK  7 active torsions:
REMARK  status: ('A' for Active; 'I' for Inactive)
REMARK    1  A    between atoms: C_2  and  C_3 
REMARK    2  A    between atoms: C_3  and  O_6 
REMARK    3  A    between atoms: C_3  and  C_4 
REMARK    4  A    between atoms: C_7  and  O_6 
REMARK    5  A    between atoms: C_9  and  C_10 
REMARK    6  A    between atoms: N_15  and  C_14 
REMARK    7  A    between atoms: N_20  and  C_19 
REMARK       I    between atoms: C_22  and  N_20 
ROOT
ATOM      1  C   LIG d   1       0.820  88.694 116.561  0.00  0.00     0.161 C 
ATOM      2  C   LIG d   1      -0.583  88.635 116.583  0.00  0.00     0.016 C 
ATOM      3  C   LIG d   1      -1.393  89.600 117.225  0.00  0.00     0.038 C 
ATOM      4  C   LIG d   1      -0.856  90.778 117.765  0.00  0.00     0.028 C 
ATOM      5  C   LIG d   1       0.595  90.634 118.209  0.00  0.00    -0.047 C 
ATOM      6  C   LIG d   1       1.418  90.031 117.048  0.00  0.00     0.091 C 
ENDROOT
BRANCH   1   7
ATOM      7  O   LIG d   1       1.302  88.382 115.239  0.00  0.00    -0.368 OA
BRANCH   7   8
ATOM      8  C   LIG d   1       2.290  87.325 115.154  0.00  0.00     0.119 C 
BRANCH   8   9
ATOM      9  C   LIG d   1       3.155  87.599 113.909  0.00  0.00     0.028 C 
ATOM     10  C   LIG d   1       4.000  88.876 114.051  0.00  0.00     0.006 C 
ENDBRANCH   8   9
BRANCH   8  11
ATOM     11  C   LIG d   1       1.631  85.966 114.900  0.00  0.00     0.028 C 
ATOM     12  C   LIG d   1       1.266  85.748 113.423  0.00  0.00     0.006 C 
ENDBRANCH   8  11
ENDBRANCH   7   8
ENDBRANCH   1   7
BRANCH   6  13
ATOM     13  N   LIG d   1       2.833  89.779 117.428  0.00  0.00    -0.311 N 
ATOM     14  C   LIG d   1       3.816  90.652 117.215  0.00  0.00     0.210 C 
ATOM     15  C   LIG d   1       5.204  90.185 117.664  0.00  0.00     0.109 C 
ATOM     16  O   LIG d   1       3.665  91.782 116.727  0.00  0.00    -0.276 OA
ATOM     17  H   LIG d   1       3.040  88.899 117.859  0.00  0.00     0.149 HD
ENDBRANCH   6  13
BRANCH   5  18
ATOM     18  N   LIG d   1       1.069  91.969 118.622  0.00  0.00     0.381 N 
ATOM     19  H   LIG d   1       0.314  92.624 118.581  0.00  0.00    -0.090 HD
ATOM     20  H   LIG d   1       1.784  92.271 117.984  0.00  0.00    -0.090 HD
ATOM     21  H   LIG d   1       1.435  91.930 119.548  0.00  0.00    -0.090 HD
ENDBRANCH   5  18
BRANCH   3  22
ATOM     22  C   LIG d   1      -2.753  89.370 117.368  0.00  0.00     0.382 C 
ATOM     23  O   LIG d   1      -3.224  89.069 118.491  0.00  0.00    -0.241 OA
ATOM     24  O   LIG d   1      -3.509  89.416 116.379  0.00  0.00    -0.241 OA
ENDBRANCH   3  22
TORSDOF 7
ENDMDL
MODEL 2
REMARK VINA RESULT:      -4.7      3.002      5.991
REMARK  7 active torsions:
REMARK  status: ('A' for Active; 'I' for Inactive)
REMARK    1  A    between atoms: C_2  and  C_3 
REMARK    2  A    between atoms: C_3  and  O_6 
REMARK    3  A    between atoms: C_3  and  C_4 
REMARK    4  A    between atoms: C_7  and  O_6 
REMARK    5  A    between atoms: C_9  and  C_10 
REMARK    6  A    between atoms: N_15  and  C_14 
REMARK    7  A    between atoms: N_20  and  C_19 
REMARK       I    between atoms: C_22  and  N_20 
ROOT
ATOM      1  C   LIG d   1       2.923  87.649 115.884  0.00  0.00     0.161 C 
ATOM      2  C   LIG d   1       3.443  88.329 116.998  0.00  0.00     0.016 C 
ATOM      3  C   LIG d   1       4.529  89.231 116.923  0.00  0.00     0.038 C 
ATOM      4  C   LIG d   1       5.075  89.632 115.694  0.00  0.00     0.028 C 
ATOM      5  C   LIG d   1       4.916  88.590 114.592  0.00  0.00    -0.047 C 
ATOM      6  C   LIG d   1       3.434  88.158 114.520  0.00  0.00     0.091 C 
ENDROOT
BRANCH   1   7
ATOM      7  O   LIG d   1       1.483  87.678 115.923  0.00  0.00    -0.368 OA
BRANCH   7   8
ATOM      8  C   LIG d   1       0.889  88.491 116.965  0.00  0.00     0.119 C 
BRANCH   8   9
ATOM      9  C   LIG d   1      -0.241  87.665 117.609  0.00  0.00     0.028 C 
ATOM     10  C   LIG d   1       0.293  86.590 118.570  0.00  0.00     0.006 C 
ENDBRANCH   8   9
BRANCH   8  11
ATOM     11  C   LIG d   1       0.204  89.731 116.382  0.00  0.00     0.028 C 
ATOM     12  C   LIG d   1       0.463  91.000 117.209  0.00  0.00     0.006 C 
ENDBRANCH   8  11
ENDBRANCH   7   8
ENDBRANCH   1   7
BRANCH   6  13
ATOM     13  N   LIG d   1       3.206  87.079 113.524  0.00  0.00    -0.311 N 
ATOM     14  C   LIG d   1       2.756  87.304 112.290  0.00  0.00     0.210 C 
ATOM     15  C   LIG d   1       2.572  86.049 111.431  0.00  0.00     0.109 C 
ATOM     16  O   LIG d   1       2.523  88.425 111.816  0.00  0.00    -0.276 OA
ATOM     17  H   LIG d   1       3.399  86.141 113.815  0.00  0.00     0.149 HD
ENDBRANCH   6  13
BRANCH   5  18
ATOM     18  N   LIG d   1       5.404  89.192 113.336  0.00  0.00     0.381 N 
ATOM     19  H   LIG d   1       5.428  90.188 113.425  0.00  0.00    -0.090 HD
ATOM     20  H   LIG d   1       4.769  88.957 112.595  0.00  0.00    -0.090 HD
ATOM     21  H   LIG d   1       6.315  88.848 113.125  0.00  0.00    -0.090 HD
ENDBRANCH   5  18
BRANCH   3  22
ATOM     22  C   LIG d   1       5.106  89.711 118.088  0.00  0.00     0.382 C 
ATOM     23  O   LIG d   1       6.211  89.259 118.473  0.00  0.00    -0.241 OA
ATOM     24  O   LIG d   1       4.514  90.560 118.783  0.00  0.00    -0.241 OA
ENDBRANCH   3  22
TORSDOF 7
ENDMDL
MODEL 3
REMARK VINA RESULT:      -4.7      1.758      4.840
REMARK  7 active torsions:
REMARK  status: ('A' for Active; 'I' for Inactive)
REMARK    1  A    between atoms: C_2  and  C_3 
REMARK    2  A    between atoms: C_3  and  O_6 
REMARK    3  A    between atoms: C_3  and  C_4 
REMARK    4  A    between atoms: C_7  and  O_6 
REMARK    5  A    between atoms: C_9  and  C_10 
REMARK    6  A    between atoms: N_15  and  C_14 
REMARK    7  A    between atoms: N_20  and  C_19 
REMARK       I    between atoms: C_22  and  N_20 
ROOT
ATOM      1  C   LIG d   1       0.268  89.466 116.206  0.00  0.00     0.161 C 
ATOM      2  C   LIG d   1       1.574  89.823 116.582  0.00  0.00     0.016 C 
ATOM      3  C   LIG d   1       1.862  90.807 117.555  0.00  0.00     0.038 C 
ATOM      4  C   LIG d   1       0.854  91.399 118.332  0.00  0.00     0.028 C 
ATOM      5  C   LIG d   1      -0.503  91.437 117.637  0.00  0.00    -0.047 C 
ATOM      6  C   LIG d   1      -0.843  90.020 117.122  0.00  0.00     0.091 C 
ENDROOT
BRANCH   1   7
ATOM      7  O   LIG d   1       0.164  88.032 116.104  0.00  0.00    -0.368 OA
BRANCH   7   8
ATOM      8  C   LIG d   1       1.371  87.283 116.388  0.00  0.00     0.119 C 
BRANCH   8   9
ATOM      9  C   LIG d   1       1.676  86.411 115.155  0.00  0.00     0.028 C 
ATOM     10  C   LIG d   1       2.617  87.110 114.159  0.00  0.00     0.006 C 
ENDBRANCH   8   9
BRANCH   8  11
ATOM     11  C   LIG d   1       1.158  86.296 117.540  0.00  0.00     0.028 C 
ATOM     12  C   LIG d   1      -0.085  86.624 118.383  0.00  0.00     0.006 C 
ENDBRANCH   8  11
ENDBRANCH   7   8
ENDBRANCH   1   7
BRANCH   6  13
ATOM     13  N   LIG d   1      -2.116  89.986 116.356  0.00  0.00    -0.311 N 
ATOM     14  C   LIG d   1      -3.302  89.750 116.915  0.00  0.00     0.210 C 
ATOM     15  C   LIG d   1      -4.485  89.740 115.941  0.00  0.00     0.109 C 
ATOM     16  O   LIG d   1      -3.491  89.580 118.129  0.00  0.00    -0.276 OA
ATOM     17  H   LIG d   1      -2.059  90.145 115.369  0.00  0.00     0.149 HD
ENDBRANCH   6  13
BRANCH   5  18
ATOM     18  N   LIG d   1      -1.486  91.951 118.609  0.00  0.00     0.381 N 
ATOM     19  H   LIG d   1      -1.441  91.415 119.452  0.00  0.00    -0.090 HD
ATOM     20  H   LIG d   1      -2.408  91.853 118.222  0.00  0.00    -0.090 HD
ATOM     21  H   LIG d   1      -1.302  92.910 118.806  0.00  0.00    -0.090 HD
ENDBRANCH   5  18
BRANCH   3  22
ATOM     22  C   LIG d   1       3.168  91.239 117.730  0.00  0.00     0.382 C 
ATOM     23  O   LIG d   1       3.663  91.285 118.882  0.00  0.00    -0.241 OA
ATOM     24  O   LIG d   1       3.842  91.624 116.756  0.00  0.00    -0.241 OA
ENDBRANCH   3  22
TORSDOF 7
ENDMDL
MODEL 4
REMARK VINA RESULT:      -4.5      4.623      7.527
REMARK  7 active torsions:
REMARK  status: ('A' for Active; 'I' for Inactive)
REMARK    1  A    between atoms: C_2  and  C_3 
REMARK    2  A    between atoms: C_3  and  O_6 
REMARK    3  A    between atoms: C_3  and  C_4 
REMARK    4  A    between atoms: C_7  and  O_6 
REMARK    5  A    between atoms: C_9  and  C_10 
REMARK    6  A    between atoms: N_15  and  C_14 
REMARK    7  A    between atoms: N_20  and  C_19 
REMARK       I    between atoms: C_22  and  N_20 
ROOT
ATOM      1  C   LIG d   1      -5.388  90.969 117.853  0.00  0.00     0.161 C 
ATOM      2  C   LIG d   1      -6.154  92.137 118.004  0.00  0.00     0.016 C 
ATOM      3  C   LIG d   1      -5.611  93.377 118.413  0.00  0.00     0.038 C 
ATOM      4  C   LIG d   1      -4.229  93.571 118.553  0.00  0.00     0.028 C 
ATOM      5  C   LIG d   1      -3.470  92.295 118.900  0.00  0.00    -0.047 C 
ATOM      6  C   LIG d   1      -3.861  91.189 117.893  0.00  0.00     0.091 C 
ENDROOT
BRANCH   1   7
ATOM      7  O   LIG d   1      -5.765  90.292 116.638  0.00  0.00    -0.368 OA
BRANCH   7   8
ATOM      8  C   LIG d   1      -6.942  90.800 115.963  0.00  0.00     0.119 C 
BRANCH   8   9
ATOM      9  C   LIG d   1      -7.661  89.599 115.319  0.00  0.00     0.028 C 
ATOM     10  C   LIG d   1      -8.755  89.014 116.226  0.00  0.00     0.006 C 
ENDBRANCH   8   9
BRANCH   8  11
ATOM     11  C   LIG d   1      -6.563  91.719 114.798  0.00  0.00     0.028 C 
ATOM     12  C   LIG d   1      -6.981  91.153 113.432  0.00  0.00     0.006 C 
ENDBRANCH   8  11
ENDBRANCH   7   8
ENDBRANCH   1   7
BRANCH   6  13
ATOM     13  N   LIG d   1      -3.227  89.883 118.212  0.00  0.00    -0.311 N 
ATOM     14  C   LIG d   1      -2.006  89.541 117.803  0.00  0.00     0.210 C 
ATOM     15  C   LIG d   1      -1.552  88.140 118.225  0.00  0.00     0.109 C 
ATOM     16  O   LIG d   1      -1.244  90.277 117.159  0.00  0.00    -0.276 OA
ATOM     17  H   LIG d   1      -3.763  89.236 118.757  0.00  0.00     0.149 HD
ENDBRANCH   6  13
BRANCH   5  18
ATOM     18  N   LIG d   1      -2.030  92.613 118.879  0.00  0.00     0.381 N 
ATOM     19  H   LIG d   1      -1.697  92.737 119.815  0.00  0.00    -0.090 HD
ATOM     20  H   LIG d   1      -1.894  93.474 118.380  0.00  0.00    -0.090 HD
ATOM     21  H   LIG d   1      -1.525  91.879 118.434  0.00  0.00    -0.090 HD
ENDBRANCH   5  18
BRANCH   3  22
ATOM     22  C   LIG d   1      -6.459  94.429 118.725  0.00  0.00     0.382 C 
ATOM     23  O   LIG d   1      -7.700  94.246 118.758  0.00  0.00    -0.241 OA
ATOM     24  O   LIG d   1      -6.002  95.569 118.930  0.00  0.00    -0.241 OA
ENDBRANCH   3  22
TORSDOF 7
ENDMDL
MODEL 5
REMARK VINA RESULT:      -4.2      2.505      6.296
REMARK  7 active torsions:
REMARK  status: ('A' for Active; 'I' for Inactive)
REMARK    1  A    between atoms: C_2  and  C_3 
REMARK    2  A    between atoms: C_3  and  O_6 
REMARK    3  A    between atoms: C_3  and  C_4 
REMARK    4  A    between atoms: C_7  and  O_6 
REMARK    5  A    between atoms: C_9  and  C_10 
REMARK    6  A    between atoms: N_15  and  C_14 
REMARK    7  A    between atoms: N_20  and  C_19 
REMARK       I    between atoms: C_22  and  N_20 
ROOT
ATOM      1  C   LIG d   1       2.936  88.886 115.779  0.00  0.00     0.161 C 
ATOM      2  C   LIG d   1       3.724  89.106 114.637  0.00  0.00     0.016 C 
ATOM      3  C   LIG d   1       3.718  88.251 113.511  0.00  0.00     0.038 C 
ATOM      4  C   LIG d   1       2.804  87.194 113.388  0.00  0.00     0.028 C 
ATOM      5  C   LIG d   1       2.342  86.634 114.729  0.00  0.00    -0.047 C 
ATOM      6  C   LIG d   1       1.852  87.800 115.618  0.00  0.00     0.091 C 
ENDROOT
BRANCH   1   7
ATOM      7  O   LIG d   1       2.341  90.127 116.209  0.00  0.00    -0.368 OA
BRANCH   7   8
ATOM      8  C   LIG d   1       2.748  90.610 117.513  0.00  0.00     0.119 C 
BRANCH   8   9
ATOM      9  C   LIG d   1       1.682  91.618 117.986  0.00  0.00     0.028 C 
ATOM     10  C   LIG d   1       0.286  91.303 117.424  0.00  0.00     0.006 C 
ENDBRANCH   8   9
BRANCH   8  11
ATOM     11  C   LIG d   1       4.052  91.408 117.430  0.00  0.00     0.028 C 
ATOM     12  C   LIG d   1       5.205  90.748 118.203  0.00  0.00     0.006 C 
ENDBRANCH   8  11
ENDBRANCH   7   8
ENDBRANCH   1   7
BRANCH   6  13
ATOM     13  N   LIG d   1       1.460  87.349 116.979  0.00  0.00    -0.311 N 
ATOM     14  C   LIG d   1       0.256  87.569 117.505  0.00  0.00     0.210 C 
ATOM     15  C   LIG d   1       0.067  87.038 118.930  0.00  0.00     0.109 C 
ATOM     16  O   LIG d   1      -0.683  88.124 116.916  0.00  0.00    -0.276 OA
ATOM     17  H   LIG d   1       2.152  86.863 117.515  0.00  0.00     0.149 HD
ENDBRANCH   6  13
BRANCH   5  18
ATOM     18  N   LIG d   1       1.292  85.634 114.457  0.00  0.00     0.381 N 
ATOM     19  H   LIG d   1       1.022  85.185 115.309  0.00  0.00    -0.090 HD
ATOM     20  H   LIG d   1       1.661  84.936 113.836  0.00  0.00    -0.090 HD
ATOM     21  H   LIG d   1       0.501  86.075 114.040  0.00  0.00    -0.090 HD
ENDBRANCH   5  18
BRANCH   3  22
ATOM     22  C   LIG d   1       4.660  88.427 112.510  0.00  0.00     0.382 C 
ATOM     23  O   LIG d   1       4.553  87.798 111.430  0.00  0.00    -0.241 OA
ATOM     24  O   LIG d   1       5.641  89.174 112.690  0.00  0.00    -0.241 OA
ENDBRANCH   3  22
TORSDOF 7
ENDMDL
MODEL 6
REMARK VINA RESULT:      -4.1      1.856      2.493
REMARK  7 active torsions:
REMARK  status: ('A' for Active; 'I' for Inactive)
REMARK    1  A    between atoms: C_2  and  C_3 
REMARK    2  A    between atoms: C_3  and  O_6 
REMARK    3  A    between atoms: C_3  and  C_4 
REMARK    4  A    between atoms: C_7  and  O_6 
REMARK    5  A    between atoms: C_9  and  C_10 
REMARK    6  A    between atoms: N_15  and  C_14 
REMARK    7  A    between atoms: N_20  and  C_19 
REMARK       I    between atoms: C_22  and  N_20 
ROOT
ATOM      1  C   LIG d   1      -0.244  90.109 117.962  0.00  0.00     0.161 C 
ATOM      2  C   LIG d   1      -1.639  90.140 117.800  0.00  0.00     0.016 C 
ATOM      3  C   LIG d   1      -2.404  91.327 117.865  0.00  0.00     0.038 C 
ATOM      4  C   LIG d   1      -1.804  92.592 117.945  0.00  0.00     0.028 C 
ATOM      5  C   LIG d   1      -0.435  92.572 118.616  0.00  0.00    -0.047 C 
ATOM      6  C   LIG d   1       0.440  91.492 117.939  0.00  0.00     0.091 C 
ENDROOT
BRANCH   1   7
ATOM      7  O   LIG d   1       0.343  89.243 116.971  0.00  0.00    -0.368 OA
BRANCH   7   8
ATOM      8  C   LIG d   1       1.041  88.078 117.475  0.00  0.00     0.119 C 
BRANCH   8   9
ATOM      9  C   LIG d   1       1.604  87.313 116.261  0.00  0.00     0.028 C 
ATOM     10  C   LIG d   1       2.499  88.196 115.375  0.00  0.00     0.006 C 
ENDBRANCH   8   9
BRANCH   8  11
ATOM     11  C   LIG d   1       0.076  87.103 118.157  0.00  0.00     0.028 C 
ATOM     12  C   LIG d   1       0.563  85.646 118.101  0.00  0.00     0.006 C 
ENDBRANCH   8  11
ENDBRANCH   7   8
ENDBRANCH   1   7
BRANCH   6  13
ATOM     13  N   LIG d   1       1.768  91.347 118.591  0.00  0.00    -0.311 N 
ATOM     14  C   LIG d   1       2.916  91.312 117.916  0.00  0.00     0.210 C 
ATOM     15  C   LIG d   1       4.168  91.138 118.780  0.00  0.00     0.109 C 
ATOM     16  O   LIG d   1       3.018  91.442 116.687  0.00  0.00    -0.276 OA
ATOM     17  H   LIG d   1       1.780  91.267 119.589  0.00  0.00     0.149 HD
ENDBRANCH   6  13
BRANCH   5  18
ATOM     18  N   LIG d   1       0.135  93.928 118.509  0.00  0.00     0.381 N 
ATOM     19  H   LIG d   1       0.823  93.950 117.783  0.00  0.00    -0.090 HD
ATOM     20  H   LIG d   1       0.584  94.162 119.377  0.00  0.00    -0.090 HD
ATOM     21  H   LIG d   1      -0.587  94.586 118.312  0.00  0.00    -0.090 HD
ENDBRANCH   5  18
BRANCH   3  22
ATOM     22  C   LIG d   1      -3.789  91.252 117.889  0.00  0.00     0.382 C 
ATOM     23  O   LIG d   1      -4.363  90.174 117.606  0.00  0.00    -0.241 OA
ATOM     24  O   LIG d   1      -4.471  92.262 118.147  0.00  0.00    -0.241 OA
ENDBRANCH   3  22
TORSDOF 7
ENDMDL
MODEL 7
REMARK VINA RESULT:      -4.0      3.979      6.916
REMARK  7 active torsions:
REMARK  status: ('A' for Active; 'I' for Inactive)
REMARK    1  A    between atoms: C_2  and  C_3 
REMARK    2  A    between atoms: C_3  and  O_6 
REMARK    3  A    between atoms: C_3  and  C_4 
REMARK    4  A    between atoms: C_7  and  O_6 
REMARK    5  A    between atoms: C_9  and  C_10 
REMARK    6  A    between atoms: N_15  and  C_14 
REMARK    7  A    between atoms: N_20  and  C_19 
REMARK       I    between atoms: C_22  and  N_20 
ROOT
ATOM      1  C   LIG d   1      -2.774  92.690 118.175  0.00  0.00     0.161 C 
ATOM      2  C   LIG d   1      -2.757  94.093 118.255  0.00  0.00     0.016 C 
ATOM      3  C   LIG d   1      -1.583  94.845 118.486  0.00  0.00     0.038 C 
ATOM      4  C   LIG d   1      -0.312  94.251 118.502  0.00  0.00     0.028 C 
ATOM      5  C   LIG d   1      -0.334  92.787 118.929  0.00  0.00    -0.047 C 
ATOM      6  C   LIG d   1      -1.382  92.032 118.079  0.00  0.00     0.091 C 
ENDROOT
BRANCH   1   7
ATOM      7  O   LIG d   1      -3.602  92.274 117.072  0.00  0.00    -0.368 OA
BRANCH   7   8
ATOM      8  C   LIG d   1      -4.681  91.361 117.393  0.00  0.00     0.119 C 
BRANCH   8   9
ATOM      9  C   LIG d   1      -5.539  91.193 116.125  0.00  0.00     0.028 C 
ATOM     10  C   LIG d   1      -5.160  89.938 115.322  0.00  0.00     0.006 C 
ENDBRANCH   8   9
BRANCH   8  11
ATOM     11  C   LIG d   1      -5.622  91.959 118.444  0.00  0.00     0.028 C 
ATOM     12  C   LIG d   1      -6.504  93.085 117.881  0.00  0.00     0.006 C 
ENDBRANCH   8  11
ENDBRANCH   7   8
ENDBRANCH   1   7
BRANCH   6  13
ATOM     13  N   LIG d   1      -1.527  90.611 118.489  0.00  0.00    -0.311 N 
ATOM     14  C   LIG d   1      -1.242  89.584 117.690  0.00  0.00     0.210 C 
ATOM     15  C   LIG d   1      -1.482  88.201 118.304  0.00  0.00     0.109 C 
ATOM     16  O   LIG d   1      -0.784  89.687 116.542  0.00  0.00    -0.276 OA
ATOM     17  H   LIG d   1      -1.863  90.436 119.416  0.00  0.00     0.149 HD
ENDBRANCH   6  13
BRANCH   5  18
ATOM     18  N   LIG d   1       1.033  92.255 118.768  0.00  0.00     0.381 N 
ATOM     19  H   LIG d   1       1.096  91.351 119.190  0.00  0.00    -0.090 HD
ATOM     20  H   LIG d   1       1.677  92.868 119.236  0.00  0.00    -0.090 HD
ATOM     21  H   LIG d   1       1.263  92.195 117.800  0.00  0.00    -0.090 HD
ENDBRANCH   5  18
BRANCH   3  22
ATOM     22  C   LIG d   1      -1.677  96.204 118.744  0.00  0.00     0.382 C 
ATOM     23  O   LIG d   1      -0.636  96.882 118.925  0.00  0.00    -0.241 OA
ATOM     24  O   LIG d   1      -2.791  96.753 118.842  0.00  0.00    -0.241 OA
ENDBRANCH   3  22
TORSDOF 7
ENDMDL
MODEL 8
REMARK VINA RESULT:      -3.9      4.792      7.645
REMARK  7 active torsions:
REMARK  status: ('A' for Active; 'I' for Inactive)
REMARK    1  A    between atoms: C_2  and  C_3 
REMARK    2  A    between atoms: C_3  and  O_6 
REMARK    3  A    between atoms: C_3  and  C_4 
REMARK    4  A    between atoms: C_7  and  O_6 
REMARK    5  A    between atoms: C_9  and  C_10 
REMARK    6  A    between atoms: N_15  and  C_14 
REMARK    7  A    between atoms: N_20  and  C_19 
REMARK       I    between atoms: C_22  and  N_20 
ROOT
ATOM      1  C   LIG d   1      -4.298  91.753 117.485  0.00  0.00     0.161 C 
ATOM      2  C   LIG d   1      -3.473  92.790 117.952  0.00  0.00     0.016 C 
ATOM      3  C   LIG d   1      -3.968  93.956 118.579  0.00  0.00     0.038 C 
ATOM      4  C   LIG d   1      -5.321  94.096 118.922  0.00  0.00     0.028 C 
ATOM      5  C   LIG d   1      -6.259  93.302 118.020  0.00  0.00    -0.047 C 
ATOM      6  C   LIG d   1      -5.767  91.838 117.949  0.00  0.00     0.091 C 
ENDROOT
BRANCH   1   7
ATOM      7  O   LIG d   1      -3.732  90.478 117.846  0.00  0.00    -0.368 OA
BRANCH   7   8
ATOM      8  C   LIG d   1      -2.314  90.317 117.596  0.00  0.00     0.119 C 
BRANCH   8   9
ATOM      9  C   LIG d   1      -2.090  88.870 117.116  0.00  0.00     0.028 C 
ATOM     10  C   LIG d   1      -1.024  88.134 117.946  0.00  0.00     0.006 C 
ENDBRANCH   8   9
BRANCH   8  11
ATOM     11  C   LIG d   1      -1.502  90.446 118.888  0.00  0.00     0.028 C 
ATOM     12  C   LIG d   1      -0.280  91.365 118.735  0.00  0.00     0.006 C 
ENDBRANCH   8  11
ENDBRANCH   7   8
ENDBRANCH   1   7
BRANCH   6  13
ATOM     13  N   LIG d   1      -6.581  91.011 117.021  0.00  0.00    -0.311 N 
ATOM     14  C   LIG d   1      -6.702  91.272 115.720  0.00  0.00     0.210 C 
ATOM     15  C   LIG d   1      -7.604  90.305 114.947  0.00  0.00     0.109 C 
ATOM     16  O   LIG d   1      -6.122  92.195 115.128  0.00  0.00    -0.276 OA
ATOM     17  H   LIG d   1      -7.060  90.224 117.412  0.00  0.00     0.149 HD
ENDBRANCH   6  13
BRANCH   5  18
ATOM     18  N   LIG d   1      -7.621  93.428 118.572  0.00  0.00     0.381 N 
ATOM     19  H   LIG d   1      -8.296  93.258 117.853  0.00  0.00    -0.090 HD
ATOM     20  H   LIG d   1      -7.750  94.366 118.909  0.00  0.00    -0.090 HD
ATOM     21  H   LIG d   1      -7.749  92.779 119.317  0.00  0.00    -0.090 HD
ENDBRANCH   5  18
BRANCH   3  22
ATOM     22  C   LIG d   1      -3.110  95.015 118.836  0.00  0.00     0.382 C 
ATOM     23  O   LIG d   1      -3.565  96.181 118.930  0.00  0.00    -0.241 OA
ATOM     24  O   LIG d   1      -1.883  94.826 118.930  0.00  0.00    -0.241 OA
ENDBRANCH   3  22
TORSDOF 7
ENDMDL
MODEL 9
REMARK VINA RESULT:      -3.5      3.208      5.972
REMARK  7 active torsions:
REMARK  status: ('A' for Active; 'I' for Inactive)
REMARK    1  A    between atoms: C_2  and  C_3 
REMARK    2  A    between atoms: C_3  and  O_6 
REMARK    3  A    between atoms: C_3  and  C_4 
REMARK    4  A    between atoms: C_7  and  O_6 
REMARK    5  A    between atoms: C_9  and  C_10 
REMARK    6  A    between atoms: N_15  and  C_14 
REMARK    7  A    between atoms: N_20  and  C_19 
REMARK       I    between atoms: C_22  and  N_20 
ROOT
ATOM      1  C   LIG d   1      -1.883  90.705 116.929  0.00  0.00     0.161 C 
ATOM      2  C   LIG d   1      -0.813  91.383 117.538  0.00  0.00     0.016 C 
ATOM      3  C   LIG d   1      -0.979  92.529 118.350  0.00  0.00     0.038 C 
ATOM      4  C   LIG d   1      -2.247  92.987 118.734  0.00  0.00     0.028 C 
ATOM      5  C   LIG d   1      -3.346  92.638 117.736  0.00  0.00    -0.047 C 
ATOM      6  C   LIG d   1      -3.281  91.125 117.428  0.00  0.00     0.091 C 
ENDROOT
BRANCH   1   7
ATOM      7  O   LIG d   1      -1.705  89.282 117.075  0.00  0.00    -0.368 OA
BRANCH   7   8
ATOM      8  C   LIG d   1      -0.421  88.849 117.587  0.00  0.00     0.119 C 
BRANCH   8   9
ATOM      9  C   LIG d   1       0.132  87.790 116.614  0.00  0.00     0.028 C 
ATOM     10  C   LIG d   1       1.542  88.136 116.108  0.00  0.00     0.006 C 
ENDBRANCH   8   9
BRANCH   8  11
ATOM     11  C   LIG d   1      -0.571  88.128 118.930  0.00  0.00     0.028 C 
ATOM     12  C   LIG d   1      -0.762  86.611 118.773  0.00  0.00     0.006 C 
ENDBRANCH   8  11
ENDBRANCH   7   8
ENDBRANCH   1   7
BRANCH   6  13
ATOM     13  N   LIG d   1      -4.269  90.714 116.395  0.00  0.00    -0.311 N 
ATOM     14  C   LIG d   1      -5.568  90.557 116.645  0.00  0.00     0.210 C 
ATOM     15  C   LIG d   1      -6.407  90.110 115.444  0.00  0.00     0.109 C 
ATOM     16  O   LIG d   1      -6.110  90.777 117.738  0.00  0.00    -0.276 OA
ATOM     17  H   LIG d   1      -3.920  90.545 115.472  0.00  0.00     0.149 HD
ENDBRANCH   6  13
BRANCH   5  18
ATOM     18  N   LIG d   1      -4.633  93.054 118.326  0.00  0.00     0.381 N 
ATOM     19  H   LIG d   1      -4.607  92.927 119.318  0.00  0.00    -0.090 HD
ATOM     20  H   LIG d   1      -5.364  92.473 117.954  0.00  0.00    -0.090 HD
ATOM     21  H   LIG d   1      -4.814  94.009 118.110  0.00  0.00    -0.090 HD
ENDBRANCH   5  18
BRANCH   3  22
ATOM     22  C   LIG d   1       0.133  93.252 118.754  0.00  0.00     0.382 C 
ATOM     23  O   LIG d   1       0.046  94.491 118.929  0.00  0.00    -0.241 OA
ATOM     24  O   LIG d   1       1.234  92.687 118.902  0.00  0.00    -0.241 OA
ENDBRANCH   3  22
TORSDOF 7
ENDMDL
