MODEL 1
REMARK VINA RESULT:      -5.2      0.000      0.000
REMARK  7 active torsions:
REMARK  status: ('A' for Active; 'I' for Inactive)
REMARK    1  A    between atoms: C_2  and  C_3 
REMARK    2  A    between atoms: C_3  and  O_6 
REMARK    3  A    between atoms: C_3  and  C_4 
REMARK    4  A    between atoms: C_7  and  O_6 
REMARK    5  A    between atoms: C_9  and  C_10 
REMARK    6  A    between atoms: N_15  and  C_14 
REMARK    7  A    between atoms: N_20  and  C_19 
REMARK       I    between atoms: C_22  and  N_20 
ROOT
ATOM      1  C   LIG d   1       3.598  88.830 115.518  0.00  0.00     0.161 C 
ATOM      2  C   LIG d   1       2.866  88.276 114.454  0.00  0.00     0.016 C 
ATOM      3  C   LIG d   1       3.441  87.931 113.210  0.00  0.00     0.038 C 
ATOM      4  C   LIG d   1       4.827  87.977 112.996  0.00  0.00     0.028 C 
ATOM      5  C   LIG d   1       5.541  89.004 113.868  0.00  0.00    -0.047 C 
ATOM      6  C   LIG d   1       5.130  88.784 115.341  0.00  0.00     0.091 C 
ENDROOT
BRANCH   1   7
ATOM      7  O   LIG d   1       3.216  88.197 116.755  0.00  0.00    -0.368 OA
BRANCH   7   8
ATOM      8  C   LIG d   1       2.436  89.005 117.670  0.00  0.00     0.119 C 
BRANCH   8   9
ATOM      9  C   LIG d   1       0.992  88.469 117.645  0.00  0.00     0.028 C 
ATOM     10  C   LIG d   1      -0.007  89.497 117.088  0.00  0.00     0.006 C 
ENDBRANCH   8   9
BRANCH   8  11
ATOM     11  C   LIG d   1       2.338  90.456 117.188  0.00  0.00     0.028 C 
ATOM     12  C   LIG d   1       3.068  91.442 118.114  0.00  0.00     0.006 C 
ENDBRANCH   8  11
ENDBRANCH   7   8
ENDBRANCH   1   7
BRANCH   6  13
ATOM     13  N   LIG d   1       5.718  89.800 116.252  0.00  0.00    -0.311 N 
ATOM     14  C   LIG d   1       6.894  89.648 116.859  0.00  0.00     0.210 C 
ATOM     15  C   LIG d   1       7.306  90.808 117.772  0.00  0.00     0.109 C 
ATOM     16  O   LIG d   1       7.650  88.677 116.703  0.00  0.00    -0.276 OA
ATOM     17  H   LIG d   1       5.186  90.634 116.410  0.00  0.00     0.149 HD
ENDBRANCH   6  13
BRANCH   5  18
ATOM     18  N   LIG d   1       6.991  88.850 113.642  0.00  0.00     0.381 N 
ATOM     19  H   LIG d   1       7.432  89.747 113.648  0.00  0.00    -0.090 HD
ATOM     20  H   LIG d   1       7.137  88.432 112.740  0.00  0.00    -0.090 HD
ATOM     21  H   LIG d   1       7.386  88.273 114.352  0.00  0.00    -0.090 HD
ENDBRANCH   5  18
BRANCH   3  22
ATOM     22  C   LIG d   1       2.623  87.573 112.150  0.00  0.00     0.382 C 
ATOM     23  O   LIG d   1       2.824  86.496 111.539  0.00  0.00    -0.241 OA
ATOM     24  O   LIG d   1       1.713  88.333 111.769  0.00  0.00    -0.241 OA
ENDBRANCH   3  22
TORSDOF 7
ENDMDL
MODEL 2
REMARK VINA RESULT:      -5.1      1.707      5.082
REMARK  7 active torsions:
REMARK  status: ('A' for Active; 'I' for Inactive)
REMARK    1  A    between atoms: C_2  and  C_3 
REMARK    2  A    between atoms: C_3  and  O_6 
REMARK    3  A    between atoms: C_3  and  C_4 
REMARK    4  A    between atoms: C_7  and  O_6 
REMARK    5  A    between atoms: C_9  and  C_10 
REMARK    6  A    between atoms: N_15  and  C_14 
REMARK    7  A    between atoms: N_20  and  C_19 
REMARK       I    between atoms: C_22  and  N_20 
ROOT
ATOM      1  C   LIG d   1       4.902  86.970 115.543  0.00  0.00     0.161 C 
ATOM      2  C   LIG d   1       5.843  87.492 116.447  0.00  0.00     0.016 C 
ATOM      3  C   LIG d   1       6.672  88.599 116.155  0.00  0.00     0.038 C 
ATOM      4  C   LIG d   1       6.511  89.358 114.987  0.00  0.00     0.028 C 
ATOM      5  C   LIG d   1       5.919  88.566 113.826  0.00  0.00    -0.047 C 
ATOM      6  C   LIG d   1       4.634  87.854 114.307  0.00  0.00     0.091 C 
ENDROOT
BRANCH   1   7
ATOM      7  O   LIG d   1       3.669  86.684 116.232  0.00  0.00    -0.368 OA
BRANCH   7   8
ATOM      8  C   LIG d   1       2.640  87.701 116.146  0.00  0.00     0.119 C 
BRANCH   8   9
ATOM      9  C   LIG d   1       2.708  88.537 117.439  0.00  0.00     0.028 C 
ATOM     10  C   LIG d   1       3.028  90.017 117.164  0.00  0.00     0.006 C 
ENDBRANCH   8   9
BRANCH   8  11
ATOM     11  C   LIG d   1       1.241  87.079 116.138  0.00  0.00     0.028 C 
ATOM     12  C   LIG d   1       1.157  85.812 115.273  0.00  0.00     0.006 C 
ENDBRANCH   8  11
ENDBRANCH   7   8
ENDBRANCH   1   7
BRANCH   6  13
ATOM     13  N   LIG d   1       4.038  86.989 113.256  0.00  0.00    -0.311 N 
ATOM     14  C   LIG d   1       3.057  87.388 112.448  0.00  0.00     0.210 C 
ATOM     15  C   LIG d   1       2.574  86.333 111.448  0.00  0.00     0.109 C 
ATOM     16  O   LIG d   1       2.564  88.526 112.442  0.00  0.00    -0.276 OA
ATOM     17  H   LIG d   1       4.400  86.060 113.171  0.00  0.00     0.149 HD
ENDBRANCH   6  13
BRANCH   5  18
ATOM     18  N   LIG d   1       5.677  89.511 112.719  0.00  0.00     0.381 N 
ATOM     19  H   LIG d   1       6.421  90.178 112.674  0.00  0.00    -0.090 HD
ATOM     20  H   LIG d   1       4.820  90.006 112.896  0.00  0.00    -0.090 HD
ATOM     21  H   LIG d   1       5.611  89.016 111.857  0.00  0.00    -0.090 HD
ENDBRANCH   5  18
BRANCH   3  22
ATOM     22  C   LIG d   1       7.704  88.931 117.020  0.00  0.00     0.382 C 
ATOM     23  O   LIG d   1       7.798  90.101 117.463  0.00  0.00    -0.241 OA
ATOM     24  O   LIG d   1       8.567  88.087 117.327  0.00  0.00    -0.241 OA
ENDBRANCH   3  22
TORSDOF 7
ENDMDL
MODEL 3
REMARK VINA RESULT:      -4.3      3.380      5.942
REMARK  7 active torsions:
REMARK  status: ('A' for Active; 'I' for Inactive)
REMARK    1  A    between atoms: C_2  and  C_3 
REMARK    2  A    between atoms: C_3  and  O_6 
REMARK    3  A    between atoms: C_3  and  C_4 
REMARK    4  A    between atoms: C_7  and  O_6 
REMARK    5  A    between atoms: C_9  and  C_10 
REMARK    6  A    between atoms: N_15  and  C_14 
REMARK    7  A    between atoms: N_20  and  C_19 
REMARK       I    between atoms: C_22  and  N_20 
ROOT
ATOM      1  C   LIG d   1       0.603  88.678 117.161  0.00  0.00     0.161 C 
ATOM      2  C   LIG d   1      -0.802  88.677 117.150  0.00  0.00     0.016 C 
ATOM      3  C   LIG d   1      -1.584  89.752 117.631  0.00  0.00     0.038 C 
ATOM      4  C   LIG d   1      -1.010  90.971 118.019  0.00  0.00     0.028 C 
ATOM      5  C   LIG d   1       0.423  90.833 118.521  0.00  0.00    -0.047 C 
ATOM      6  C   LIG d   1       1.247  90.044 117.478  0.00  0.00     0.091 C 
ENDROOT
BRANCH   1   7
ATOM      7  O   LIG d   1       1.102  88.167 115.909  0.00  0.00    -0.368 OA
BRANCH   7   8
ATOM      8  C   LIG d   1       1.732  86.864 115.958  0.00  0.00     0.119 C 
BRANCH   8   9
ATOM      9  C   LIG d   1       3.167  87.022 115.419  0.00  0.00     0.028 C 
ATOM     10  C   LIG d   1       3.366  88.346 114.661  0.00  0.00     0.006 C 
ENDBRANCH   8   9
BRANCH   8  11
ATOM     11  C   LIG d   1       1.048  85.878 115.006  0.00  0.00     0.028 C 
ATOM     12  C   LIG d   1      -0.338  85.435 115.501  0.00  0.00     0.006 C 
ENDBRANCH   8  11
ENDBRANCH   7   8
ENDBRANCH   1   7
BRANCH   6  13
ATOM     13  N   LIG d   1       2.640  89.791 117.929  0.00  0.00    -0.311 N 
ATOM     14  C   LIG d   1       3.656  90.611 117.665  0.00  0.00     0.210 C 
ATOM     15  C   LIG d   1       5.014  90.152 118.206  0.00  0.00     0.109 C 
ATOM     16  O   LIG d   1       3.556  91.690 117.062  0.00  0.00    -0.276 OA
ATOM     17  H   LIG d   1       2.805  88.953 118.452  0.00  0.00     0.149 HD
ENDBRANCH   6  13
BRANCH   5  18
ATOM     18  N   LIG d   1       0.944  92.192 118.761  0.00  0.00     0.381 N 
ATOM     19  H   LIG d   1       1.904  92.143 119.038  0.00  0.00    -0.090 HD
ATOM     20  H   LIG d   1       0.421  92.614 119.508  0.00  0.00    -0.090 HD
ATOM     21  H   LIG d   1       0.858  92.741 117.934  0.00  0.00    -0.090 HD
ENDBRANCH   5  18
BRANCH   3  22
ATOM     22  C   LIG d   1      -2.956  89.597 117.765  0.00  0.00     0.382 C 
ATOM     23  O   LIG d   1      -3.629  90.467 118.369  0.00  0.00    -0.241 OA
ATOM     24  O   LIG d   1      -3.522  88.578 117.327  0.00  0.00    -0.241 OA
ENDBRANCH   3  22
TORSDOF 7
ENDMDL
MODEL 4
REMARK VINA RESULT:      -4.3      1.922      4.417
REMARK  7 active torsions:
REMARK  status: ('A' for Active; 'I' for Inactive)
REMARK    1  A    between atoms: C_2  and  C_3 
REMARK    2  A    between atoms: C_3  and  O_6 
REMARK    3  A    between atoms: C_3  and  C_4 
REMARK    4  A    between atoms: C_7  and  O_6 
REMARK    5  A    between atoms: C_9  and  C_10 
REMARK    6  A    between atoms: N_15  and  C_14 
REMARK    7  A    between atoms: N_20  and  C_19 
REMARK       I    between atoms: C_22  and  N_20 
ROOT
ATOM      1  C   LIG d   1       3.712  87.849 116.293  0.00  0.00     0.161 C 
ATOM      2  C   LIG d   1       2.354  88.206 116.261  0.00  0.00     0.016 C 
ATOM      3  C   LIG d   1       1.839  89.366 116.884  0.00  0.00     0.038 C 
ATOM      4  C   LIG d   1       2.678  90.334 117.456  0.00  0.00     0.028 C 
ATOM      5  C   LIG d   1       4.004  89.769 117.953  0.00  0.00    -0.047 C 
ATOM      6  C   LIG d   1       4.658  88.950 116.817  0.00  0.00     0.091 C 
ENDROOT
BRANCH   1   7
ATOM      7  O   LIG d   1       4.132  87.408 114.986  0.00  0.00    -0.368 OA
BRANCH   7   8
ATOM      8  C   LIG d   1       3.524  88.086 113.859  0.00  0.00     0.119 C 
BRANCH   8   9
ATOM      9  C   LIG d   1       3.401  87.061 112.714  0.00  0.00     0.028 C 
ATOM     10  C   LIG d   1       2.208  87.355 111.790  0.00  0.00     0.006 C 
ENDBRANCH   8   9
BRANCH   8  11
ATOM     11  C   LIG d   1       4.434  89.192 113.317  0.00  0.00     0.028 C 
ATOM     12  C   LIG d   1       5.925  88.826 113.387  0.00  0.00     0.006 C 
ENDBRANCH   8  11
ENDBRANCH   7   8
ENDBRANCH   1   7
BRANCH   6  13
ATOM     13  N   LIG d   1       5.920  88.292 117.246  0.00  0.00    -0.311 N 
ATOM     14  C   LIG d   1       7.128  88.805 117.021  0.00  0.00     0.210 C 
ATOM     15  C   LIG d   1       8.296  87.955 117.529  0.00  0.00     0.109 C 
ATOM     16  O   LIG d   1       7.341  89.899 116.477  0.00  0.00    -0.276 OA
ATOM     17  H   LIG d   1       5.837  87.415 117.722  0.00  0.00     0.149 HD
ENDBRANCH   6  13
BRANCH   5  18
ATOM     18  N   LIG d   1       4.834  90.904 118.399  0.00  0.00     0.381 N 
ATOM     19  H   LIG d   1       4.526  91.217 119.298  0.00  0.00    -0.090 HD
ATOM     20  H   LIG d   1       4.726  91.661 117.747  0.00  0.00    -0.090 HD
ATOM     21  H   LIG d   1       5.791  90.630 118.445  0.00  0.00    -0.090 HD
ENDBRANCH   5  18
BRANCH   3  22
ATOM     22  C   LIG d   1       0.468  89.548 116.973  0.00  0.00     0.382 C 
ATOM     23  O   LIG d   1       0.005  90.558 117.557  0.00  0.00    -0.241 OA
ATOM     24  O   LIG d   1      -0.314  88.692 116.516  0.00  0.00    -0.241 OA
ENDBRANCH   3  22
TORSDOF 7
ENDMDL
MODEL 5
REMARK VINA RESULT:      -4.2      1.437      2.036
REMARK  7 active torsions:
REMARK  status: ('A' for Active; 'I' for Inactive)
REMARK    1  A    between atoms: C_2  and  C_3 
REMARK    2  A    between atoms: C_3  and  O_6 
REMARK    3  A    between atoms: C_3  and  C_4 
REMARK    4  A    between atoms: C_7  and  O_6 
REMARK    5  A    between atoms: C_9  and  C_10 
REMARK    6  A    between atoms: N_15  and  C_14 
REMARK    7  A    between atoms: N_20  and  C_19 
REMARK       I    between atoms: C_22  and  N_20 
ROOT
ATOM      1  C   LIG d   1       3.888  87.843 115.552  0.00  0.00     0.161 C 
ATOM      2  C   LIG d   1       3.117  87.389 114.469  0.00  0.00     0.016 C 
ATOM      3  C   LIG d   1       3.448  87.641 113.118  0.00  0.00     0.038 C 
ATOM      4  C   LIG d   1       4.664  88.238 112.752  0.00  0.00     0.028 C 
ATOM      5  C   LIG d   1       5.233  89.160 113.824  0.00  0.00    -0.047 C 
ATOM      6  C   LIG d   1       5.276  88.400 115.169  0.00  0.00     0.091 C 
ENDROOT
BRANCH   1   7
ATOM      7  O   LIG d   1       4.022  86.792 116.530  0.00  0.00    -0.368 OA
BRANCH   7   8
ATOM      8  C   LIG d   1       3.077  86.819 117.627  0.00  0.00     0.119 C 
BRANCH   8   9
ATOM      9  C   LIG d   1       2.705  88.292 117.883  0.00  0.00     0.028 C 
ATOM     10  C   LIG d   1       1.193  88.490 118.084  0.00  0.00     0.006 C 
ENDBRANCH   8   9
BRANCH   8  11
ATOM     11  C   LIG d   1       3.720  86.331 118.929  0.00  0.00     0.028 C 
ATOM     12  C   LIG d   1       5.253  86.254 118.844  0.00  0.00     0.006 C 
ENDBRANCH   8  11
ENDBRANCH   7   8
ENDBRANCH   1   7
BRANCH   6  13
ATOM     13  N   LIG d   1       5.741  89.257 116.291  0.00  0.00    -0.311 N 
ATOM     14  C   LIG d   1       6.879  89.047 116.951  0.00  0.00     0.210 C 
ATOM     15  C   LIG d   1       7.160  90.036 118.086  0.00  0.00     0.109 C 
ATOM     16  O   LIG d   1       7.697  88.154 116.683  0.00  0.00    -0.276 OA
ATOM     17  H   LIG d   1       5.153  90.023 116.554  0.00  0.00     0.149 HD
ENDBRANCH   6  13
BRANCH   5  18
ATOM     18  N   LIG d   1       6.564  89.605 113.369  0.00  0.00     0.381 N 
ATOM     19  H   LIG d   1       7.247  88.909 113.590  0.00  0.00    -0.090 HD
ATOM     20  H   LIG d   1       6.808  90.451 113.855  0.00  0.00    -0.090 HD
ATOM     21  H   LIG d   1       6.551  89.770 112.387  0.00  0.00    -0.090 HD
ENDBRANCH   5  18
BRANCH   3  22
ATOM     22  C   LIG d   1       2.540  87.329 112.118  0.00  0.00     0.382 C 
ATOM     23  O   LIG d   1       1.745  88.204 111.698  0.00  0.00    -0.241 OA
ATOM     24  O   LIG d   1       2.476  86.172 111.661  0.00  0.00    -0.241 OA
ENDBRANCH   3  22
TORSDOF 7
ENDMDL
MODEL 6
REMARK VINA RESULT:      -4.0      2.562      5.922
REMARK  7 active torsions:
REMARK  status: ('A' for Active; 'I' for Inactive)
REMARK    1  A    between atoms: C_2  and  C_3 
REMARK    2  A    between atoms: C_3  and  O_6 
REMARK    3  A    between atoms: C_3  and  C_4 
REMARK    4  A    between atoms: C_7  and  O_6 
REMARK    5  A    between atoms: C_9  and  C_10 
REMARK    6  A    between atoms: N_15  and  C_14 
REMARK    7  A    between atoms: N_20  and  C_19 
REMARK       I    between atoms: C_22  and  N_20 
ROOT
ATOM      1  C   LIG d   1       4.067  88.788 116.291  0.00  0.00     0.161 C 
ATOM      2  C   LIG d   1       4.051  90.047 116.915  0.00  0.00     0.016 C 
ATOM      3  C   LIG d   1       2.893  90.614 117.494  0.00  0.00     0.038 C 
ATOM      4  C   LIG d   1       1.698  89.889 117.623  0.00  0.00     0.028 C 
ATOM      5  C   LIG d   1       1.526  88.810 116.559  0.00  0.00    -0.047 C 
ATOM      6  C   LIG d   1       2.801  87.937 116.520  0.00  0.00     0.091 C 
ENDROOT
BRANCH   1   7
ATOM      7  O   LIG d   1       5.242  88.058 116.695  0.00  0.00    -0.368 OA
BRANCH   7   8
ATOM      8  C   LIG d   1       6.155  87.681 115.634  0.00  0.00     0.119 C 
BRANCH   8   9
ATOM      9  C   LIG d   1       7.499  87.311 116.290  0.00  0.00     0.028 C 
ATOM     10  C   LIG d   1       7.867  88.255 117.447  0.00  0.00     0.006 C 
ENDBRANCH   8   9
BRANCH   8  11
ATOM     11  C   LIG d   1       6.464  88.869 114.717  0.00  0.00     0.028 C 
ATOM     12  C   LIG d   1       5.916  88.681 113.294  0.00  0.00     0.006 C 
ENDBRANCH   8  11
ENDBRANCH   7   8
ENDBRANCH   1   7
BRANCH   6  13
ATOM     13  N   LIG d   1       2.751  86.908 115.448  0.00  0.00    -0.311 N 
ATOM     14  C   LIG d   1       2.572  87.199 114.161  0.00  0.00     0.210 C 
ATOM     15  C   LIG d   1       2.531  85.988 113.224  0.00  0.00     0.109 C 
ATOM     16  O   LIG d   1       2.474  88.347 113.702  0.00  0.00    -0.276 OA
ATOM     17  H   LIG d   1       2.853  85.952 115.728  0.00  0.00     0.149 HD
ENDBRANCH   6  13
BRANCH   5  18
ATOM     18  N   LIG d   1       0.311  88.044 116.894  0.00  0.00     0.381 N 
ATOM     19  H   LIG d   1      -0.096  87.674 116.058  0.00  0.00    -0.090 HD
ATOM     20  H   LIG d   1      -0.355  88.663 117.322  0.00  0.00    -0.090 HD
ATOM     21  H   LIG d   1       0.537  87.303 117.520  0.00  0.00    -0.090 HD
ENDBRANCH   5  18
BRANCH   3  22
ATOM     22  C   LIG d   1       2.911  91.934 117.916  0.00  0.00     0.382 C 
ATOM     23  O   LIG d   1       3.761  92.730 117.448  0.00  0.00    -0.241 OA
ATOM     24  O   LIG d   1       2.118  92.329 118.792  0.00  0.00    -0.241 OA
ENDBRANCH   3  22
TORSDOF 7
ENDMDL
MODEL 7
REMARK VINA RESULT:      -4.0      4.282      6.939
REMARK  7 active torsions:
REMARK  status: ('A' for Active; 'I' for Inactive)
REMARK    1  A    between atoms: C_2  and  C_3 
REMARK    2  A    between atoms: C_3  and  O_6 
REMARK    3  A    between atoms: C_3  and  C_4 
REMARK    4  A    between atoms: C_7  and  O_6 
REMARK    5  A    between atoms: C_9  and  C_10 
REMARK    6  A    between atoms: N_15  and  C_14 
REMARK    7  A    between atoms: N_20  and  C_19 
REMARK       I    between atoms: C_22  and  N_20 
ROOT
ATOM      1  C   LIG d   1       0.306  88.755 116.605  0.00  0.00     0.161 C 
ATOM      2  C   LIG d   1       1.659  89.099 116.761  0.00  0.00     0.016 C 
ATOM      3  C   LIG d   1       2.093  90.261 117.441  0.00  0.00     0.038 C 
ATOM      4  C   LIG d   1       1.202  91.083 118.147  0.00  0.00     0.028 C 
ATOM      5  C   LIG d   1      -0.219  91.052 117.594  0.00  0.00    -0.047 C 
ATOM      6  C   LIG d   1      -0.675  89.581 117.464  0.00  0.00     0.091 C 
ENDROOT
BRANCH   1   7
ATOM      7  O   LIG d   1       0.128  87.347 116.856  0.00  0.00    -0.368 OA
BRANCH   7   8
ATOM      8  C   LIG d   1       1.080  86.460 116.217  0.00  0.00     0.119 C 
BRANCH   8   9
ATOM      9  C   LIG d   1       0.312  85.640 115.162  0.00  0.00     0.028 C 
ATOM     10  C   LIG d   1      -1.165  85.435 115.539  0.00  0.00     0.006 C 
ENDBRANCH   8   9
BRANCH   8  11
ATOM     11  C   LIG d   1       1.634  85.431 117.207  0.00  0.00     0.028 C 
ATOM     12  C   LIG d   1       1.508  85.883 118.670  0.00  0.00     0.006 C 
ENDBRANCH   8  11
ENDBRANCH   7   8
ENDBRANCH   1   7
BRANCH   6  13
ATOM     13  N   LIG d   1      -2.023  89.457 116.851  0.00  0.00    -0.311 N 
ATOM     14  C   LIG d   1      -3.149  89.397 117.561  0.00  0.00     0.210 C 
ATOM     15  C   LIG d   1      -4.429  89.251 116.732  0.00  0.00     0.109 C 
ATOM     16  O   LIG d   1      -3.211  89.483 118.796  0.00  0.00    -0.276 OA
ATOM     17  H   LIG d   1      -2.068  89.412 115.852  0.00  0.00     0.149 HD
ENDBRANCH   6  13
BRANCH   5  18
ATOM     18  N   LIG d   1      -1.069  91.842 118.504  0.00  0.00     0.381 N 
ATOM     19  H   LIG d   1      -1.301  92.717 118.077  0.00  0.00    -0.090 HD
ATOM     20  H   LIG d   1      -0.556  92.029 119.348  0.00  0.00    -0.090 HD
ATOM     21  H   LIG d   1      -1.901  91.338 118.718  0.00  0.00    -0.090 HD
ENDBRANCH   5  18
BRANCH   3  22
ATOM     22  C   LIG d   1       3.428  90.631 117.386  0.00  0.00     0.382 C 
ATOM     23  O   LIG d   1       3.738  91.837 117.233  0.00  0.00    -0.241 OA
ATOM     24  O   LIG d   1       4.325  89.769 117.442  0.00  0.00    -0.241 OA
ENDBRANCH   3  22
TORSDOF 7
ENDMDL
MODEL 8
REMARK VINA RESULT:      -3.9      1.618      4.863
REMARK  7 active torsions:
REMARK  status: ('A' for Active; 'I' for Inactive)
REMARK    1  A    between atoms: C_2  and  C_3 
REMARK    2  A    between atoms: C_3  and  O_6 
REMARK    3  A    between atoms: C_3  and  C_4 
REMARK    4  A    between atoms: C_7  and  O_6 
REMARK    5  A    between atoms: C_9  and  C_10 
REMARK    6  A    between atoms: N_15  and  C_14 
REMARK    7  A    between atoms: N_20  and  C_19 
REMARK       I    between atoms: C_22  and  N_20 
ROOT
ATOM      1  C   LIG d   1       3.873  88.829 116.434  0.00  0.00     0.161 C 
ATOM      2  C   LIG d   1       4.811  89.472 117.259  0.00  0.00     0.016 C 
ATOM      3  C   LIG d   1       6.130  89.775 116.847  0.00  0.00     0.038 C 
ATOM      4  C   LIG d   1       6.555  89.589 115.524  0.00  0.00     0.028 C 
ATOM      5  C   LIG d   1       5.802  88.480 114.796  0.00  0.00    -0.047 C 
ATOM      6  C   LIG d   1       4.283  88.719 114.951  0.00  0.00     0.091 C 
ENDROOT
BRANCH   1   7
ATOM      7  O   LIG d   1       2.592  89.479 116.553  0.00  0.00    -0.368 OA
BRANCH   7   8
ATOM      8  C   LIG d   1       1.468  88.620 116.866  0.00  0.00     0.119 C 
BRANCH   8   9
ATOM      9  C   LIG d   1       0.263  89.529 117.176  0.00  0.00     0.028 C 
ATOM     10  C   LIG d   1      -1.043  88.734 117.350  0.00  0.00     0.006 C 
ENDBRANCH   8   9
BRANCH   8  11
ATOM     11  C   LIG d   1       1.716  87.823 118.150  0.00  0.00     0.028 C 
ATOM     12  C   LIG d   1       1.741  86.305 117.914  0.00  0.00     0.006 C 
ENDBRANCH   8  11
ENDBRANCH   7   8
ENDBRANCH   1   7
BRANCH   6  13
ATOM     13  N   LIG d   1       3.473  87.633 114.340  0.00  0.00    -0.311 N 
ATOM     14  C   LIG d   1       2.926  87.720 113.128  0.00  0.00     0.210 C 
ATOM     15  C   LIG d   1       2.113  86.495 112.697  0.00  0.00     0.109 C 
ATOM     16  O   LIG d   1       3.064  88.681 112.357  0.00  0.00    -0.276 OA
ATOM     17  H   LIG d   1       3.337  86.804 114.884  0.00  0.00     0.149 HD
ENDBRANCH   6  13
BRANCH   5  18
ATOM     18  N   LIG d   1       6.248  88.487 113.390  0.00  0.00     0.381 N 
ATOM     19  H   LIG d   1       6.588  87.581 113.138  0.00  0.00    -0.090 HD
ATOM     20  H   LIG d   1       7.001  89.146 113.291  0.00  0.00    -0.090 HD
ATOM     21  H   LIG d   1       5.492  88.744 112.794  0.00  0.00    -0.090 HD
ENDBRANCH   5  18
BRANCH   3  22
ATOM     22  C   LIG d   1       7.051  90.233 117.777  0.00  0.00     0.382 C 
ATOM     23  O   LIG d   1       8.267  90.296 117.475  0.00  0.00    -0.241 OA
ATOM     24  O   LIG d   1       6.688  90.542 118.928  0.00  0.00    -0.241 OA
ENDBRANCH   3  22
TORSDOF 7
ENDMDL
MODEL 9
REMARK VINA RESULT:      -3.9      2.546      5.371
REMARK  7 active torsions:
REMARK  status: ('A' for Active; 'I' for Inactive)
REMARK    1  A    between atoms: C_2  and  C_3 
REMARK    2  A    between atoms: C_3  and  O_6 
REMARK    3  A    between atoms: C_3  and  C_4 
REMARK    4  A    between atoms: C_7  and  O_6 
REMARK    5  A    between atoms: C_9  and  C_10 
REMARK    6  A    between atoms: N_15  and  C_14 
REMARK    7  A    between atoms: N_20  and  C_19 
REMARK       I    between atoms: C_22  and  N_20 
ROOT
ATOM      1  C   LIG d   1       3.087  88.368 115.750  0.00  0.00     0.161 C 
ATOM      2  C   LIG d   1       2.222  89.047 116.624  0.00  0.00     0.016 C 
ATOM      3  C   LIG d   1       0.932  88.577 116.964  0.00  0.00     0.038 C 
ATOM      4  C   LIG d   1       0.477  87.311 116.569  0.00  0.00     0.028 C 
ATOM      5  C   LIG d   1       1.114  86.814 115.275  0.00  0.00    -0.047 C 
ATOM      6  C   LIG d   1       2.651  86.931 115.396  0.00  0.00     0.091 C 
ENDROOT
BRANCH   1   7
ATOM      7  O   LIG d   1       4.424  88.368 116.287  0.00  0.00    -0.368 OA
BRANCH   7   8
ATOM      8  C   LIG d   1       5.214  89.555 116.030  0.00  0.00     0.119 C 
BRANCH   8   9
ATOM      9  C   LIG d   1       6.439  89.125 115.199  0.00  0.00     0.028 C 
ATOM     10  C   LIG d   1       6.171  89.182 113.686  0.00  0.00     0.006 C 
ENDBRANCH   8   9
BRANCH   8  11
ATOM     11  C   LIG d   1       5.787  90.135 117.326  0.00  0.00     0.028 C 
ATOM     12  C   LIG d   1       4.878  91.204 117.954  0.00  0.00     0.006 C 
ENDBRANCH   8  11
ENDBRANCH   7   8
ENDBRANCH   1   7
BRANCH   6  13
ATOM     13  N   LIG d   1       3.349  86.544 114.143  0.00  0.00    -0.311 N 
ATOM     14  C   LIG d   1       3.158  87.160 112.977  0.00  0.00     0.210 C 
ATOM     15  C   LIG d   1       3.963  86.590 111.805  0.00  0.00     0.109 C 
ATOM     16  O   LIG d   1       2.422  88.144 112.810  0.00  0.00    -0.276 OA
ATOM     17  H   LIG d   1       3.988  85.775 114.195  0.00  0.00     0.149 HD
ENDBRANCH   6  13
BRANCH   5  18
ATOM     18  N   LIG d   1       0.655  85.430 115.055  0.00  0.00     0.381 N 
ATOM     19  H   LIG d   1       1.440  84.837 114.873  0.00  0.00    -0.090 HD
ATOM     20  H   LIG d   1       0.053  85.411 114.250  0.00  0.00    -0.090 HD
ATOM     21  H   LIG d   1       0.161  85.103 115.856  0.00  0.00    -0.090 HD
ENDBRANCH   5  18
BRANCH   3  22
ATOM     22  C   LIG d   1       0.068  89.396 117.675  0.00  0.00     0.382 C 
ATOM     23  O   LIG d   1      -0.987  89.810 117.139  0.00  0.00    -0.241 OA
ATOM     24  O   LIG d   1       0.353  89.761 118.832  0.00  0.00    -0.241 OA
ENDBRANCH   3  22
TORSDOF 7
ENDMDL
