MODEL 1
REMARK VINA RESULT:      -4.9      0.000      0.000
REMARK  7 active torsions:
REMARK  status: ('A' for Active; 'I' for Inactive)
REMARK    1  A    between atoms: C_2  and  C_3 
REMARK    2  A    between atoms: C_3  and  O_6 
REMARK    3  A    between atoms: C_3  and  C_4 
REMARK    4  A    between atoms: C_7  and  O_6 
REMARK    5  A    between atoms: C_9  and  C_10 
REMARK    6  A    between atoms: N_15  and  C_14 
REMARK    7  A    between atoms: N_20  and  C_19 
REMARK       I    between atoms: C_22  and  N_20 
ROOT
ATOM      1  C   LIG d   1       1.500  88.617 116.394  0.00  0.00     0.161 C 
ATOM      2  C   LIG d   1       0.130  88.599 116.706  0.00  0.00     0.016 C 
ATOM      3  C   LIG d   1      -0.552  89.697 117.279  0.00  0.00     0.038 C 
ATOM      4  C   LIG d   1       0.061  90.949 117.440  0.00  0.00     0.028 C 
ATOM      5  C   LIG d   1       1.575  90.865 117.607  0.00  0.00    -0.047 C 
ATOM      6  C   LIG d   1       2.160  90.010 116.460  0.00  0.00     0.091 C 
ENDROOT
BRANCH   1   7
ATOM      7  O   LIG d   1       1.714  88.022 115.099  0.00  0.00    -0.368 OA
BRANCH   7   8
ATOM      8  C   LIG d   1       2.304  86.699 115.096  0.00  0.00     0.119 C 
BRANCH   8   9
ATOM      9  C   LIG d   1       2.869  86.440 116.506  0.00  0.00     0.028 C 
ATOM     10  C   LIG d   1       4.388  86.196 116.494  0.00  0.00     0.006 C 
ENDBRANCH   8   9
BRANCH   8  11
ATOM     11  C   LIG d   1       3.512  86.630 114.156  0.00  0.00     0.028 C 
ATOM     12  C   LIG d   1       3.225  87.234 112.772  0.00  0.00     0.006 C 
ENDBRANCH   8  11
ENDBRANCH   7   8
ENDBRANCH   1   7
BRANCH   6  13
ATOM     13  N   LIG d   1       3.626  89.808 116.595  0.00  0.00    -0.311 N 
ATOM     14  C   LIG d   1       4.476  89.903 115.574  0.00  0.00     0.210 C 
ATOM     15  C   LIG d   1       5.943  89.637 115.927  0.00  0.00     0.109 C 
ATOM     16  O   LIG d   1       4.159  90.213 114.416  0.00  0.00    -0.276 OA
ATOM     17  H   LIG d   1       3.973  89.583 117.506  0.00  0.00     0.149 HD
ENDBRANCH   6  13
BRANCH   5  18
ATOM     18  N   LIG d   1       2.098  92.244 117.626  0.00  0.00     0.381 N 
ATOM     19  H   LIG d   1       1.544  92.824 117.028  0.00  0.00    -0.090 HD
ATOM     20  H   LIG d   1       3.040  92.239 117.277  0.00  0.00    -0.090 HD
ATOM     21  H   LIG d   1       2.083  92.602 118.556  0.00  0.00    -0.090 HD
ENDBRANCH   5  18
BRANCH   3  22
ATOM     22  C   LIG d   1      -1.851  89.537 117.735  0.00  0.00     0.382 C 
ATOM     23  O   LIG d   1      -2.107  88.678 118.613  0.00  0.00    -0.241 OA
ATOM     24  O   LIG d   1      -2.779  90.210 117.247  0.00  0.00    -0.241 OA
ENDBRANCH   3  22
TORSDOF 7
ENDMDL
MODEL 2
REMARK VINA RESULT:      -4.7      1.365      1.792
REMARK  7 active torsions:
REMARK  status: ('A' for Active; 'I' for Inactive)
REMARK    1  A    between atoms: C_2  and  C_3 
REMARK    2  A    between atoms: C_3  and  O_6 
REMARK    3  A    between atoms: C_3  and  C_4 
REMARK    4  A    between atoms: C_7  and  O_6 
REMARK    5  A    between atoms: C_9  and  C_10 
REMARK    6  A    between atoms: N_15  and  C_14 
REMARK    7  A    between atoms: N_20  and  C_19 
REMARK       I    between atoms: C_22  and  N_20 
ROOT
ATOM      1  C   LIG d   1       1.619  89.217 116.524  0.00  0.00     0.161 C 
ATOM      2  C   LIG d   1       0.229  89.077 116.676  0.00  0.00     0.016 C 
ATOM      3  C   LIG d   1      -0.551  89.914 117.506  0.00  0.00     0.038 C 
ATOM      4  C   LIG d   1      -0.014  91.051 118.128  0.00  0.00     0.028 C 
ATOM      5  C   LIG d   1       1.481  90.938 118.408  0.00  0.00    -0.047 C 
ATOM      6  C   LIG d   1       2.205  90.520 117.108  0.00  0.00     0.091 C 
ENDROOT
BRANCH   1   7
ATOM      7  O   LIG d   1       1.975  89.087 115.134  0.00  0.00    -0.368 OA
BRANCH   7   8
ATOM      8  C   LIG d   1       2.891  88.013 114.808  0.00  0.00     0.119 C 
BRANCH   8   9
ATOM      9  C   LIG d   1       3.659  88.428 113.539  0.00  0.00     0.028 C 
ATOM     10  C   LIG d   1       4.668  89.558 113.807  0.00  0.00     0.006 C 
ENDBRANCH   8   9
BRANCH   8  11
ATOM     11  C   LIG d   1       2.138  86.735 114.427  0.00  0.00     0.028 C 
ATOM     12  C   LIG d   1       2.476  86.245 113.009  0.00  0.00     0.006 C 
ENDBRANCH   8  11
ENDBRANCH   7   8
ENDBRANCH   1   7
BRANCH   6  13
ATOM     13  N   LIG d   1       3.661  90.306 117.314  0.00  0.00    -0.311 N 
ATOM     14  C   LIG d   1       4.565  91.279 117.223  0.00  0.00     0.210 C 
ATOM     15  C   LIG d   1       6.015  90.838 117.452  0.00  0.00     0.109 C 
ATOM     16  O   LIG d   1       4.302  92.471 117.007  0.00  0.00    -0.276 OA
ATOM     17  H   LIG d   1       3.959  89.373 117.525  0.00  0.00     0.149 HD
ENDBRANCH   6  13
BRANCH   5  18
ATOM     18  N   LIG d   1       1.936  92.241 118.930  0.00  0.00     0.381 N 
ATOM     19  H   LIG d   1       2.330  92.122 119.841  0.00  0.00    -0.090 HD
ATOM     20  H   LIG d   1       1.144  92.855 119.007  0.00  0.00    -0.090 HD
ATOM     21  H   LIG d   1       2.613  92.637 118.316  0.00  0.00    -0.090 HD
ENDBRANCH   5  18
BRANCH   3  22
ATOM     22  C   LIG d   1      -1.878  89.593 117.752  0.00  0.00     0.382 C 
ATOM     23  O   LIG d   1      -2.161  88.651 118.531  0.00  0.00    -0.241 OA
ATOM     24  O   LIG d   1      -2.794  90.205 117.171  0.00  0.00    -0.241 OA
ENDBRANCH   3  22
TORSDOF 7
ENDMDL
MODEL 3
REMARK VINA RESULT:      -4.7      2.894      4.723
REMARK  7 active torsions:
REMARK  status: ('A' for Active; 'I' for Inactive)
REMARK    1  A    between atoms: C_2  and  C_3 
REMARK    2  A    between atoms: C_3  and  O_6 
REMARK    3  A    between atoms: C_3  and  C_4 
REMARK    4  A    between atoms: C_7  and  O_6 
REMARK    5  A    between atoms: C_9  and  C_10 
REMARK    6  A    between atoms: N_15  and  C_14 
REMARK    7  A    between atoms: N_20  and  C_19 
REMARK       I    between atoms: C_22  and  N_20 
ROOT
ATOM      1  C   LIG d   1       4.840  89.329 115.189  0.00  0.00     0.161 C 
ATOM      2  C   LIG d   1       4.504  90.451 115.964  0.00  0.00     0.016 C 
ATOM      3  C   LIG d   1       3.255  90.607 116.607  0.00  0.00     0.038 C 
ATOM      4  C   LIG d   1       2.305  89.575 116.642  0.00  0.00     0.028 C 
ATOM      5  C   LIG d   1       2.397  88.626 115.452  0.00  0.00    -0.047 C 
ATOM      6  C   LIG d   1       3.859  88.144 115.307  0.00  0.00     0.091 C 
ENDROOT
BRANCH   1   7
ATOM      7  O   LIG d   1       6.181  88.903 115.501  0.00  0.00    -0.368 OA
BRANCH   7   8
ATOM      8  C   LIG d   1       6.439  88.576 116.889  0.00  0.00     0.119 C 
BRANCH   8   9
ATOM      9  C   LIG d   1       7.604  89.465 117.365  0.00  0.00     0.028 C 
ATOM     10  C   LIG d   1       7.190  90.420 118.497  0.00  0.00     0.006 C 
ENDBRANCH   8   9
BRANCH   8  11
ATOM     11  C   LIG d   1       6.939  87.136 117.039  0.00  0.00     0.028 C 
ATOM     12  C   LIG d   1       8.472  87.033 117.015  0.00  0.00     0.006 C 
ENDBRANCH   8  11
ENDBRANCH   7   8
ENDBRANCH   1   7
BRANCH   6  13
ATOM     13  N   LIG d   1       4.054  87.278 114.115  0.00  0.00    -0.311 N 
ATOM     14  C   LIG d   1       3.505  87.529 112.928  0.00  0.00     0.210 C 
ATOM     15  C   LIG d   1       3.818  86.498 111.840  0.00  0.00     0.109 C 
ATOM     16  O   LIG d   1       2.816  88.526 112.665  0.00  0.00    -0.276 OA
ATOM     17  H   LIG d   1       4.625  86.464 114.232  0.00  0.00     0.149 HD
ENDBRANCH   6  13
BRANCH   5  18
ATOM     18  N   LIG d   1       1.445  87.524 115.686  0.00  0.00     0.381 N 
ATOM     19  H   LIG d   1       1.441  87.280 116.656  0.00  0.00    -0.090 HD
ATOM     20  H   LIG d   1       1.742  86.721 115.160  0.00  0.00    -0.090 HD
ATOM     21  H   LIG d   1       0.530  87.798 115.401  0.00  0.00    -0.090 HD
ENDBRANCH   5  18
BRANCH   3  22
ATOM     22  C   LIG d   1       2.929  91.822 117.191  0.00  0.00     0.382 C 
ATOM     23  O   LIG d   1       1.801  91.983 117.716  0.00  0.00    -0.241 OA
ATOM     24  O   LIG d   1       3.732  92.774 117.159  0.00  0.00    -0.241 OA
ENDBRANCH   3  22
TORSDOF 7
ENDMDL
MODEL 4
REMARK VINA RESULT:      -4.6      1.774      2.690
REMARK  7 active torsions:
REMARK  status: ('A' for Active; 'I' for Inactive)
REMARK    1  A    between atoms: C_2  and  C_3 
REMARK    2  A    between atoms: C_3  and  O_6 
REMARK    3  A    between atoms: C_3  and  C_4 
REMARK    4  A    between atoms: C_7  and  O_6 
REMARK    5  A    between atoms: C_9  and  C_10 
REMARK    6  A    between atoms: N_15  and  C_14 
REMARK    7  A    between atoms: N_20  and  C_19 
REMARK       I    between atoms: C_22  and  N_20 
ROOT
ATOM      1  C   LIG d   1       2.619  89.388 115.989  0.00  0.00     0.161 C 
ATOM      2  C   LIG d   1       1.448  90.125 116.231  0.00  0.00     0.016 C 
ATOM      3  C   LIG d   1       1.387  91.220 117.123  0.00  0.00     0.038 C 
ATOM      4  C   LIG d   1       2.539  91.750 117.725  0.00  0.00     0.028 C 
ATOM      5  C   LIG d   1       3.655  90.727 117.903  0.00  0.00    -0.047 C 
ATOM      6  C   LIG d   1       3.909  90.021 116.551  0.00  0.00     0.091 C 
ENDROOT
BRANCH   1   7
ATOM      7  O   LIG d   1       2.757  89.140 114.576  0.00  0.00    -0.368 OA
BRANCH   7   8
ATOM      8  C   LIG d   1       3.209  87.815 114.203  0.00  0.00     0.119 C 
BRANCH   8   9
ATOM      9  C   LIG d   1       2.993  87.663 112.684  0.00  0.00     0.028 C 
ATOM     10  C   LIG d   1       3.956  86.643 112.054  0.00  0.00     0.006 C 
ENDBRANCH   8   9
BRANCH   8  11
ATOM     11  C   LIG d   1       2.342  86.729 114.846  0.00  0.00     0.028 C 
ATOM     12  C   LIG d   1       3.164  85.706 115.646  0.00  0.00     0.006 C 
ENDBRANCH   8  11
ENDBRANCH   7   8
ENDBRANCH   1   7
BRANCH   6  13
ATOM     13  N   LIG d   1       4.929  88.945 116.656  0.00  0.00    -0.311 N 
ATOM     14  C   LIG d   1       6.233  89.152 116.483  0.00  0.00     0.210 C 
ATOM     15  C   LIG d   1       7.109  87.902 116.615  0.00  0.00     0.109 C 
ATOM     16  O   LIG d   1       6.751  90.257 116.263  0.00  0.00    -0.276 OA
ATOM     17  H   LIG d   1       4.599  88.023 116.863  0.00  0.00     0.149 HD
ENDBRANCH   6  13
BRANCH   5  18
ATOM     18  N   LIG d   1       4.840  91.444 118.412  0.00  0.00     0.381 N 
ATOM     19  H   LIG d   1       5.147  92.114 117.736  0.00  0.00    -0.090 HD
ATOM     20  H   LIG d   1       5.581  90.782 118.560  0.00  0.00    -0.090 HD
ATOM     21  H   LIG d   1       4.618  91.902 119.268  0.00  0.00    -0.090 HD
ENDBRANCH   5  18
BRANCH   3  22
ATOM     22  C   LIG d   1       0.159  91.771 117.453  0.00  0.00     0.382 C 
ATOM     23  O   LIG d   1      -0.848  91.032 117.571  0.00  0.00    -0.241 OA
ATOM     24  O   LIG d   1       0.035  93.003 117.590  0.00  0.00    -0.241 OA
ENDBRANCH   3  22
TORSDOF 7
ENDMDL
MODEL 5
REMARK VINA RESULT:      -4.6      2.656      4.894
REMARK  7 active torsions:
REMARK  status: ('A' for Active; 'I' for Inactive)
REMARK    1  A    between atoms: C_2  and  C_3 
REMARK    2  A    between atoms: C_3  and  O_6 
REMARK    3  A    between atoms: C_3  and  C_4 
REMARK    4  A    between atoms: C_7  and  O_6 
REMARK    5  A    between atoms: C_9  and  C_10 
REMARK    6  A    between atoms: N_15  and  C_14 
REMARK    7  A    between atoms: N_20  and  C_19 
REMARK       I    between atoms: C_22  and  N_20 
ROOT
ATOM      1  C   LIG d   1       3.339  87.504 116.232  0.00  0.00     0.161 C 
ATOM      2  C   LIG d   1       3.796  88.287 117.305  0.00  0.00     0.016 C 
ATOM      3  C   LIG d   1       4.494  89.505 117.137  0.00  0.00     0.038 C 
ATOM      4  C   LIG d   1       4.650  90.103 115.878  0.00  0.00     0.028 C 
ATOM      5  C   LIG d   1       4.648  89.101 114.728  0.00  0.00    -0.047 C 
ATOM      6  C   LIG d   1       3.402  88.195 114.853  0.00  0.00     0.091 C 
ENDROOT
BRANCH   1   7
ATOM      7  O   LIG d   1       1.999  87.043 116.499  0.00  0.00    -0.368 OA
BRANCH   7   8
ATOM      8  C   LIG d   1       1.238  87.818 117.457  0.00  0.00     0.119 C 
BRANCH   8   9
ATOM      9  C   LIG d   1       0.457  86.825 118.340  0.00  0.00     0.028 C 
ATOM     10  C   LIG d   1       1.105  85.431 118.369  0.00  0.00     0.006 C 
ENDBRANCH   8   9
BRANCH   8  11
ATOM     11  C   LIG d   1       0.171  88.669 116.763  0.00  0.00     0.028 C 
ATOM     12  C   LIG d   1       0.567  90.150 116.655  0.00  0.00     0.006 C 
ENDBRANCH   8  11
ENDBRANCH   7   8
ENDBRANCH   1   7
BRANCH   6  13
ATOM     13  N   LIG d   1       3.368  87.132 113.815  0.00  0.00    -0.311 N 
ATOM     14  C   LIG d   1       2.830  87.303 112.609  0.00  0.00     0.210 C 
ATOM     15  C   LIG d   1       2.881  86.072 111.698  0.00  0.00     0.109 C 
ATOM     16  O   LIG d   1       2.343  88.366 112.196  0.00  0.00    -0.276 OA
ATOM     17  H   LIG d   1       3.768  86.246 114.056  0.00  0.00     0.149 HD
ENDBRANCH   6  13
BRANCH   5  18
ATOM     18  N   LIG d   1       4.680  89.869 113.468  0.00  0.00     0.381 N 
ATOM     19  H   LIG d   1       5.154  89.341 112.762  0.00  0.00    -0.090 HD
ATOM     20  H   LIG d   1       5.190  90.721 113.620  0.00  0.00    -0.090 HD
ATOM     21  H   LIG d   1       3.752  90.076 113.172  0.00  0.00    -0.090 HD
ENDBRANCH   5  18
BRANCH   3  22
ATOM     22  C   LIG d   1       5.078  90.118 118.235  0.00  0.00     0.382 C 
ATOM     23  O   LIG d   1       4.430  90.960 118.902  0.00  0.00    -0.241 OA
ATOM     24  O   LIG d   1       6.261  89.874 118.539  0.00  0.00    -0.241 OA
ENDBRANCH   3  22
TORSDOF 7
ENDMDL
MODEL 6
REMARK VINA RESULT:      -4.3      2.306      3.269
REMARK  7 active torsions:
REMARK  status: ('A' for Active; 'I' for Inactive)
REMARK    1  A    between atoms: C_2  and  C_3 
REMARK    2  A    between atoms: C_3  and  O_6 
REMARK    3  A    between atoms: C_3  and  C_4 
REMARK    4  A    between atoms: C_7  and  O_6 
REMARK    5  A    between atoms: C_9  and  C_10 
REMARK    6  A    between atoms: N_15  and  C_14 
REMARK    7  A    between atoms: N_20  and  C_19 
REMARK       I    between atoms: C_22  and  N_20 
ROOT
ATOM      1  C   LIG d   1       3.688  87.117 116.399  0.00  0.00     0.161 C 
ATOM      2  C   LIG d   1       2.378  87.604 116.260  0.00  0.00     0.016 C 
ATOM      3  C   LIG d   1       1.944  88.836 116.799  0.00  0.00     0.038 C 
ATOM      4  C   LIG d   1       2.837  89.743 117.389  0.00  0.00     0.028 C 
ATOM      5  C   LIG d   1       4.064  89.074 117.999  0.00  0.00    -0.047 C 
ATOM      6  C   LIG d   1       4.704  88.143 116.944  0.00  0.00     0.091 C 
ENDROOT
BRANCH   1   7
ATOM      7  O   LIG d   1       4.145  86.578 115.143  0.00  0.00    -0.368 OA
BRANCH   7   8
ATOM      8  C   LIG d   1       3.601  87.192 113.949  0.00  0.00     0.119 C 
BRANCH   8   9
ATOM      9  C   LIG d   1       3.276  86.062 112.954  0.00  0.00     0.028 C 
ATOM     10  C   LIG d   1       4.045  86.207 111.630  0.00  0.00     0.006 C 
ENDBRANCH   8   9
BRANCH   8  11
ATOM     11  C   LIG d   1       4.645  88.064 113.246  0.00  0.00     0.028 C 
ATOM     12  C   LIG d   1       4.571  89.540 113.668  0.00  0.00     0.006 C 
ENDBRANCH   8  11
ENDBRANCH   7   8
ENDBRANCH   1   7
BRANCH   6  13
ATOM     13  N   LIG d   1       5.863  87.385 117.484  0.00  0.00    -0.311 N 
ATOM     14  C   LIG d   1       7.093  87.468 116.980  0.00  0.00     0.210 C 
ATOM     15  C   LIG d   1       8.137  86.588 117.674  0.00  0.00     0.109 C 
ATOM     16  O   LIG d   1       7.425  88.211 116.044  0.00  0.00    -0.276 OA
ATOM     17  H   LIG d   1       5.689  86.782 118.264  0.00  0.00     0.149 HD
ENDBRANCH   6  13
BRANCH   5  18
ATOM     18  N   LIG d   1       4.974  90.142 118.455  0.00  0.00     0.381 N 
ATOM     19  H   LIG d   1       5.313  89.930 119.372  0.00  0.00    -0.090 HD
ATOM     20  H   LIG d   1       4.463  91.007 118.499  0.00  0.00    -0.090 HD
ATOM     21  H   LIG d   1       5.738  90.232 117.822  0.00  0.00    -0.090 HD
ENDBRANCH   5  18
BRANCH   3  22
ATOM     22  C   LIG d   1       0.594  89.155 116.786  0.00  0.00     0.382 C 
ATOM     23  O   LIG d   1       0.210  90.235 116.277  0.00  0.00    -0.241 OA
ATOM     24  O   LIG d   1      -0.239  88.396 117.317  0.00  0.00    -0.241 OA
ENDBRANCH   3  22
TORSDOF 7
ENDMDL
MODEL 7
REMARK VINA RESULT:      -4.2      2.159      5.139
REMARK  7 active torsions:
REMARK  status: ('A' for Active; 'I' for Inactive)
REMARK    1  A    between atoms: C_2  and  C_3 
REMARK    2  A    between atoms: C_3  and  O_6 
REMARK    3  A    between atoms: C_3  and  C_4 
REMARK    4  A    between atoms: C_7  and  O_6 
REMARK    5  A    between atoms: C_9  and  C_10 
REMARK    6  A    between atoms: N_15  and  C_14 
REMARK    7  A    between atoms: N_20  and  C_19 
REMARK       I    between atoms: C_22  and  N_20 
ROOT
ATOM      1  C   LIG d   1       2.582  89.479 116.746  0.00  0.00     0.161 C 
ATOM      2  C   LIG d   1       2.334  88.774 115.556  0.00  0.00     0.016 C 
ATOM      3  C   LIG d   1       3.358  88.253 114.733  0.00  0.00     0.038 C 
ATOM      4  C   LIG d   1       4.705  88.270 115.124  0.00  0.00     0.028 C 
ATOM      5  C   LIG d   1       5.046  89.415 116.073  0.00  0.00    -0.047 C 
ATOM      6  C   LIG d   1       4.040  89.411 117.246  0.00  0.00     0.091 C 
ENDROOT
BRANCH   1   7
ATOM      7  O   LIG d   1       1.677  89.032 117.776  0.00  0.00    -0.368 OA
BRANCH   7   8
ATOM      8  C   LIG d   1       0.826  90.048 118.361  0.00  0.00     0.119 C 
BRANCH   8   9
ATOM      9  C   LIG d   1      -0.479  89.359 118.804  0.00  0.00     0.028 C 
ATOM     10  C   LIG d   1      -1.330  88.892 117.611  0.00  0.00     0.006 C 
ENDBRANCH   8   9
BRANCH   8  11
ATOM     11  C   LIG d   1       0.403  91.088 117.320  0.00  0.00     0.028 C 
ATOM     12  C   LIG d   1       0.418  92.523 117.871  0.00  0.00     0.006 C 
ENDBRANCH   8  11
ENDBRANCH   7   8
ENDBRANCH   1   7
BRANCH   6  13
ATOM     13  N   LIG d   1       4.250  90.550 118.177  0.00  0.00    -0.311 N 
ATOM     14  C   LIG d   1       4.095  91.825 117.822  0.00  0.00     0.210 C 
ATOM     15  C   LIG d   1       4.381  92.843 118.930  0.00  0.00     0.109 C 
ATOM     16  O   LIG d   1       3.718  92.207 116.704  0.00  0.00    -0.276 OA
ATOM     17  H   LIG d   1       4.527  90.329 119.113  0.00  0.00     0.149 HD
ENDBRANCH   6  13
BRANCH   5  18
ATOM     18  N   LIG d   1       6.443  89.232 116.508  0.00  0.00     0.381 N 
ATOM     19  H   LIG d   1       6.757  90.050 116.991  0.00  0.00    -0.090 HD
ATOM     20  H   LIG d   1       7.022  89.103 115.697  0.00  0.00    -0.090 HD
ATOM     21  H   LIG d   1       6.513  88.438 117.105  0.00  0.00    -0.090 HD
ENDBRANCH   5  18
BRANCH   3  22
ATOM     22  C   LIG d   1       3.042  87.742 113.483  0.00  0.00     0.382 C 
ATOM     23  O   LIG d   1       2.746  88.520 112.544  0.00  0.00    -0.241 OA
ATOM     24  O   LIG d   1       3.007  86.511 113.294  0.00  0.00    -0.241 OA
ENDBRANCH   3  22
TORSDOF 7
ENDMDL
MODEL 8
REMARK VINA RESULT:      -4.1      2.740      4.558
REMARK  7 active torsions:
REMARK  status: ('A' for Active; 'I' for Inactive)
REMARK    1  A    between atoms: C_2  and  C_3 
REMARK    2  A    between atoms: C_3  and  O_6 
REMARK    3  A    between atoms: C_3  and  C_4 
REMARK    4  A    between atoms: C_7  and  O_6 
REMARK    5  A    between atoms: C_9  and  C_10 
REMARK    6  A    between atoms: N_15  and  C_14 
REMARK    7  A    between atoms: N_20  and  C_19 
REMARK       I    between atoms: C_22  and  N_20 
ROOT
ATOM      1  C   LIG d   1       1.429  91.445 117.339  0.00  0.00     0.161 C 
ATOM      2  C   LIG d   1       0.667  92.515 117.839  0.00  0.00     0.016 C 
ATOM      3  C   LIG d   1      -0.724  92.435 118.079  0.00  0.00     0.038 C 
ATOM      4  C   LIG d   1      -1.425  91.224 117.978  0.00  0.00     0.028 C 
ATOM      5  C   LIG d   1      -0.799  90.242 116.993  0.00  0.00    -0.047 C 
ATOM      6  C   LIG d   1       0.702  90.084 117.328  0.00  0.00     0.091 C 
ENDROOT
BRANCH   1   7
ATOM      7  O   LIG d   1       2.668  91.345 118.068  0.00  0.00    -0.368 OA
BRANCH   7   8
ATOM      8  C   LIG d   1       3.856  91.795 117.371  0.00  0.00     0.119 C 
BRANCH   8   9
ATOM      9  C   LIG d   1       4.778  90.574 117.192  0.00  0.00     0.028 C 
ATOM     10  C   LIG d   1       4.834  90.089 115.734  0.00  0.00     0.006 C 
ENDBRANCH   8   9
BRANCH   8  11
ATOM     11  C   LIG d   1       4.656  92.788 118.218  0.00  0.00     0.028 C 
ATOM     12  C   LIG d   1       5.999  92.215 118.698  0.00  0.00     0.006 C 
ENDBRANCH   8  11
ENDBRANCH   7   8
ENDBRANCH   1   7
BRANCH   6  13
ATOM     13  N   LIG d   1       1.408  89.204 116.361  0.00  0.00    -0.311 N 
ATOM     14  C   LIG d   1       1.546  87.891 116.529  0.00  0.00     0.210 C 
ATOM     15  C   LIG d   1       2.327  87.175 115.423  0.00  0.00     0.109 C 
ATOM     16  O   LIG d   1       1.068  87.245 117.474  0.00  0.00    -0.276 OA
ATOM     17  H   LIG d   1       1.800  89.641 115.549  0.00  0.00     0.149 HD
ENDBRANCH   6  13
BRANCH   5  18
ATOM     18  N   LIG d   1      -1.550  88.976 117.089  0.00  0.00     0.381 N 
ATOM     19  H   LIG d   1      -0.912  88.208 117.151  0.00  0.00    -0.090 HD
ATOM     20  H   LIG d   1      -2.101  88.861 116.257  0.00  0.00    -0.090 HD
ATOM     21  H   LIG d   1      -2.143  88.990 117.889  0.00  0.00    -0.090 HD
ENDBRANCH   5  18
BRANCH   3  22
ATOM     22  C   LIG d   1      -1.435  93.584 118.387  0.00  0.00     0.382 C 
ATOM     23  O   LIG d   1      -2.563  93.497 118.929  0.00  0.00    -0.241 OA
ATOM     24  O   LIG d   1      -0.983  94.706 118.089  0.00  0.00    -0.241 OA
ENDBRANCH   3  22
TORSDOF 7
ENDMDL
MODEL 9
REMARK VINA RESULT:      -4.1      2.974      5.612
REMARK  7 active torsions:
REMARK  status: ('A' for Active; 'I' for Inactive)
REMARK    1  A    between atoms: C_2  and  C_3 
REMARK    2  A    between atoms: C_3  and  O_6 
REMARK    3  A    between atoms: C_3  and  C_4 
REMARK    4  A    between atoms: C_7  and  O_6 
REMARK    5  A    between atoms: C_9  and  C_10 
REMARK    6  A    between atoms: N_15  and  C_14 
REMARK    7  A    between atoms: N_20  and  C_19 
REMARK       I    between atoms: C_22  and  N_20 
ROOT
ATOM      1  C   LIG d   1       4.529  89.632 115.465  0.00  0.00     0.161 C 
ATOM      2  C   LIG d   1       3.996  89.249 114.223  0.00  0.00     0.016 C 
ATOM      3  C   LIG d   1       3.716  87.907 113.876  0.00  0.00     0.038 C 
ATOM      4  C   LIG d   1       3.809  86.865 114.811  0.00  0.00     0.028 C 
ATOM      5  C   LIG d   1       4.821  87.134 115.919  0.00  0.00    -0.047 C 
ATOM      6  C   LIG d   1       4.532  88.521 116.537  0.00  0.00     0.091 C 
ENDROOT
BRANCH   1   7
ATOM      7  O   LIG d   1       3.838  90.798 115.955  0.00  0.00    -0.368 OA
BRANCH   7   8
ATOM      8  C   LIG d   1       2.955  90.589 117.085  0.00  0.00     0.119 C 
BRANCH   8   9
ATOM      9  C   LIG d   1       1.509  90.760 116.581  0.00  0.00     0.028 C 
ATOM     10  C   LIG d   1       0.770  91.904 117.295  0.00  0.00     0.006 C 
ENDBRANCH   8   9
BRANCH   8  11
ATOM     11  C   LIG d   1       3.145  91.675 118.148  0.00  0.00     0.028 C 
ATOM     12  C   LIG d   1       4.441  92.478 117.955  0.00  0.00     0.006 C 
ENDBRANCH   8  11
ENDBRANCH   7   8
ENDBRANCH   1   7
BRANCH   6  13
ATOM     13  N   LIG d   1       5.528  88.899 117.573  0.00  0.00    -0.311 N 
ATOM     14  C   LIG d   1       6.843  88.898 117.361  0.00  0.00     0.210 C 
ATOM     15  C   LIG d   1       7.693  89.301 118.569  0.00  0.00     0.109 C 
ATOM     16  O   LIG d   1       7.384  88.632 116.277  0.00  0.00    -0.276 OA
ATOM     17  H   LIG d   1       5.174  89.159 118.473  0.00  0.00     0.149 HD
ENDBRANCH   6  13
BRANCH   5  18
ATOM     18  N   LIG d   1       4.715  86.033 116.895  0.00  0.00     0.381 N 
ATOM     19  H   LIG d   1       4.924  85.163 116.448  0.00  0.00    -0.090 HD
ATOM     20  H   LIG d   1       3.772  85.993 117.239  0.00  0.00    -0.090 HD
ATOM     21  H   LIG d   1       5.346  86.186 117.651  0.00  0.00    -0.090 HD
ENDBRANCH   5  18
BRANCH   3  22
ATOM     22  C   LIG d   1       3.376  87.592 112.569  0.00  0.00     0.382 C 
ATOM     23  O   LIG d   1       2.221  87.836 112.146  0.00  0.00    -0.241 OA
ATOM     24  O   LIG d   1       4.197  87.026 111.822  0.00  0.00    -0.241 OA
ENDBRANCH   3  22
TORSDOF 7
ENDMDL
