MODEL 1
REMARK VINA RESULT:      -4.4      0.000      0.000
REMARK  7 active torsions:
REMARK  status: ('A' for Active; 'I' for Inactive)
REMARK    1  A    between atoms: C_2  and  C_3 
REMARK    2  A    between atoms: C_3  and  O_6 
REMARK    3  A    between atoms: C_3  and  C_4 
REMARK    4  A    between atoms: C_7  and  O_6 
REMARK    5  A    between atoms: C_9  and  C_10 
REMARK    6  A    between atoms: N_15  and  C_14 
REMARK    7  A    between atoms: N_20  and  C_19 
REMARK       I    between atoms: C_22  and  N_20 
ROOT
ATOM      1  C   LIG d   1       5.161  87.213 115.865  0.00  0.00     0.161 C 
ATOM      2  C   LIG d   1       5.964  87.880 116.805  0.00  0.00     0.016 C 
ATOM      3  C   LIG d   1       6.785  88.985 116.483  0.00  0.00     0.038 C 
ATOM      4  C   LIG d   1       6.744  89.596 115.221  0.00  0.00     0.028 C 
ATOM      5  C   LIG d   1       6.327  88.648 114.101  0.00  0.00    -0.047 C 
ATOM      6  C   LIG d   1       5.018  87.935 114.509  0.00  0.00     0.091 C 
ENDROOT
BRANCH   1   7
ATOM      7  O   LIG d   1       3.862  86.949 116.432  0.00  0.00    -0.368 OA
BRANCH   7   8
ATOM      8  C   LIG d   1       2.919  88.048 116.403  0.00  0.00     0.119 C 
BRANCH   8   9
ATOM      9  C   LIG d   1       2.540  88.372 117.861  0.00  0.00     0.028 C 
ATOM     10  C   LIG d   1       2.849  87.210 118.819  0.00  0.00     0.006 C 
ENDBRANCH   8   9
BRANCH   8  11
ATOM     11  C   LIG d   1       1.607  87.640 115.725  0.00  0.00     0.028 C 
ATOM     12  C   LIG d   1       1.518  86.128 115.463  0.00  0.00     0.006 C 
ENDBRANCH   8  11
ENDBRANCH   7   8
ENDBRANCH   1   7
BRANCH   6  13
ATOM     13  N   LIG d   1       4.585  86.927 113.506  0.00  0.00    -0.311 N 
ATOM     14  C   LIG d   1       3.765  87.205 112.494  0.00  0.00     0.210 C 
ATOM     15  C   LIG d   1       3.431  86.016 111.588  0.00  0.00     0.109 C 
ATOM     16  O   LIG d   1       3.309  88.330 112.242  0.00  0.00    -0.276 OA
ATOM     17  H   LIG d   1       4.934  85.995 113.617  0.00  0.00     0.149 HD
ENDBRANCH   6  13
BRANCH   5  18
ATOM     18  N   LIG d   1       6.192  89.446 112.868  0.00  0.00     0.381 N 
ATOM     19  H   LIG d   1       6.979  89.284 112.272  0.00  0.00    -0.090 HD
ATOM     20  H   LIG d   1       6.176  90.421 113.112  0.00  0.00    -0.090 HD
ATOM     21  H   LIG d   1       5.351  89.201 112.394  0.00  0.00    -0.090 HD
ENDBRANCH   5  18
BRANCH   3  22
ATOM     22  C   LIG d   1       7.690  89.464 117.417  0.00  0.00     0.382 C 
ATOM     23  O   LIG d   1       8.795  89.925 117.041  0.00  0.00    -0.241 OA
ATOM     24  O   LIG d   1       7.435  89.401 118.635  0.00  0.00    -0.241 OA
ENDBRANCH   3  22
TORSDOF 7
ENDMDL
MODEL 2
REMARK VINA RESULT:      -3.8      3.214      5.037
REMARK  7 active torsions:
REMARK  status: ('A' for Active; 'I' for Inactive)
REMARK    1  A    between atoms: C_2  and  C_3 
REMARK    2  A    between atoms: C_3  and  O_6 
REMARK    3  A    between atoms: C_3  and  C_4 
REMARK    4  A    between atoms: C_7  and  O_6 
REMARK    5  A    between atoms: C_9  and  C_10 
REMARK    6  A    between atoms: N_15  and  C_14 
REMARK    7  A    between atoms: N_20  and  C_19 
REMARK       I    between atoms: C_22  and  N_20 
ROOT
ATOM      1  C   LIG d   1       4.788  89.881 116.794  0.00  0.00     0.161 C 
ATOM      2  C   LIG d   1       5.432  91.071 117.172  0.00  0.00     0.016 C 
ATOM      3  C   LIG d   1       4.829  92.059 117.983  0.00  0.00     0.038 C 
ATOM      4  C   LIG d   1       3.586  91.853 118.601  0.00  0.00     0.028 C 
ATOM      5  C   LIG d   1       2.685  90.885 117.842  0.00  0.00    -0.047 C 
ATOM      6  C   LIG d   1       3.475  89.589 117.550  0.00  0.00     0.091 C 
ENDROOT
BRANCH   1   7
ATOM      7  O   LIG d   1       5.698  88.771 116.923  0.00  0.00    -0.368 OA
BRANCH   7   8
ATOM      8  C   LIG d   1       6.595  88.549 115.807  0.00  0.00     0.119 C 
BRANCH   8   9
ATOM      9  C   LIG d   1       5.733  88.432 114.536  0.00  0.00     0.028 C 
ATOM     10  C   LIG d   1       6.302  89.248 113.363  0.00  0.00     0.006 C 
ENDBRANCH   8   9
BRANCH   8  11
ATOM     11  C   LIG d   1       7.319  87.205 115.932  0.00  0.00     0.028 C 
ATOM     12  C   LIG d   1       8.626  87.304 116.734  0.00  0.00     0.006 C 
ENDBRANCH   8  11
ENDBRANCH   7   8
ENDBRANCH   1   7
BRANCH   6  13
ATOM     13  N   LIG d   1       2.694  88.620 116.736  0.00  0.00    -0.311 N 
ATOM     14  C   LIG d   1       2.600  87.325 117.029  0.00  0.00     0.210 C 
ATOM     15  C   LIG d   1       1.762  86.499 116.048  0.00  0.00     0.109 C 
ATOM     16  O   LIG d   1       3.105  86.786 118.026  0.00  0.00    -0.276 OA
ATOM     17  H   LIG d   1       2.226  88.978 115.926  0.00  0.00     0.149 HD
ENDBRANCH   6  13
BRANCH   5  18
ATOM     18  N   LIG d   1       1.483  90.656 118.666  0.00  0.00     0.381 N 
ATOM     19  H   LIG d   1       1.583  89.804 119.181  0.00  0.00    -0.090 HD
ATOM     20  H   LIG d   1       0.686  90.567 118.060  0.00  0.00    -0.090 HD
ATOM     21  H   LIG d   1       1.349  91.418 119.293  0.00  0.00    -0.090 HD
ENDBRANCH   5  18
BRANCH   3  22
ATOM     22  C   LIG d   1       5.453  93.286 118.151  0.00  0.00     0.382 C 
ATOM     23  O   LIG d   1       5.010  94.300 117.561  0.00  0.00    -0.241 OA
ATOM     24  O   LIG d   1       6.479  93.382 118.850  0.00  0.00    -0.241 OA
ENDBRANCH   3  22
TORSDOF 7
ENDMDL
MODEL 3
REMARK VINA RESULT:      -3.8      3.099      4.844
REMARK  7 active torsions:
REMARK  status: ('A' for Active; 'I' for Inactive)
REMARK    1  A    between atoms: C_2  and  C_3 
REMARK    2  A    between atoms: C_3  and  O_6 
REMARK    3  A    between atoms: C_3  and  C_4 
REMARK    4  A    between atoms: C_7  and  O_6 
REMARK    5  A    between atoms: C_9  and  C_10 
REMARK    6  A    between atoms: N_15  and  C_14 
REMARK    7  A    between atoms: N_20  and  C_19 
REMARK       I    between atoms: C_22  and  N_20 
ROOT
ATOM      1  C   LIG d   1       5.551  88.460 117.438  0.00  0.00     0.161 C 
ATOM      2  C   LIG d   1       4.720  89.588 117.332  0.00  0.00     0.016 C 
ATOM      3  C   LIG d   1       5.190  90.915 117.458  0.00  0.00     0.038 C 
ATOM      4  C   LIG d   1       6.559  91.212 117.549  0.00  0.00     0.028 C 
ATOM      5  C   LIG d   1       7.383  90.086 118.165  0.00  0.00    -0.047 C 
ATOM      6  C   LIG d   1       7.063  88.767 117.426  0.00  0.00     0.091 C 
ENDROOT
BRANCH   1   7
ATOM      7  O   LIG d   1       5.224  87.513 116.402  0.00  0.00    -0.368 OA
BRANCH   7   8
ATOM      8  C   LIG d   1       4.699  88.071 115.171  0.00  0.00     0.119 C 
BRANCH   8   9
ATOM      9  C   LIG d   1       3.681  87.063 114.604  0.00  0.00     0.028 C 
ATOM     10  C   LIG d   1       3.661  87.052 113.066  0.00  0.00     0.006 C 
ENDBRANCH   8   9
BRANCH   8  11
ATOM     11  C   LIG d   1       5.791  88.189 114.104  0.00  0.00     0.028 C 
ATOM     12  C   LIG d   1       6.290  89.631 113.919  0.00  0.00     0.006 C 
ENDBRANCH   8  11
ENDBRANCH   7   8
ENDBRANCH   1   7
BRANCH   6  13
ATOM     13  N   LIG d   1       7.764  87.600 118.021  0.00  0.00    -0.311 N 
ATOM     14  C   LIG d   1       8.410  86.686 117.298  0.00  0.00     0.210 C 
ATOM     15  C   LIG d   1       9.047  85.553 118.109  0.00  0.00     0.109 C 
ATOM     16  O   LIG d   1       8.544  86.724 116.066  0.00  0.00    -0.276 OA
ATOM     17  H   LIG d   1       7.732  87.508 119.017  0.00  0.00     0.149 HD
ENDBRANCH   6  13
BRANCH   5  18
ATOM     18  N   LIG d   1       8.803  90.472 118.072  0.00  0.00     0.381 N 
ATOM     19  H   LIG d   1       8.926  91.400 118.425  0.00  0.00    -0.090 HD
ATOM     20  H   LIG d   1       9.080  90.462 117.106  0.00  0.00    -0.090 HD
ATOM     21  H   LIG d   1       9.365  89.834 118.592  0.00  0.00    -0.090 HD
ENDBRANCH   5  18
BRANCH   3  22
ATOM     22  C   LIG d   1       4.284  91.962 117.534  0.00  0.00     0.382 C 
ATOM     23  O   LIG d   1       4.654  93.132 117.276  0.00  0.00    -0.241 OA
ATOM     24  O   LIG d   1       3.111  91.756 117.901  0.00  0.00    -0.241 OA
ENDBRANCH   3  22
TORSDOF 7
ENDMDL
MODEL 4
REMARK VINA RESULT:      -3.3      3.137      5.627
REMARK  7 active torsions:
REMARK  status: ('A' for Active; 'I' for Inactive)
REMARK    1  A    between atoms: C_2  and  C_3 
REMARK    2  A    between atoms: C_3  and  O_6 
REMARK    3  A    between atoms: C_3  and  C_4 
REMARK    4  A    between atoms: C_7  and  O_6 
REMARK    5  A    between atoms: C_9  and  C_10 
REMARK    6  A    between atoms: N_15  and  C_14 
REMARK    7  A    between atoms: N_20  and  C_19 
REMARK       I    between atoms: C_22  and  N_20 
ROOT
ATOM      1  C   LIG d   1       4.912  88.991 118.120  0.00  0.00     0.161 C 
ATOM      2  C   LIG d   1       3.561  89.376 118.091  0.00  0.00     0.016 C 
ATOM      3  C   LIG d   1       3.136  90.724 118.104  0.00  0.00     0.038 C 
ATOM      4  C   LIG d   1       4.043  91.789 117.995  0.00  0.00     0.028 C 
ATOM      5  C   LIG d   1       5.432  91.459 118.531  0.00  0.00    -0.047 C 
ATOM      6  C   LIG d   1       5.917  90.139 117.889  0.00  0.00     0.091 C 
ENDROOT
BRANCH   1   7
ATOM      7  O   LIG d   1       5.138  87.929 117.173  0.00  0.00    -0.368 OA
BRANCH   7   8
ATOM      8  C   LIG d   1       4.865  88.244 115.785  0.00  0.00     0.119 C 
BRANCH   8   9
ATOM      9  C   LIG d   1       3.972  87.121 115.223  0.00  0.00     0.028 C 
ATOM     10  C   LIG d   1       3.926  87.122 113.686  0.00  0.00     0.006 C 
ENDBRANCH   8   9
BRANCH   8  11
ATOM     11  C   LIG d   1       6.144  88.205 114.943  0.00  0.00     0.028 C 
ATOM     12  C   LIG d   1       7.211  87.263 115.523  0.00  0.00     0.006 C 
ENDBRANCH   8  11
ENDBRANCH   7   8
ENDBRANCH   1   7
BRANCH   6  13
ATOM     13  N   LIG d   1       7.232  89.699 118.423  0.00  0.00    -0.311 N 
ATOM     14  C   LIG d   1       8.393  89.979 117.833  0.00  0.00     0.210 C 
ATOM     15  C   LIG d   1       9.630  89.413 118.538  0.00  0.00     0.109 C 
ATOM     16  O   LIG d   1       8.519  90.669 116.811  0.00  0.00    -0.276 OA
ATOM     17  H   LIG d   1       7.225  89.159 119.266  0.00  0.00     0.149 HD
ENDBRANCH   6  13
BRANCH   5  18
ATOM     18  N   LIG d   1       6.310  92.605 118.230  0.00  0.00     0.381 N 
ATOM     19  H   LIG d   1       5.767  93.360 117.862  0.00  0.00    -0.090 HD
ATOM     20  H   LIG d   1       6.979  92.328 117.533  0.00  0.00    -0.090 HD
ATOM     21  H   LIG d   1       6.783  92.898 119.056  0.00  0.00    -0.090 HD
ENDBRANCH   5  18
BRANCH   3  22
ATOM     22  C   LIG d   1       1.791  91.019 118.268  0.00  0.00     0.382 C 
ATOM     23  O   LIG d   1       0.921  90.302 117.718  0.00  0.00    -0.241 OA
ATOM     24  O   LIG d   1       1.439  92.019 118.922  0.00  0.00    -0.241 OA
ENDBRANCH   3  22
TORSDOF 7
ENDMDL
MODEL 5
REMARK VINA RESULT:      -3.2      2.757      4.715
REMARK  7 active torsions:
REMARK  status: ('A' for Active; 'I' for Inactive)
REMARK    1  A    between atoms: C_2  and  C_3 
REMARK    2  A    between atoms: C_3  and  O_6 
REMARK    3  A    between atoms: C_3  and  C_4 
REMARK    4  A    between atoms: C_7  and  O_6 
REMARK    5  A    between atoms: C_9  and  C_10 
REMARK    6  A    between atoms: N_15  and  C_14 
REMARK    7  A    between atoms: N_20  and  C_19 
REMARK       I    between atoms: C_22  and  N_20 
ROOT
ATOM      1  C   LIG d   1       5.173  88.765 116.182  0.00  0.00     0.161 C 
ATOM      2  C   LIG d   1       4.012  89.326 116.741  0.00  0.00     0.016 C 
ATOM      3  C   LIG d   1       4.021  90.477 117.561  0.00  0.00     0.038 C 
ATOM      4  C   LIG d   1       5.183  91.240 117.756  0.00  0.00     0.028 C 
ATOM      5  C   LIG d   1       6.468  90.430 117.625  0.00  0.00    -0.047 C 
ATOM      6  C   LIG d   1       6.434  89.647 116.292  0.00  0.00     0.091 C 
ENDROOT
BRANCH   1   7
ATOM      7  O   LIG d   1       4.930  88.408 114.807  0.00  0.00    -0.368 OA
BRANCH   7   8
ATOM      8  C   LIG d   1       4.847  86.990 114.522  0.00  0.00     0.119 C 
BRANCH   8   9
ATOM      9  C   LIG d   1       3.505  86.739 113.807  0.00  0.00     0.028 C 
ATOM     10  C   LIG d   1       3.541  87.156 112.328  0.00  0.00     0.006 C 
ENDBRANCH   8   9
BRANCH   8  11
ATOM     11  C   LIG d   1       4.780  86.165 115.811  0.00  0.00     0.028 C 
ATOM     12  C   LIG d   1       3.440  85.432 115.981  0.00  0.00     0.006 C 
ENDBRANCH   8  11
ENDBRANCH   7   8
ENDBRANCH   1   7
BRANCH   6  13
ATOM     13  N   LIG d   1       7.617  88.763 116.125  0.00  0.00    -0.311 N 
ATOM     14  C   LIG d   1       7.959  87.821 117.003  0.00  0.00     0.210 C 
ATOM     15  C   LIG d   1       9.225  87.035 116.647  0.00  0.00     0.109 C 
ATOM     16  O   LIG d   1       7.317  87.541 118.026  0.00  0.00    -0.276 OA
ATOM     17  H   LIG d   1       8.177  88.900 115.306  0.00  0.00     0.149 HD
ENDBRANCH   6  13
BRANCH   5  18
ATOM     18  N   LIG d   1       7.600  91.372 117.714  0.00  0.00     0.381 N 
ATOM     19  H   LIG d   1       8.463  90.870 117.657  0.00  0.00    -0.090 HD
ATOM     20  H   LIG d   1       7.564  91.839 118.602  0.00  0.00    -0.090 HD
ATOM     21  H   LIG d   1       7.546  92.039 116.976  0.00  0.00    -0.090 HD
ENDBRANCH   5  18
BRANCH   3  22
ATOM     22  C   LIG d   1       2.866  90.855 118.229  0.00  0.00     0.382 C 
ATOM     23  O   LIG d   1       2.466  92.042 118.168  0.00  0.00    -0.241 OA
ATOM     24  O   LIG d   1       2.244  90.033 118.928  0.00  0.00    -0.241 OA
ENDBRANCH   3  22
TORSDOF 7
ENDMDL
MODEL 6
REMARK VINA RESULT:      -3.2      3.337      5.407
REMARK  7 active torsions:
REMARK  status: ('A' for Active; 'I' for Inactive)
REMARK    1  A    between atoms: C_2  and  C_3 
REMARK    2  A    between atoms: C_3  and  O_6 
REMARK    3  A    between atoms: C_3  and  C_4 
REMARK    4  A    between atoms: C_7  and  O_6 
REMARK    5  A    between atoms: C_9  and  C_10 
REMARK    6  A    between atoms: N_15  and  C_14 
REMARK    7  A    between atoms: N_20  and  C_19 
REMARK       I    between atoms: C_22  and  N_20 
ROOT
ATOM      1  C   LIG d   1       2.887  88.914 117.527  0.00  0.00     0.161 C 
ATOM      2  C   LIG d   1       1.690  89.649 117.529  0.00  0.00     0.016 C 
ATOM      3  C   LIG d   1       1.622  91.026 117.842  0.00  0.00     0.038 C 
ATOM      4  C   LIG d   1       2.776  91.801 118.029  0.00  0.00     0.028 C 
ATOM      5  C   LIG d   1       3.970  90.999 118.534  0.00  0.00    -0.047 C 
ATOM      6  C   LIG d   1       4.169  89.768 117.620  0.00  0.00     0.091 C 
ENDROOT
BRANCH   1   7
ATOM      7  O   LIG d   1       2.936  88.062 116.366  0.00  0.00    -0.368 OA
BRANCH   7   8
ATOM      8  C   LIG d   1       3.097  86.645 116.623  0.00  0.00     0.119 C 
BRANCH   8   9
ATOM      9  C   LIG d   1       4.362  86.180 115.876  0.00  0.00     0.028 C 
ATOM     10  C   LIG d   1       4.773  87.152 114.756  0.00  0.00     0.006 C 
ENDBRANCH   8   9
BRANCH   8  11
ATOM     11  C   LIG d   1       1.948  85.834 116.016  0.00  0.00     0.028 C 
ATOM     12  C   LIG d   1       1.055  86.671 115.085  0.00  0.00     0.006 C 
ENDBRANCH   8  11
ENDBRANCH   7   8
ENDBRANCH   1   7
BRANCH   6  13
ATOM     13  N   LIG d   1       5.266  88.882 118.093  0.00  0.00    -0.311 N 
ATOM     14  C   LIG d   1       6.497  88.905 117.585  0.00  0.00     0.210 C 
ATOM     15  C   LIG d   1       7.469  87.895 118.203  0.00  0.00     0.109 C 
ATOM     16  O   LIG d   1       6.884  89.686 116.704  0.00  0.00    -0.276 OA
ATOM     17  H   LIG d   1       5.047  88.238 118.828  0.00  0.00     0.149 HD
ENDBRANCH   6  13
BRANCH   5  18
ATOM     18  N   LIG d   1       5.138  91.900 118.552  0.00  0.00     0.381 N 
ATOM     19  H   LIG d   1       5.971  91.378 118.371  0.00  0.00    -0.090 HD
ATOM     20  H   LIG d   1       5.216  92.312 119.466  0.00  0.00    -0.090 HD
ATOM     21  H   LIG d   1       5.028  92.614 117.866  0.00  0.00    -0.090 HD
ENDBRANCH   5  18
BRANCH   3  22
ATOM     22  C   LIG d   1       0.386  91.633 118.010  0.00  0.00     0.382 C 
ATOM     23  O   LIG d   1       0.047  92.582 117.263  0.00  0.00    -0.241 OA
ATOM     24  O   LIG d   1      -0.375  91.272 118.928  0.00  0.00    -0.241 OA
ENDBRANCH   3  22
TORSDOF 7
ENDMDL
MODEL 7
REMARK VINA RESULT:      -2.8      2.974      4.806
REMARK  7 active torsions:
REMARK  status: ('A' for Active; 'I' for Inactive)
REMARK    1  A    between atoms: C_2  and  C_3 
REMARK    2  A    between atoms: C_3  and  O_6 
REMARK    3  A    between atoms: C_3  and  C_4 
REMARK    4  A    between atoms: C_7  and  O_6 
REMARK    5  A    between atoms: C_9  and  C_10 
REMARK    6  A    between atoms: N_15  and  C_14 
REMARK    7  A    between atoms: N_20  and  C_19 
REMARK       I    between atoms: C_22  and  N_20 
ROOT
ATOM      1  C   LIG d   1       5.833  89.200 117.816  0.00  0.00     0.161 C 
ATOM      2  C   LIG d   1       6.103  90.573 117.943  0.00  0.00     0.016 C 
ATOM      3  C   LIG d   1       5.095  91.556 118.075  0.00  0.00     0.038 C 
ATOM      4  C   LIG d   1       3.745  91.215 118.241  0.00  0.00     0.028 C 
ATOM      5  C   LIG d   1       3.377  89.874 117.613  0.00  0.00    -0.047 C 
ATOM      6  C   LIG d   1       4.371  88.799 118.107  0.00  0.00     0.091 C 
ENDROOT
BRANCH   1   7
ATOM      7  O   LIG d   1       6.735  88.445 118.650  0.00  0.00    -0.368 OA
BRANCH   7   8
ATOM      8  C   LIG d   1       7.647  87.557 117.960  0.00  0.00     0.119 C 
BRANCH   8   9
ATOM      9  C   LIG d   1       9.070  87.873 118.461  0.00  0.00     0.028 C 
ATOM     10  C   LIG d   1       9.632  89.169 117.853  0.00  0.00     0.006 C 
ENDBRANCH   8   9
BRANCH   8  11
ATOM     11  C   LIG d   1       7.675  87.844 116.456  0.00  0.00     0.028 C 
ATOM     12  C   LIG d   1       7.709  86.565 115.605  0.00  0.00     0.006 C 
ENDBRANCH   8  11
ENDBRANCH   7   8
ENDBRANCH   1   7
BRANCH   6  13
ATOM     13  N   LIG d   1       4.134  87.475 117.475  0.00  0.00    -0.311 N 
ATOM     14  C   LIG d   1       4.062  87.293 116.158  0.00  0.00     0.210 C 
ATOM     15  C   LIG d   1       3.791  85.851 115.718  0.00  0.00     0.109 C 
ATOM     16  O   LIG d   1       4.229  88.184 115.311  0.00  0.00    -0.276 OA
ATOM     17  H   LIG d   1       4.019  86.692 118.088  0.00  0.00     0.149 HD
ENDBRANCH   6  13
BRANCH   5  18
ATOM     18  N   LIG d   1       1.978  89.580 117.979  0.00  0.00     0.381 N 
ATOM     19  H   LIG d   1       1.385  89.714 117.185  0.00  0.00    -0.090 HD
ATOM     20  H   LIG d   1       1.690  90.218 118.700  0.00  0.00    -0.090 HD
ATOM     21  H   LIG d   1       1.902  88.642 118.306  0.00  0.00    -0.090 HD
ENDBRANCH   5  18
BRANCH   3  22
ATOM     22  C   LIG d   1       5.431  92.899 118.001  0.00  0.00     0.382 C 
ATOM     23  O   LIG d   1       4.760  93.674 117.277  0.00  0.00    -0.241 OA
ATOM     24  O   LIG d   1       6.424  93.336 118.613  0.00  0.00    -0.241 OA
ENDBRANCH   3  22
TORSDOF 7
ENDMDL
MODEL 8
REMARK VINA RESULT:      -2.6      3.087      4.360
REMARK  7 active torsions:
REMARK  status: ('A' for Active; 'I' for Inactive)
REMARK    1  A    between atoms: C_2  and  C_3 
REMARK    2  A    between atoms: C_3  and  O_6 
REMARK    3  A    between atoms: C_3  and  C_4 
REMARK    4  A    between atoms: C_7  and  O_6 
REMARK    5  A    between atoms: C_9  and  C_10 
REMARK    6  A    between atoms: N_15  and  C_14 
REMARK    7  A    between atoms: N_20  and  C_19 
REMARK       I    between atoms: C_22  and  N_20 
ROOT
ATOM      1  C   LIG d   1       5.420  88.549 117.328  0.00  0.00     0.161 C 
ATOM      2  C   LIG d   1       4.667  89.735 117.346  0.00  0.00     0.016 C 
ATOM      3  C   LIG d   1       5.238  91.017 117.516  0.00  0.00     0.038 C 
ATOM      4  C   LIG d   1       6.627  91.215 117.528  0.00  0.00     0.028 C 
ATOM      5  C   LIG d   1       7.407  90.000 118.019  0.00  0.00    -0.047 C 
ATOM      6  C   LIG d   1       6.946  88.754 117.228  0.00  0.00     0.091 C 
ENDROOT
BRANCH   1   7
ATOM      7  O   LIG d   1       4.959  87.694 116.264  0.00  0.00    -0.368 OA
BRANCH   7   8
ATOM      8  C   LIG d   1       3.821  86.852 116.571  0.00  0.00     0.119 C 
BRANCH   8   9
ATOM      9  C   LIG d   1       2.549  87.687 116.329  0.00  0.00     0.028 C 
ATOM     10  C   LIG d   1       1.470  86.904 115.561  0.00  0.00     0.006 C 
ENDBRANCH   8   9
BRANCH   8  11
ATOM     11  C   LIG d   1       3.787  86.481 118.057  0.00  0.00     0.028 C 
ATOM     12  C   LIG d   1       4.843  85.431 118.433  0.00  0.00     0.006 C 
ENDBRANCH   8  11
ENDBRANCH   7   8
ENDBRANCH   1   7
BRANCH   6  13
ATOM     13  N   LIG d   1       7.600  87.507 117.704  0.00  0.00    -0.311 N 
ATOM     14  C   LIG d   1       8.248  86.667 116.900  0.00  0.00     0.210 C 
ATOM     15  C   LIG d   1       8.831  85.430 117.592  0.00  0.00     0.109 C 
ATOM     16  O   LIG d   1       8.424  86.843 115.686  0.00  0.00    -0.276 OA
ATOM     17  H   LIG d   1       7.533  87.302 118.682  0.00  0.00     0.149 HD
ENDBRANCH   6  13
BRANCH   5  18
ATOM     18  N   LIG d   1       8.842  90.294 117.850  0.00  0.00     0.381 N 
ATOM     19  H   LIG d   1       9.007  90.663 116.934  0.00  0.00    -0.090 HD
ATOM     20  H   LIG d   1       9.363  89.440 117.944  0.00  0.00    -0.090 HD
ATOM     21  H   LIG d   1       9.140  90.951 118.538  0.00  0.00    -0.090 HD
ENDBRANCH   5  18
BRANCH   3  22
ATOM     22  C   LIG d   1       4.415  92.115 117.716  0.00  0.00     0.382 C 
ATOM     23  O   LIG d   1       4.696  93.215 117.182  0.00  0.00    -0.241 OA
ATOM     24  O   LIG d   1       3.419  92.031 118.459  0.00  0.00    -0.241 OA
ENDBRANCH   3  22
TORSDOF 7
ENDMDL
MODEL 9
REMARK VINA RESULT:      -2.1      3.260      5.264
REMARK  7 active torsions:
REMARK  status: ('A' for Active; 'I' for Inactive)
REMARK    1  A    between atoms: C_2  and  C_3 
REMARK    2  A    between atoms: C_3  and  O_6 
REMARK    3  A    between atoms: C_3  and  C_4 
REMARK    4  A    between atoms: C_7  and  O_6 
REMARK    5  A    between atoms: C_9  and  C_10 
REMARK    6  A    between atoms: N_15  and  C_14 
REMARK    7  A    between atoms: N_20  and  C_19 
REMARK       I    between atoms: C_22  and  N_20 
ROOT
ATOM      1  C   LIG d   1       6.013  89.522 117.807  0.00  0.00     0.161 C 
ATOM      2  C   LIG d   1       5.774  88.362 117.050  0.00  0.00     0.016 C 
ATOM      3  C   LIG d   1       6.757  87.374 116.809  0.00  0.00     0.038 C 
ATOM      4  C   LIG d   1       8.010  87.406 117.440  0.00  0.00     0.028 C 
ATOM      5  C   LIG d   1       8.468  88.813 117.808  0.00  0.00    -0.047 C 
ATOM      6  C   LIG d   1       7.339  89.518 118.594  0.00  0.00     0.091 C 
ENDROOT
BRANCH   1   7
ATOM      7  O   LIG d   1       4.903  89.762 118.695  0.00  0.00    -0.368 OA
BRANCH   7   8
ATOM      8  C   LIG d   1       3.606  89.913 118.068  0.00  0.00     0.119 C 
BRANCH   8   9
ATOM      9  C   LIG d   1       2.786  90.893 118.930  0.00  0.00     0.028 C 
ATOM     10  C   LIG d   1       1.609  91.511 118.157  0.00  0.00     0.006 C 
ENDBRANCH   8   9
BRANCH   8  11
ATOM     11  C   LIG d   1       2.820  88.599 118.089  0.00  0.00     0.028 C 
ATOM     12  C   LIG d   1       2.395  88.135 116.687  0.00  0.00     0.006 C 
ENDBRANCH   8  11
ENDBRANCH   7   8
ENDBRANCH   1   7
BRANCH   6  13
ATOM     13  N   LIG d   1       7.672  90.930 118.920  0.00  0.00    -0.311 N 
ATOM     14  C   LIG d   1       8.364  91.726 118.107  0.00  0.00     0.210 C 
ATOM     15  C   LIG d   1       8.615  93.139 118.645  0.00  0.00     0.109 C 
ATOM     16  O   LIG d   1       8.767  91.407 116.978  0.00  0.00    -0.276 OA
ATOM     17  H   LIG d   1       7.358  91.280 119.804  0.00  0.00     0.149 HD
ENDBRANCH   6  13
BRANCH   5  18
ATOM     18  N   LIG d   1       9.719  88.687 118.579  0.00  0.00     0.381 N 
ATOM     19  H   LIG d   1       9.617  89.139 119.466  0.00  0.00    -0.090 HD
ATOM     20  H   LIG d   1      10.458  89.144 118.075  0.00  0.00    -0.090 HD
ATOM     21  H   LIG d   1       9.942  87.725 118.711  0.00  0.00    -0.090 HD
ENDBRANCH   5  18
BRANCH   3  22
ATOM     22  C   LIG d   1       6.504  86.361 115.897  0.00  0.00     0.382 C 
ATOM     23  O   LIG d   1       7.416  85.561 115.580  0.00  0.00    -0.241 OA
ATOM     24  O   LIG d   1       5.387  86.264 115.355  0.00  0.00    -0.241 OA
ENDBRANCH   3  22
TORSDOF 7
ENDMDL
