MODEL 1
REMARK VINA RESULT:      -4.8      0.000      0.000
REMARK  7 active torsions:
REMARK  status: ('A' for Active; 'I' for Inactive)
REMARK    1  A    between atoms: C_2  and  C_3 
REMARK    2  A    between atoms: C_3  and  O_6 
REMARK    3  A    between atoms: C_3  and  C_4 
REMARK    4  A    between atoms: C_7  and  O_6 
REMARK    5  A    between atoms: C_9  and  C_10 
REMARK    6  A    between atoms: N_15  and  C_14 
REMARK    7  A    between atoms: N_20  and  C_19 
REMARK       I    between atoms: C_22  and  N_20 
ROOT
ATOM      1  C   LIG d   1      -4.850  90.670 116.670  0.00  0.00     0.161 C 
ATOM      2  C   LIG d   1      -4.177  89.634 116.002  0.00  0.00     0.016 C 
ATOM      3  C   LIG d   1      -4.753  88.881 114.953  0.00  0.00     0.038 C 
ATOM      4  C   LIG d   1      -5.995  89.216 114.395  0.00  0.00     0.028 C 
ATOM      5  C   LIG d   1      -6.923  89.933 115.370  0.00  0.00    -0.047 C 
ATOM      6  C   LIG d   1      -6.165  91.123 116.001  0.00  0.00     0.091 C 
ENDROOT
BRANCH   1   7
ATOM      7  O   LIG d   1      -3.965  91.794 116.846  0.00  0.00    -0.368 OA
BRANCH   7   8
ATOM      8  C   LIG d   1      -3.331  91.908 118.144  0.00  0.00     0.119 C 
BRANCH   8   9
ATOM      9  C   LIG d   1      -3.929  93.145 118.843  0.00  0.00     0.028 C 
ATOM     10  C   LIG d   1      -3.242  94.452 118.412  0.00  0.00     0.006 C 
ENDBRANCH   8   9
BRANCH   8  11
ATOM     11  C   LIG d   1      -1.834  92.202 118.010  0.00  0.00     0.028 C 
ATOM     12  C   LIG d   1      -1.050  91.030 117.400  0.00  0.00     0.006 C 
ENDBRANCH   8  11
ENDBRANCH   7   8
ENDBRANCH   1   7
BRANCH   6  13
ATOM     13  N   LIG d   1      -6.973  91.829 117.030  0.00  0.00    -0.311 N 
ATOM     14  C   LIG d   1      -7.095  93.154 117.084  0.00  0.00     0.210 C 
ATOM     15  C   LIG d   1      -7.958  93.677 118.237  0.00  0.00     0.109 C 
ATOM     16  O   LIG d   1      -6.596  93.944 116.269  0.00  0.00    -0.276 OA
ATOM     17  H   LIG d   1      -7.437  91.262 117.712  0.00  0.00     0.149 HD
ENDBRANCH   6  13
BRANCH   5  18
ATOM     18  N   LIG d   1      -8.125  90.345 114.621  0.00  0.00     0.381 N 
ATOM     19  H   LIG d   1      -8.425  89.599 114.025  0.00  0.00    -0.090 HD
ATOM     20  H   LIG d   1      -7.894  91.135 114.044  0.00  0.00    -0.090 HD
ATOM     21  H   LIG d   1      -8.855  90.588 115.254  0.00  0.00    -0.090 HD
ENDBRANCH   5  18
BRANCH   3  22
ATOM     22  C   LIG d   1      -4.100  87.754 114.478  0.00  0.00     0.382 C 
ATOM     23  O   LIG d   1      -4.231  87.412 113.278  0.00  0.00    -0.241 OA
ATOM     24  O   LIG d   1      -3.417  87.049 115.245  0.00  0.00    -0.241 OA
ENDBRANCH   3  22
TORSDOF 7
ENDMDL
MODEL 2
REMARK VINA RESULT:      -4.6      5.713      8.294
REMARK  7 active torsions:
REMARK  status: ('A' for Active; 'I' for Inactive)
REMARK    1  A    between atoms: C_2  and  C_3 
REMARK    2  A    between atoms: C_3  and  O_6 
REMARK    3  A    between atoms: C_3  and  C_4 
REMARK    4  A    between atoms: C_7  and  O_6 
REMARK    5  A    between atoms: C_9  and  C_10 
REMARK    6  A    between atoms: N_15  and  C_14 
REMARK    7  A    between atoms: N_20  and  C_19 
REMARK       I    between atoms: C_22  and  N_20 
ROOT
ATOM      1  C   LIG d   1       1.752  88.509 116.007  0.00  0.00     0.161 C 
ATOM      2  C   LIG d   1       0.549  87.783 115.978  0.00  0.00     0.016 C 
ATOM      3  C   LIG d   1      -0.555  88.073 116.811  0.00  0.00     0.038 C 
ATOM      4  C   LIG d   1      -0.587  89.212 117.630  0.00  0.00     0.028 C 
ATOM      5  C   LIG d   1       0.796  89.685 118.064  0.00  0.00    -0.047 C 
ATOM      6  C   LIG d   1       1.695  89.823 116.814  0.00  0.00     0.091 C 
ENDROOT
BRANCH   1   7
ATOM      7  O   LIG d   1       2.199  88.767 114.661  0.00  0.00    -0.368 OA
BRANCH   7   8
ATOM      8  C   LIG d   1       3.116  87.797 114.097  0.00  0.00     0.119 C 
BRANCH   8   9
ATOM      9  C   LIG d   1       4.518  88.106 114.656  0.00  0.00     0.028 C 
ATOM     10  C   LIG d   1       5.061  89.458 114.164  0.00  0.00     0.006 C 
ENDBRANCH   8   9
BRANCH   8  11
ATOM     11  C   LIG d   1       3.238  87.963 112.580  0.00  0.00     0.028 C 
ATOM     12  C   LIG d   1       3.682  86.672 111.873  0.00  0.00     0.006 C 
ENDBRANCH   8  11
ENDBRANCH   7   8
ENDBRANCH   1   7
BRANCH   6  13
ATOM     13  N   LIG d   1       3.090  90.200 117.158  0.00  0.00    -0.311 N 
ATOM     14  C   LIG d   1       3.511  91.462 117.235  0.00  0.00     0.210 C 
ATOM     15  C   LIG d   1       4.993  91.629 117.584  0.00  0.00     0.109 C 
ATOM     16  O   LIG d   1       2.790  92.458 117.078  0.00  0.00    -0.276 OA
ATOM     17  H   LIG d   1       3.735  89.454 117.331  0.00  0.00     0.149 HD
ENDBRANCH   6  13
BRANCH   5  18
ATOM     18  N   LIG d   1       0.624  90.954 118.796  0.00  0.00     0.381 N 
ATOM     19  H   LIG d   1      -0.189  90.903 119.376  0.00  0.00    -0.090 HD
ATOM     20  H   LIG d   1       0.491  91.696 118.132  0.00  0.00    -0.090 HD
ATOM     21  H   LIG d   1       1.429  91.138 119.354  0.00  0.00    -0.090 HD
ENDBRANCH   5  18
BRANCH   3  22
ATOM     22  C   LIG d   1      -1.628  87.196 116.861  0.00  0.00     0.382 C 
ATOM     23  O   LIG d   1      -1.775  86.334 115.961  0.00  0.00    -0.241 OA
ATOM     24  O   LIG d   1      -2.476  87.286 117.769  0.00  0.00    -0.241 OA
ENDBRANCH   3  22
TORSDOF 7
ENDMDL
MODEL 3
REMARK VINA RESULT:      -4.6      4.288      6.890
REMARK  7 active torsions:
REMARK  status: ('A' for Active; 'I' for Inactive)
REMARK    1  A    between atoms: C_2  and  C_3 
REMARK    2  A    between atoms: C_3  and  O_6 
REMARK    3  A    between atoms: C_3  and  C_4 
REMARK    4  A    between atoms: C_7  and  O_6 
REMARK    5  A    between atoms: C_9  and  C_10 
REMARK    6  A    between atoms: N_15  and  C_14 
REMARK    7  A    between atoms: N_20  and  C_19 
REMARK       I    between atoms: C_22  and  N_20 
ROOT
ATOM      1  C   LIG d   1       0.254  89.872 116.678  0.00  0.00     0.161 C 
ATOM      2  C   LIG d   1       1.614  90.203 116.799  0.00  0.00     0.016 C 
ATOM      3  C   LIG d   1       2.071  91.478 117.206  0.00  0.00     0.038 C 
ATOM      4  C   LIG d   1       1.191  92.468 117.667  0.00  0.00     0.028 C 
ATOM      5  C   LIG d   1      -0.213  92.351 117.084  0.00  0.00    -0.047 C 
ATOM      6  C   LIG d   1      -0.720  90.904 117.284  0.00  0.00     0.091 C 
ENDROOT
BRANCH   1   7
ATOM      7  O   LIG d   1       0.017  88.567 117.244  0.00  0.00    -0.368 OA
BRANCH   7   8
ATOM      8  C   LIG d   1      -0.327  87.518 116.305  0.00  0.00     0.119 C 
BRANCH   8   9
ATOM      9  C   LIG d   1      -1.639  86.874 116.791  0.00  0.00     0.028 C 
ATOM     10  C   LIG d   1      -2.036  87.342 118.201  0.00  0.00     0.006 C 
ENDBRANCH   8   9
BRANCH   8  11
ATOM     11  C   LIG d   1       0.710  86.391 116.325  0.00  0.00     0.028 C 
ATOM     12  C   LIG d   1       1.165  85.975 114.918  0.00  0.00     0.006 C 
ENDBRANCH   8  11
ENDBRANCH   7   8
ENDBRANCH   1   7
BRANCH   6  13
ATOM     13  N   LIG d   1      -2.053  90.681 116.667  0.00  0.00    -0.311 N 
ATOM     14  C   LIG d   1      -3.197  90.764 117.343  0.00  0.00     0.210 C 
ATOM     15  C   LIG d   1      -4.457  90.477 116.521  0.00  0.00     0.109 C 
ATOM     16  O   LIG d   1      -3.290  91.080 118.539  0.00  0.00    -0.276 OA
ATOM     17  H   LIG d   1      -2.072  90.450 115.693  0.00  0.00     0.149 HD
ENDBRANCH   6  13
BRANCH   5  18
ATOM     18  N   LIG d   1      -1.059  93.357 117.753  0.00  0.00     0.381 N 
ATOM     19  H   LIG d   1      -0.751  94.277 117.505  0.00  0.00    -0.090 HD
ATOM     20  H   LIG d   1      -0.966  93.251 118.748  0.00  0.00    -0.090 HD
ATOM     21  H   LIG d   1      -2.011  93.234 117.486  0.00  0.00    -0.090 HD
ENDBRANCH   5  18
BRANCH   3  22
ATOM     22  C   LIG d   1       3.420  91.785 117.115  0.00  0.00     0.382 C 
ATOM     23  O   LIG d   1       3.825  92.930 117.430  0.00  0.00    -0.241 OA
ATOM     24  O   LIG d   1       4.231  90.946 116.680  0.00  0.00    -0.241 OA
ENDBRANCH   3  22
TORSDOF 7
ENDMDL
MODEL 4
REMARK VINA RESULT:      -4.4      7.049      9.957
REMARK  7 active torsions:
REMARK  status: ('A' for Active; 'I' for Inactive)
REMARK    1  A    between atoms: C_2  and  C_3 
REMARK    2  A    between atoms: C_3  and  O_6 
REMARK    3  A    between atoms: C_3  and  C_4 
REMARK    4  A    between atoms: C_7  and  O_6 
REMARK    5  A    between atoms: C_9  and  C_10 
REMARK    6  A    between atoms: N_15  and  C_14 
REMARK    7  A    between atoms: N_20  and  C_19 
REMARK       I    between atoms: C_22  and  N_20 
ROOT
ATOM      1  C   LIG d   1       2.781  88.382 115.521  0.00  0.00     0.161 C 
ATOM      2  C   LIG d   1       3.371  89.314 116.390  0.00  0.00     0.016 C 
ATOM      3  C   LIG d   1       4.602  89.957 116.123  0.00  0.00     0.038 C 
ATOM      4  C   LIG d   1       5.256  89.823 114.890  0.00  0.00     0.028 C 
ATOM      5  C   LIG d   1       4.956  88.504 114.185  0.00  0.00    -0.047 C 
ATOM      6  C   LIG d   1       3.424  88.307 114.120  0.00  0.00     0.091 C 
ENDROOT
BRANCH   1   7
ATOM      7  O   LIG d   1       1.368  88.644 115.410  0.00  0.00    -0.368 OA
BRANCH   7   8
ATOM      8  C   LIG d   1       0.526  88.042 116.424  0.00  0.00     0.119 C 
BRANCH   8   9
ATOM      9  C   LIG d   1      -0.237  86.879 115.761  0.00  0.00     0.028 C 
ATOM     10  C   LIG d   1      -1.567  86.571 116.469  0.00  0.00     0.006 C 
ENDBRANCH   8   9
BRANCH   8  11
ATOM     11  C   LIG d   1      -0.554  89.016 116.902  0.00  0.00     0.028 C 
ATOM     12  C   LIG d   1      -0.154  90.488 116.716  0.00  0.00     0.006 C 
ENDBRANCH   8  11
ENDBRANCH   7   8
ENDBRANCH   1   7
BRANCH   6  13
ATOM     13  N   LIG d   1       3.046  87.000 113.521  0.00  0.00    -0.311 N 
ATOM     14  C   LIG d   1       2.642  86.862 112.260  0.00  0.00     0.210 C 
ATOM     15  C   LIG d   1       2.281  85.431 111.850  0.00  0.00     0.109 C 
ATOM     16  O   LIG d   1       2.581  87.783 111.432  0.00  0.00    -0.276 OA
ATOM     17  H   LIG d   1       3.096  86.195 114.114  0.00  0.00     0.149 HD
ENDBRANCH   6  13
BRANCH   5  18
ATOM     18  N   LIG d   1       5.589  88.555 112.854  0.00  0.00     0.381 N 
ATOM     19  H   LIG d   1       5.447  87.687 112.377  0.00  0.00    -0.090 HD
ATOM     20  H   LIG d   1       6.578  88.693 112.970  0.00  0.00    -0.090 HD
ATOM     21  H   LIG d   1       5.203  89.303 112.321  0.00  0.00    -0.090 HD
ENDBRANCH   5  18
BRANCH   3  22
ATOM     22  C   LIG d   1       5.211  90.713 117.113  0.00  0.00     0.382 C 
ATOM     23  O   LIG d   1       4.831  91.890 117.325  0.00  0.00    -0.241 OA
ATOM     24  O   LIG d   1       6.165  90.249 117.766  0.00  0.00    -0.241 OA
ENDBRANCH   3  22
TORSDOF 7
ENDMDL
MODEL 5
REMARK VINA RESULT:      -4.4      7.614     10.331
REMARK  7 active torsions:
REMARK  status: ('A' for Active; 'I' for Inactive)
REMARK    1  A    between atoms: C_2  and  C_3 
REMARK    2  A    between atoms: C_3  and  O_6 
REMARK    3  A    between atoms: C_3  and  C_4 
REMARK    4  A    between atoms: C_7  and  O_6 
REMARK    5  A    between atoms: C_9  and  C_10 
REMARK    6  A    between atoms: N_15  and  C_14 
REMARK    7  A    between atoms: N_20  and  C_19 
REMARK       I    between atoms: C_22  and  N_20 
ROOT
ATOM      1  C   LIG d   1       3.849  87.307 115.994  0.00  0.00     0.161 C 
ATOM      2  C   LIG d   1       4.314  88.063 117.084  0.00  0.00     0.016 C 
ATOM      3  C   LIG d   1       4.943  89.321 116.946  0.00  0.00     0.038 C 
ATOM      4  C   LIG d   1       5.015  89.983 115.711  0.00  0.00     0.028 C 
ATOM      5  C   LIG d   1       5.012  89.036 114.515  0.00  0.00    -0.047 C 
ATOM      6  C   LIG d   1       3.819  88.063 114.649  0.00  0.00     0.091 C 
ENDROOT
BRANCH   1   7
ATOM      7  O   LIG d   1       2.547  86.766 116.295  0.00  0.00    -0.368 OA
BRANCH   7   8
ATOM      8  C   LIG d   1       1.417  87.481 115.738  0.00  0.00     0.119 C 
BRANCH   8   9
ATOM      9  C   LIG d   1       0.883  88.427 116.831  0.00  0.00     0.028 C 
ATOM     10  C   LIG d   1       0.851  89.895 116.371  0.00  0.00     0.006 C 
ENDBRANCH   8   9
BRANCH   8  11
ATOM     11  C   LIG d   1       0.257  86.530 115.424  0.00  0.00     0.028 C 
ATOM     12  C   LIG d   1       0.427  85.808 114.078  0.00  0.00     0.006 C 
ENDBRANCH   8  11
ENDBRANCH   7   8
ENDBRANCH   1   7
BRANCH   6  13
ATOM     13  N   LIG d   1       3.790  87.048 113.564  0.00  0.00    -0.311 N 
ATOM     14  C   LIG d   1       3.166  87.234 112.402  0.00  0.00     0.210 C 
ATOM     15  C   LIG d   1       3.244  86.052 111.430  0.00  0.00     0.109 C 
ATOM     16  O   LIG d   1       2.583  88.277 112.072  0.00  0.00    -0.276 OA
ATOM     17  H   LIG d   1       4.265  86.183 113.736  0.00  0.00     0.149 HD
ENDBRANCH   6  13
BRANCH   5  18
ATOM     18  N   LIG d   1       4.951  89.861 113.294  0.00  0.00     0.381 N 
ATOM     19  H   LIG d   1       5.846  89.873 112.848  0.00  0.00    -0.090 HD
ATOM     20  H   LIG d   1       4.713  90.803 113.549  0.00  0.00    -0.090 HD
ATOM     21  H   LIG d   1       4.266  89.495 112.669  0.00  0.00    -0.090 HD
ENDBRANCH   5  18
BRANCH   3  22
ATOM     22  C   LIG d   1       5.545  89.913 118.046  0.00  0.00     0.382 C 
ATOM     23  O   LIG d   1       4.894  90.711 118.763  0.00  0.00    -0.241 OA
ATOM     24  O   LIG d   1       6.744  89.694 118.304  0.00  0.00    -0.241 OA
ENDBRANCH   3  22
TORSDOF 7
ENDMDL
MODEL 6
REMARK VINA RESULT:      -4.3      7.353     10.147
REMARK  7 active torsions:
REMARK  status: ('A' for Active; 'I' for Inactive)
REMARK    1  A    between atoms: C_2  and  C_3 
REMARK    2  A    between atoms: C_3  and  O_6 
REMARK    3  A    between atoms: C_3  and  C_4 
REMARK    4  A    between atoms: C_7  and  O_6 
REMARK    5  A    between atoms: C_9  and  C_10 
REMARK    6  A    between atoms: N_15  and  C_14 
REMARK    7  A    between atoms: N_20  and  C_19 
REMARK       I    between atoms: C_22  and  N_20 
ROOT
ATOM      1  C   LIG d   1       4.279  88.934 115.401  0.00  0.00     0.161 C 
ATOM      2  C   LIG d   1       3.969  90.038 116.212  0.00  0.00     0.016 C 
ATOM      3  C   LIG d   1       2.668  90.307 116.695  0.00  0.00     0.038 C 
ATOM      4  C   LIG d   1       1.611  89.401 116.524  0.00  0.00     0.028 C 
ATOM      5  C   LIG d   1       1.760  88.524 115.285  0.00  0.00    -0.047 C 
ATOM      6  C   LIG d   1       3.162  87.875 115.296  0.00  0.00     0.091 C 
ENDROOT
BRANCH   1   7
ATOM      7  O   LIG d   1       5.506  88.326 115.852  0.00  0.00    -0.368 OA
BRANCH   7   8
ATOM      8  C   LIG d   1       5.818  88.487 117.258  0.00  0.00     0.119 C 
BRANCH   8   9
ATOM      9  C   LIG d   1       7.327  88.779 117.367  0.00  0.00     0.028 C 
ATOM     10  C   LIG d   1       8.170  87.494 117.424  0.00  0.00     0.006 C 
ENDBRANCH   8   9
BRANCH   8  11
ATOM     11  C   LIG d   1       5.600  87.183 118.030  0.00  0.00     0.028 C 
ATOM     12  C   LIG d   1       4.261  87.153 118.784  0.00  0.00     0.006 C 
ENDBRANCH   8  11
ENDBRANCH   7   8
ENDBRANCH   1   7
BRANCH   6  13
ATOM     13  N   LIG d   1       3.422  87.067 114.075  0.00  0.00    -0.311 N 
ATOM     14  C   LIG d   1       3.277  87.540 112.839  0.00  0.00     0.210 C 
ATOM     15  C   LIG d   1       3.578  86.534 111.723  0.00  0.00     0.109 C 
ATOM     16  O   LIG d   1       2.959  88.706 112.560  0.00  0.00    -0.276 OA
ATOM     17  H   LIG d   1       3.714  86.119 114.209  0.00  0.00     0.149 HD
ENDBRANCH   6  13
BRANCH   5  18
ATOM     18  N   LIG d   1       0.665  87.536 115.304  0.00  0.00     0.381 N 
ATOM     19  H   LIG d   1       0.645  87.069 116.188  0.00  0.00    -0.090 HD
ATOM     20  H   LIG d   1       0.833  86.851 114.589  0.00  0.00    -0.090 HD
ATOM     21  H   LIG d   1      -0.207  87.990 115.140  0.00  0.00    -0.090 HD
ENDBRANCH   5  18
BRANCH   3  22
ATOM     22  C   LIG d   1       2.404  91.514 117.325  0.00  0.00     0.382 C 
ATOM     23  O   LIG d   1       1.430  91.613 118.109  0.00  0.00    -0.241 OA
ATOM     24  O   LIG d   1       3.102  92.517 117.085  0.00  0.00    -0.241 OA
ENDBRANCH   3  22
TORSDOF 7
ENDMDL
MODEL 7
REMARK VINA RESULT:      -4.2      6.543      9.102
REMARK  7 active torsions:
REMARK  status: ('A' for Active; 'I' for Inactive)
REMARK    1  A    between atoms: C_2  and  C_3 
REMARK    2  A    between atoms: C_3  and  O_6 
REMARK    3  A    between atoms: C_3  and  C_4 
REMARK    4  A    between atoms: C_7  and  O_6 
REMARK    5  A    between atoms: C_9  and  C_10 
REMARK    6  A    between atoms: N_15  and  C_14 
REMARK    7  A    between atoms: N_20  and  C_19 
REMARK       I    between atoms: C_22  and  N_20 
ROOT
ATOM      1  C   LIG d   1       2.069  88.895 115.396  0.00  0.00     0.161 C 
ATOM      2  C   LIG d   1       2.802  89.926 116.007  0.00  0.00     0.016 C 
ATOM      3  C   LIG d   1       2.554  90.384 117.321  0.00  0.00     0.038 C 
ATOM      4  C   LIG d   1       1.647  89.736 118.173  0.00  0.00     0.028 C 
ATOM      5  C   LIG d   1       0.528  89.014 117.431  0.00  0.00    -0.047 C 
ATOM      6  C   LIG d   1       1.150  88.102 116.349  0.00  0.00     0.091 C 
ENDROOT
BRANCH   1   7
ATOM      7  O   LIG d   1       2.964  88.002 114.704  0.00  0.00    -0.368 OA
BRANCH   7   8
ATOM      8  C   LIG d   1       4.346  88.428 114.614  0.00  0.00     0.119 C 
BRANCH   8   9
ATOM      9  C   LIG d   1       4.732  88.435 113.123  0.00  0.00     0.028 C 
ATOM     10  C   LIG d   1       3.973  87.368 112.315  0.00  0.00     0.006 C 
ENDBRANCH   8   9
BRANCH   8  11
ATOM     11  C   LIG d   1       5.286  87.414 115.272  0.00  0.00     0.028 C 
ATOM     12  C   LIG d   1       4.533  86.274 115.977  0.00  0.00     0.006 C 
ENDBRANCH   8  11
ENDBRANCH   7   8
ENDBRANCH   1   7
BRANCH   6  13
ATOM     13  N   LIG d   1       0.121  87.422 115.520  0.00  0.00    -0.311 N 
ATOM     14  C   LIG d   1      -0.348  86.205 115.787  0.00  0.00     0.210 C 
ATOM     15  C   LIG d   1      -1.390  85.681 114.793  0.00  0.00     0.109 C 
ATOM     16  O   LIG d   1      -0.024  85.522 116.770  0.00  0.00    -0.276 OA
ATOM     17  H   LIG d   1      -0.220  87.918 114.720  0.00  0.00     0.149 HD
ENDBRANCH   6  13
BRANCH   5  18
ATOM     18  N   LIG d   1      -0.262  88.270 118.430  0.00  0.00     0.381 N 
ATOM     19  H   LIG d   1       0.271  88.159 119.269  0.00  0.00    -0.090 HD
ATOM     20  H   LIG d   1      -0.470  87.357 118.065  0.00  0.00    -0.090 HD
ATOM     21  H   LIG d   1      -1.108  88.757 118.627  0.00  0.00    -0.090 HD
ENDBRANCH   5  18
BRANCH   3  22
ATOM     22  C   LIG d   1       3.187  91.528 117.781  0.00  0.00     0.382 C 
ATOM     23  O   LIG d   1       3.048  92.613 117.166  0.00  0.00    -0.241 OA
ATOM     24  O   LIG d   1       3.932  91.480 118.778  0.00  0.00    -0.241 OA
ENDBRANCH   3  22
TORSDOF 7
ENDMDL
MODEL 8
REMARK VINA RESULT:      -4.1      5.518      8.764
REMARK  7 active torsions:
REMARK  status: ('A' for Active; 'I' for Inactive)
REMARK    1  A    between atoms: C_2  and  C_3 
REMARK    2  A    between atoms: C_3  and  O_6 
REMARK    3  A    between atoms: C_3  and  C_4 
REMARK    4  A    between atoms: C_7  and  O_6 
REMARK    5  A    between atoms: C_9  and  C_10 
REMARK    6  A    between atoms: N_15  and  C_14 
REMARK    7  A    between atoms: N_20  and  C_19 
REMARK       I    between atoms: C_22  and  N_20 
ROOT
ATOM      1  C   LIG d   1       1.173  88.691 116.285  0.00  0.00     0.161 C 
ATOM      2  C   LIG d   1      -0.179  88.959 116.558  0.00  0.00     0.016 C 
ATOM      3  C   LIG d   1      -0.638  90.188 117.084  0.00  0.00     0.038 C 
ATOM      4  C   LIG d   1       0.211  91.295 117.231  0.00  0.00     0.028 C 
ATOM      5  C   LIG d   1       1.672  90.913 117.444  0.00  0.00    -0.047 C 
ATOM      6  C   LIG d   1       2.099  89.924 116.335  0.00  0.00     0.091 C 
ENDROOT
BRANCH   1   7
ATOM      7  O   LIG d   1       1.292  88.026 115.012  0.00  0.00    -0.368 OA
BRANCH   7   8
ATOM      8  C   LIG d   1       1.475  86.590 115.057  0.00  0.00     0.119 C 
BRANCH   8   9
ATOM      9  C   LIG d   1       2.913  86.291 114.592  0.00  0.00     0.028 C 
ATOM     10  C   LIG d   1       3.204  86.847 113.188  0.00  0.00     0.006 C 
ENDBRANCH   8   9
BRANCH   8  11
ATOM     11  C   LIG d   1       0.567  85.881 114.048  0.00  0.00     0.028 C 
ATOM     12  C   LIG d   1      -0.893  85.792 114.519  0.00  0.00     0.006 C 
ENDBRANCH   8  11
ENDBRANCH   7   8
ENDBRANCH   1   7
BRANCH   6  13
ATOM     13  N   LIG d   1       3.490  89.434 116.517  0.00  0.00    -0.311 N 
ATOM     14  C   LIG d   1       4.423  89.506 115.569  0.00  0.00     0.210 C 
ATOM     15  C   LIG d   1       5.786  88.925 115.957  0.00  0.00     0.109 C 
ATOM     16  O   LIG d   1       4.259  90.025 114.454  0.00  0.00    -0.276 OA
ATOM     17  H   LIG d   1       3.718  89.027 117.403  0.00  0.00     0.149 HD
ENDBRANCH   6  13
BRANCH   5  18
ATOM     18  N   LIG d   1       2.463  92.158 117.444  0.00  0.00     0.381 N 
ATOM     19  H   LIG d   1       2.630  92.453 116.503  0.00  0.00    -0.090 HD
ATOM     20  H   LIG d   1       3.350  91.980 117.881  0.00  0.00    -0.090 HD
ATOM     21  H   LIG d   1       1.977  92.871 117.942  0.00  0.00    -0.090 HD
ENDBRANCH   5  18
BRANCH   3  22
ATOM     22  C   LIG d   1      -1.954  90.307 117.506  0.00  0.00     0.382 C 
ATOM     23  O   LIG d   1      -2.260  91.163 118.370  0.00  0.00    -0.241 OA
ATOM     24  O   LIG d   1      -2.830  89.539 117.065  0.00  0.00    -0.241 OA
ENDBRANCH   3  22
TORSDOF 7
ENDMDL
MODEL 9
REMARK VINA RESULT:      -3.9      1.737      2.725
REMARK  7 active torsions:
REMARK  status: ('A' for Active; 'I' for Inactive)
REMARK    1  A    between atoms: C_2  and  C_3 
REMARK    2  A    between atoms: C_3  and  O_6 
REMARK    3  A    between atoms: C_3  and  C_4 
REMARK    4  A    between atoms: C_7  and  O_6 
REMARK    5  A    between atoms: C_9  and  C_10 
REMARK    6  A    between atoms: N_15  and  C_14 
REMARK    7  A    between atoms: N_20  and  C_19 
REMARK       I    between atoms: C_22  and  N_20 
ROOT
ATOM      1  C   LIG d   1      -3.794  91.072 118.384  0.00  0.00     0.161 C 
ATOM      2  C   LIG d   1      -2.899  90.006 118.197  0.00  0.00     0.016 C 
ATOM      3  C   LIG d   1      -2.923  89.159 117.064  0.00  0.00     0.038 C 
ATOM      4  C   LIG d   1      -3.754  89.417 115.964  0.00  0.00     0.028 C 
ATOM      5  C   LIG d   1      -5.022  90.182 116.328  0.00  0.00    -0.047 C 
ATOM      6  C   LIG d   1      -4.635  91.437 117.143  0.00  0.00     0.091 C 
ENDROOT
BRANCH   1   7
ATOM      7  O   LIG d   1      -3.082  92.229 118.865  0.00  0.00    -0.368 OA
BRANCH   7   8
ATOM      8  C   LIG d   1      -2.319  92.964 117.877  0.00  0.00     0.119 C 
BRANCH   8   9
ATOM      9  C   LIG d   1      -0.835  92.881 118.283  0.00  0.00     0.028 C 
ATOM     10  C   LIG d   1       0.106  92.867 117.066  0.00  0.00     0.006 C 
ENDBRANCH   8   9
BRANCH   8  11
ATOM     11  C   LIG d   1      -2.665  94.456 117.903  0.00  0.00     0.028 C 
ATOM     12  C   LIG d   1      -3.756  94.797 118.930  0.00  0.00     0.006 C 
ENDBRANCH   8  11
ENDBRANCH   7   8
ENDBRANCH   1   7
BRANCH   6  13
ATOM     13  N   LIG d   1      -5.823  92.197 117.611  0.00  0.00    -0.311 N 
ATOM     14  C   LIG d   1      -6.459  93.097 116.863  0.00  0.00     0.210 C 
ATOM     15  C   LIG d   1      -7.647  93.781 117.546  0.00  0.00     0.109 C 
ATOM     16  O   LIG d   1      -6.171  93.371 115.689  0.00  0.00    -0.276 OA
ATOM     17  H   LIG d   1      -6.143  92.014 118.542  0.00  0.00     0.149 HD
ENDBRANCH   6  13
BRANCH   5  18
ATOM     18  N   LIG d   1      -5.725  90.502 115.071  0.00  0.00     0.381 N 
ATOM     19  H   LIG d   1      -6.320  89.741 114.812  0.00  0.00    -0.090 HD
ATOM     20  H   LIG d   1      -5.045  90.634 114.343  0.00  0.00    -0.090 HD
ATOM     21  H   LIG d   1      -6.266  91.332 115.185  0.00  0.00    -0.090 HD
ENDBRANCH   5  18
BRANCH   3  22
ATOM     22  C   LIG d   1      -2.138  88.017 117.043  0.00  0.00     0.382 C 
ATOM     23  O   LIG d   1      -0.986  88.039 117.541  0.00  0.00    -0.241 OA
ATOM     24  O   LIG d   1      -2.549  86.977 116.494  0.00  0.00    -0.241 OA
ENDBRANCH   3  22
TORSDOF 7
ENDMDL
