MODEL 1
REMARK VINA RESULT:      -4.2      0.000      0.000
REMARK  7 active torsions:
REMARK  status: ('A' for Active; 'I' for Inactive)
REMARK    1  A    between atoms: C_2  and  C_3 
REMARK    2  A    between atoms: C_3  and  O_6 
REMARK    3  A    between atoms: C_3  and  C_4 
REMARK    4  A    between atoms: C_7  and  O_6 
REMARK    5  A    between atoms: C_9  and  C_10 
REMARK    6  A    between atoms: N_15  and  C_14 
REMARK    7  A    between atoms: N_20  and  C_19 
REMARK       I    between atoms: C_22  and  N_20 
ROOT
ATOM      1  C   LIG d   1       4.318  87.776 116.148  0.00  0.00     0.161 C 
ATOM      2  C   LIG d   1       3.223  88.653 116.090  0.00  0.00     0.016 C 
ATOM      3  C   LIG d   1       3.164  89.873 116.802  0.00  0.00     0.038 C 
ATOM      4  C   LIG d   1       4.269  90.374 117.506  0.00  0.00     0.028 C 
ATOM      5  C   LIG d   1       5.215  89.286 118.004  0.00  0.00    -0.047 C 
ATOM      6  C   LIG d   1       5.578  88.358 116.822  0.00  0.00     0.091 C 
ENDROOT
BRANCH   1   7
ATOM      7  O   LIG d   1       4.633  87.300 114.824  0.00  0.00    -0.368 OA
BRANCH   7   8
ATOM      8  C   LIG d   1       3.579  87.417 113.837  0.00  0.00     0.119 C 
BRANCH   8   9
ATOM      9  C   LIG d   1       3.271  86.000 113.318  0.00  0.00     0.028 C 
ATOM     10  C   LIG d   1       3.328  85.912 111.783  0.00  0.00     0.006 C 
ENDBRANCH   8   9
BRANCH   8  11
ATOM     11  C   LIG d   1       4.050  88.205 112.611  0.00  0.00     0.028 C 
ATOM     12  C   LIG d   1       5.444  88.825 112.799  0.00  0.00     0.006 C 
ENDBRANCH   8  11
ENDBRANCH   7   8
ENDBRANCH   1   7
BRANCH   6  13
ATOM     13  N   LIG d   1       6.433  87.216 117.240  0.00  0.00    -0.311 N 
ATOM     14  C   LIG d   1       7.764  87.238 117.183  0.00  0.00     0.210 C 
ATOM     15  C   LIG d   1       8.451  85.948 117.643  0.00  0.00     0.109 C 
ATOM     16  O   LIG d   1       8.441  88.213 116.826  0.00  0.00    -0.276 OA
ATOM     17  H   LIG d   1       5.967  86.395 117.573  0.00  0.00     0.149 HD
ENDBRANCH   6  13
BRANCH   5  18
ATOM     18  N   LIG d   1       6.389  89.953 118.597  0.00  0.00     0.381 N 
ATOM     19  H   LIG d   1       6.324  89.927 119.595  0.00  0.00    -0.090 HD
ATOM     20  H   LIG d   1       6.398  90.915 118.307  0.00  0.00    -0.090 HD
ATOM     21  H   LIG d   1       7.225  89.500 118.299  0.00  0.00    -0.090 HD
ENDBRANCH   5  18
BRANCH   3  22
ATOM     22  C   LIG d   1       1.976  90.587 116.846  0.00  0.00     0.382 C 
ATOM     23  O   LIG d   1       1.023  90.263 116.098  0.00  0.00    -0.241 OA
ATOM     24  O   LIG d   1       1.862  91.577 117.593  0.00  0.00    -0.241 OA
ENDBRANCH   3  22
TORSDOF 7
ENDMDL
MODEL 2
REMARK VINA RESULT:      -4.2      2.835      5.844
REMARK  7 active torsions:
REMARK  status: ('A' for Active; 'I' for Inactive)
REMARK    1  A    between atoms: C_2  and  C_3 
REMARK    2  A    between atoms: C_3  and  O_6 
REMARK    3  A    between atoms: C_3  and  C_4 
REMARK    4  A    between atoms: C_7  and  O_6 
REMARK    5  A    between atoms: C_9  and  C_10 
REMARK    6  A    between atoms: N_15  and  C_14 
REMARK    7  A    between atoms: N_20  and  C_19 
REMARK       I    between atoms: C_22  and  N_20 
ROOT
ATOM      1  C   LIG d   1       2.606  87.382 115.761  0.00  0.00     0.161 C 
ATOM      2  C   LIG d   1       3.690  87.966 116.436  0.00  0.00     0.016 C 
ATOM      3  C   LIG d   1       4.872  88.393 115.789  0.00  0.00     0.038 C 
ATOM      4  C   LIG d   1       4.990  88.402 114.391  0.00  0.00     0.028 C 
ATOM      5  C   LIG d   1       4.121  87.353 113.703  0.00  0.00    -0.047 C 
ATOM      6  C   LIG d   1       2.671  87.485 114.222  0.00  0.00     0.091 C 
ENDROOT
BRANCH   1   7
ATOM      7  O   LIG d   1       1.369  87.938 116.248  0.00  0.00    -0.368 OA
BRANCH   7   8
ATOM      8  C   LIG d   1       1.475  88.834 117.381  0.00  0.00     0.119 C 
BRANCH   8   9
ATOM      9  C   LIG d   1       0.374  88.443 118.386  0.00  0.00     0.028 C 
ATOM     10  C   LIG d   1      -1.029  88.849 117.906  0.00  0.00     0.006 C 
ENDBRANCH   8   9
BRANCH   8  11
ATOM     11  C   LIG d   1       1.164  90.279 116.980  0.00  0.00     0.028 C 
ATOM     12  C   LIG d   1       2.368  91.218 117.153  0.00  0.00     0.006 C 
ENDBRANCH   8  11
ENDBRANCH   7   8
ENDBRANCH   1   7
BRANCH   6  13
ATOM     13  N   LIG d   1       1.772  86.441 113.663  0.00  0.00    -0.311 N 
ATOM     14  C   LIG d   1       1.012  86.629 112.586  0.00  0.00     0.210 C 
ATOM     15  C   LIG d   1       0.144  85.431 112.190  0.00  0.00     0.109 C 
ATOM     16  O   LIG d   1       0.998  87.664 111.902  0.00  0.00    -0.276 OA
ATOM     17  H   LIG d   1       1.745  85.560 114.138  0.00  0.00     0.149 HD
ENDBRANCH   6  13
BRANCH   5  18
ATOM     18  N   LIG d   1       4.235  87.565 112.248  0.00  0.00     0.381 N 
ATOM     19  H   LIG d   1       4.237  88.545 112.047  0.00  0.00    -0.090 HD
ATOM     20  H   LIG d   1       3.439  87.152 111.796  0.00  0.00    -0.090 HD
ATOM     21  H   LIG d   1       5.073  87.147 111.907  0.00  0.00    -0.090 HD
ENDBRANCH   5  18
BRANCH   3  22
ATOM     22  C   LIG d   1       5.968  88.780 116.544  0.00  0.00     0.382 C 
ATOM     23  O   LIG d   1       5.854  89.702 117.388  0.00  0.00    -0.241 OA
ATOM     24  O   LIG d   1       7.080  88.250 116.362  0.00  0.00    -0.241 OA
ENDBRANCH   3  22
TORSDOF 7
ENDMDL
MODEL 3
REMARK VINA RESULT:      -4.2      2.740      6.021
REMARK  7 active torsions:
REMARK  status: ('A' for Active; 'I' for Inactive)
REMARK    1  A    between atoms: C_2  and  C_3 
REMARK    2  A    between atoms: C_3  and  O_6 
REMARK    3  A    between atoms: C_3  and  C_4 
REMARK    4  A    between atoms: C_7  and  O_6 
REMARK    5  A    between atoms: C_9  and  C_10 
REMARK    6  A    between atoms: N_15  and  C_14 
REMARK    7  A    between atoms: N_20  and  C_19 
REMARK       I    between atoms: C_22  and  N_20 
ROOT
ATOM      1  C   LIG d   1       3.334  88.420 115.885  0.00  0.00     0.161 C 
ATOM      2  C   LIG d   1       4.105  88.690 114.742  0.00  0.00     0.016 C 
ATOM      3  C   LIG d   1       3.917  88.032 113.504  0.00  0.00     0.038 C 
ATOM      4  C   LIG d   1       2.838  87.163 113.283  0.00  0.00     0.028 C 
ATOM      5  C   LIG d   1       2.340  86.480 114.552  0.00  0.00    -0.047 C 
ATOM      6  C   LIG d   1       2.082  87.556 115.632  0.00  0.00     0.091 C 
ENDROOT
BRANCH   1   7
ATOM      7  O   LIG d   1       2.968  89.656 116.530  0.00  0.00    -0.368 OA
BRANCH   7   8
ATOM      8  C   LIG d   1       3.480  89.852 117.871  0.00  0.00     0.119 C 
BRANCH   8   9
ATOM      9  C   LIG d   1       4.103  91.260 117.928  0.00  0.00     0.028 C 
ATOM     10  C   LIG d   1       3.077  92.368 117.635  0.00  0.00     0.006 C 
ENDBRANCH   8   9
BRANCH   8  11
ATOM     11  C   LIG d   1       4.631  88.887 118.174  0.00  0.00     0.028 C 
ATOM     12  C   LIG d   1       6.010  89.559 118.086  0.00  0.00     0.006 C 
ENDBRANCH   8  11
ENDBRANCH   7   8
ENDBRANCH   1   7
BRANCH   6  13
ATOM     13  N   LIG d   1       1.672  86.966 116.933  0.00  0.00    -0.311 N 
ATOM     14  C   LIG d   1       0.582  87.343 117.598  0.00  0.00     0.210 C 
ATOM     15  C   LIG d   1       0.354  86.621 118.930  0.00  0.00     0.109 C 
ATOM     16  O   LIG d   1      -0.236  88.185 117.197  0.00  0.00    -0.276 OA
ATOM     17  H   LIG d   1       2.262  86.253 117.317  0.00  0.00     0.149 HD
ENDBRANCH   6  13
BRANCH   5  18
ATOM     18  N   LIG d   1       1.131  85.712 114.200  0.00  0.00     0.381 N 
ATOM     19  H   LIG d   1       1.274  85.235 113.332  0.00  0.00    -0.090 HD
ATOM     20  H   LIG d   1       0.363  86.349 114.087  0.00  0.00    -0.090 HD
ATOM     21  H   LIG d   1       0.924  85.054 114.919  0.00  0.00    -0.090 HD
ENDBRANCH   5  18
BRANCH   3  22
ATOM     22  C   LIG d   1       4.838  88.213 112.483  0.00  0.00     0.382 C 
ATOM     23  O   LIG d   1       5.717  89.102 112.582  0.00  0.00    -0.241 OA
ATOM     24  O   LIG d   1       4.773  87.527 111.446  0.00  0.00    -0.241 OA
ENDBRANCH   3  22
TORSDOF 7
ENDMDL
MODEL 4
REMARK VINA RESULT:      -4.0      2.683      6.363
REMARK  7 active torsions:
REMARK  status: ('A' for Active; 'I' for Inactive)
REMARK    1  A    between atoms: C_2  and  C_3 
REMARK    2  A    between atoms: C_3  and  O_6 
REMARK    3  A    between atoms: C_3  and  C_4 
REMARK    4  A    between atoms: C_7  and  O_6 
REMARK    5  A    between atoms: C_9  and  C_10 
REMARK    6  A    between atoms: N_15  and  C_14 
REMARK    7  A    between atoms: N_20  and  C_19 
REMARK       I    between atoms: C_22  and  N_20 
ROOT
ATOM      1  C   LIG d   1       4.881  89.689 118.376  0.00  0.00     0.161 C 
ATOM      2  C   LIG d   1       6.263  89.538 118.177  0.00  0.00     0.016 C 
ATOM      3  C   LIG d   1       6.825  88.969 117.011  0.00  0.00     0.038 C 
ATOM      4  C   LIG d   1       6.042  88.648 115.892  0.00  0.00     0.028 C 
ATOM      5  C   LIG d   1       4.596  88.315 116.240  0.00  0.00    -0.047 C 
ATOM      6  C   LIG d   1       4.017  89.446 117.120  0.00  0.00     0.091 C 
ENDROOT
BRANCH   1   7
ATOM      7  O   LIG d   1       4.605  90.991 118.929  0.00  0.00    -0.368 OA
BRANCH   7   8
ATOM      8  C   LIG d   1       4.795  92.116 118.037  0.00  0.00     0.119 C 
BRANCH   8   9
ATOM      9  C   LIG d   1       5.707  93.129 118.756  0.00  0.00     0.028 C 
ATOM     10  C   LIG d   1       7.199  92.851 118.511  0.00  0.00     0.006 C 
ENDBRANCH   8   9
BRANCH   8  11
ATOM     11  C   LIG d   1       3.478  92.859 117.790  0.00  0.00     0.028 C 
ATOM     12  C   LIG d   1       2.459  92.658 118.923  0.00  0.00     0.006 C 
ENDBRANCH   8  11
ENDBRANCH   7   8
ENDBRANCH   1   7
BRANCH   6  13
ATOM     13  N   LIG d   1       2.632  89.159 117.575  0.00  0.00    -0.311 N 
ATOM     14  C   LIG d   1       1.547  89.628 116.962  0.00  0.00     0.210 C 
ATOM     15  C   LIG d   1       0.216  89.228 117.607  0.00  0.00     0.109 C 
ATOM     16  O   LIG d   1       1.559  90.311 115.927  0.00  0.00    -0.276 OA
ATOM     17  H   LIG d   1       2.529  88.586 118.390  0.00  0.00     0.149 HD
ENDBRANCH   6  13
BRANCH   5  18
ATOM     18  N   LIG d   1       3.862  88.135 114.973  0.00  0.00     0.381 N 
ATOM     19  H   LIG d   1       2.995  88.631 115.010  0.00  0.00    -0.090 HD
ATOM     20  H   LIG d   1       3.662  87.158 114.849  0.00  0.00    -0.090 HD
ATOM     21  H   LIG d   1       4.411  88.469 114.211  0.00  0.00    -0.090 HD
ENDBRANCH   5  18
BRANCH   3  22
ATOM     22  C   LIG d   1       8.180  88.679 116.972  0.00  0.00     0.382 C 
ATOM     23  O   LIG d   1       8.566  87.531 116.648  0.00  0.00    -0.241 OA
ATOM     24  O   LIG d   1       9.020  89.539 117.301  0.00  0.00    -0.241 OA
ENDBRANCH   3  22
TORSDOF 7
ENDMDL
MODEL 5
REMARK VINA RESULT:      -3.8      6.359      9.086
REMARK  7 active torsions:
REMARK  status: ('A' for Active; 'I' for Inactive)
REMARK    1  A    between atoms: C_2  and  C_3 
REMARK    2  A    between atoms: C_3  and  O_6 
REMARK    3  A    between atoms: C_3  and  C_4 
REMARK    4  A    between atoms: C_7  and  O_6 
REMARK    5  A    between atoms: C_9  and  C_10 
REMARK    6  A    between atoms: N_15  and  C_14 
REMARK    7  A    between atoms: N_20  and  C_19 
REMARK       I    between atoms: C_22  and  N_20 
ROOT
ATOM      1  C   LIG d   1      -2.657  92.760 118.220  0.00  0.00     0.161 C 
ATOM      2  C   LIG d   1      -2.702  94.163 118.283  0.00  0.00     0.016 C 
ATOM      3  C   LIG d   1      -1.547  94.976 118.354  0.00  0.00     0.038 C 
ATOM      4  C   LIG d   1      -0.257  94.445 118.213  0.00  0.00     0.028 C 
ATOM      5  C   LIG d   1      -0.150  92.989 118.655  0.00  0.00    -0.047 C 
ATOM      6  C   LIG d   1      -1.257  92.169 117.954  0.00  0.00     0.091 C 
ENDROOT
BRANCH   1   7
ATOM      7  O   LIG d   1      -3.597  92.285 117.237  0.00  0.00    -0.368 OA
BRANCH   7   8
ATOM      8  C   LIG d   1      -4.849  91.767 117.749  0.00  0.00     0.119 C 
BRANCH   8   9
ATOM      9  C   LIG d   1      -5.908  91.934 116.642  0.00  0.00     0.028 C 
ATOM     10  C   LIG d   1      -5.874  90.785 115.620  0.00  0.00     0.006 C 
ENDBRANCH   8   9
BRANCH   8  11
ATOM     11  C   LIG d   1      -5.358  92.604 118.927  0.00  0.00     0.028 C 
ATOM     12  C   LIG d   1      -6.602  93.435 118.573  0.00  0.00     0.006 C 
ENDBRANCH   8  11
ENDBRANCH   7   8
ENDBRANCH   1   7
BRANCH   6  13
ATOM     13  N   LIG d   1      -1.277  90.750 118.395  0.00  0.00    -0.311 N 
ATOM     14  C   LIG d   1      -0.622  89.777 117.763  0.00  0.00     0.210 C 
ATOM     15  C   LIG d   1      -0.793  88.382 118.372  0.00  0.00     0.109 C 
ATOM     16  O   LIG d   1       0.110  89.942 116.775  0.00  0.00    -0.276 OA
ATOM     17  H   LIG d   1      -1.821  90.532 119.206  0.00  0.00     0.149 HD
ENDBRANCH   6  13
BRANCH   5  18
ATOM     18  N   LIG d   1       1.211  92.522 118.326  0.00  0.00     0.381 N 
ATOM     19  H   LIG d   1       1.181  91.562 118.047  0.00  0.00    -0.090 HD
ATOM     20  H   LIG d   1       1.786  92.595 119.146  0.00  0.00    -0.090 HD
ATOM     21  H   LIG d   1       1.594  93.077 117.593  0.00  0.00    -0.090 HD
ENDBRANCH   5  18
BRANCH   3  22
ATOM     22  C   LIG d   1      -1.677  96.333 118.607  0.00  0.00     0.382 C 
ATOM     23  O   LIG d   1      -0.660  97.023 118.862  0.00  0.00    -0.241 OA
ATOM     24  O   LIG d   1      -2.802  96.867 118.628  0.00  0.00    -0.241 OA
ENDBRANCH   3  22
TORSDOF 7
ENDMDL
MODEL 6
REMARK VINA RESULT:      -3.7      3.438      6.353
REMARK  7 active torsions:
REMARK  status: ('A' for Active; 'I' for Inactive)
REMARK    1  A    between atoms: C_2  and  C_3 
REMARK    2  A    between atoms: C_3  and  O_6 
REMARK    3  A    between atoms: C_3  and  C_4 
REMARK    4  A    between atoms: C_7  and  O_6 
REMARK    5  A    between atoms: C_9  and  C_10 
REMARK    6  A    between atoms: N_15  and  C_14 
REMARK    7  A    between atoms: N_20  and  C_19 
REMARK       I    between atoms: C_22  and  N_20 
ROOT
ATOM      1  C   LIG d   1       0.906  90.770 117.683  0.00  0.00     0.161 C 
ATOM      2  C   LIG d   1      -0.447  91.099 117.872  0.00  0.00     0.016 C 
ATOM      3  C   LIG d   1      -1.468  90.134 118.031  0.00  0.00     0.038 C 
ATOM      4  C   LIG d   1      -1.181  88.767 118.164  0.00  0.00     0.028 C 
ATOM      5  C   LIG d   1       0.114  88.350 117.475  0.00  0.00    -0.047 C 
ATOM      6  C   LIG d   1       1.252  89.288 117.936  0.00  0.00     0.091 C 
ENDROOT
BRANCH   1   7
ATOM      7  O   LIG d   1       1.734  91.625 118.496  0.00  0.00    -0.368 OA
BRANCH   7   8
ATOM      8  C   LIG d   1       2.156  92.870 117.887  0.00  0.00     0.119 C 
BRANCH   8   9
ATOM      9  C   LIG d   1       3.692  92.835 117.777  0.00  0.00     0.028 C 
ATOM     10  C   LIG d   1       4.322  91.773 118.694  0.00  0.00     0.006 C 
ENDBRANCH   8   9
BRANCH   8  11
ATOM     11  C   LIG d   1       1.841  94.066 118.790  0.00  0.00     0.028 C 
ATOM     12  C   LIG d   1       0.482  94.711 118.473  0.00  0.00     0.006 C 
ENDBRANCH   8  11
ENDBRANCH   7   8
ENDBRANCH   1   7
BRANCH   6  13
ATOM     13  N   LIG d   1       2.537  89.002 117.246  0.00  0.00    -0.311 N 
ATOM     14  C   LIG d   1       2.764  89.299 115.968  0.00  0.00     0.210 C 
ATOM     15  C   LIG d   1       4.149  88.901 115.448  0.00  0.00     0.109 C 
ATOM     16  O   LIG d   1       1.962  89.883 115.224  0.00  0.00    -0.276 OA
ATOM     17  H   LIG d   1       3.255  88.558 117.784  0.00  0.00     0.149 HD
ENDBRANCH   6  13
BRANCH   5  18
ATOM     18  N   LIG d   1       0.360  86.934 117.810  0.00  0.00     0.381 N 
ATOM     19  H   LIG d   1      -0.308  86.355 117.343  0.00  0.00    -0.090 HD
ATOM     20  H   LIG d   1       0.249  86.810 118.800  0.00  0.00    -0.090 HD
ATOM     21  H   LIG d   1       1.283  86.675 117.537  0.00  0.00    -0.090 HD
ENDBRANCH   5  18
BRANCH   3  22
ATOM     22  C   LIG d   1      -2.796  90.530 118.018  0.00  0.00     0.382 C 
ATOM     23  O   LIG d   1      -3.706  89.677 118.156  0.00  0.00    -0.241 OA
ATOM     24  O   LIG d   1      -3.098  91.723 117.827  0.00  0.00    -0.241 OA
ENDBRANCH   3  22
TORSDOF 7
ENDMDL
MODEL 7
REMARK VINA RESULT:      -3.4      2.154      4.953
REMARK  7 active torsions:
REMARK  status: ('A' for Active; 'I' for Inactive)
REMARK    1  A    between atoms: C_2  and  C_3 
REMARK    2  A    between atoms: C_3  and  O_6 
REMARK    3  A    between atoms: C_3  and  C_4 
REMARK    4  A    between atoms: C_7  and  O_6 
REMARK    5  A    between atoms: C_9  and  C_10 
REMARK    6  A    between atoms: N_15  and  C_14 
REMARK    7  A    between atoms: N_20  and  C_19 
REMARK       I    between atoms: C_22  and  N_20 
ROOT
ATOM      1  C   LIG d   1       4.734  88.876 116.485  0.00  0.00     0.161 C 
ATOM      2  C   LIG d   1       6.074  88.460 116.434  0.00  0.00     0.016 C 
ATOM      3  C   LIG d   1       6.553  87.296 117.079  0.00  0.00     0.038 C 
ATOM      4  C   LIG d   1       5.687  86.382 117.697  0.00  0.00     0.028 C 
ATOM      5  C   LIG d   1       4.398  87.018 118.206  0.00  0.00    -0.047 C 
ATOM      6  C   LIG d   1       3.754  87.833 117.061  0.00  0.00     0.091 C 
ENDROOT
BRANCH   1   7
ATOM      7  O   LIG d   1       4.303  89.298 115.175  0.00  0.00    -0.368 OA
BRANCH   7   8
ATOM      8  C   LIG d   1       3.884  88.245 114.272  0.00  0.00     0.119 C 
BRANCH   8   9
ATOM      9  C   LIG d   1       4.920  88.173 113.134  0.00  0.00     0.028 C 
ATOM     10  C   LIG d   1       4.431  87.322 111.949  0.00  0.00     0.006 C 
ENDBRANCH   8   9
BRANCH   8  11
ATOM     11  C   LIG d   1       2.556  88.591 113.592  0.00  0.00     0.028 C 
ATOM     12  C   LIG d   1       2.461  90.070 113.187  0.00  0.00     0.006 C 
ENDBRANCH   8  11
ENDBRANCH   7   8
ENDBRANCH   1   7
BRANCH   6  13
ATOM     13  N   LIG d   1       2.532  88.557 117.499  0.00  0.00    -0.311 N 
ATOM     14  C   LIG d   1       1.303  88.226 117.104  0.00  0.00     0.210 C 
ATOM     15  C   LIG d   1       0.186  89.116 117.657  0.00  0.00     0.109 C 
ATOM     16  O   LIG d   1       1.031  87.261 116.375  0.00  0.00    -0.276 OA
ATOM     17  H   LIG d   1       2.659  89.335 118.116  0.00  0.00     0.149 HD
ENDBRANCH   6  13
BRANCH   5  18
ATOM     18  N   LIG d   1       3.531  85.933 118.702  0.00  0.00     0.381 N 
ATOM     19  H   LIG d   1       2.580  86.243 118.726  0.00  0.00    -0.090 HD
ATOM     20  H   LIG d   1       3.809  85.697 119.639  0.00  0.00    -0.090 HD
ATOM     21  H   LIG d   1       3.613  85.134 118.112  0.00  0.00    -0.090 HD
ENDBRANCH   5  18
BRANCH   3  22
ATOM     22  C   LIG d   1       7.917  87.058 117.143  0.00  0.00     0.382 C 
ATOM     23  O   LIG d   1       8.727  87.946 116.782  0.00  0.00    -0.241 OA
ATOM     24  O   LIG d   1       8.349  85.951 117.516  0.00  0.00    -0.241 OA
ENDBRANCH   3  22
TORSDOF 7
ENDMDL
MODEL 8
REMARK VINA RESULT:      -3.4      2.918      5.860
REMARK  7 active torsions:
REMARK  status: ('A' for Active; 'I' for Inactive)
REMARK    1  A    between atoms: C_2  and  C_3 
REMARK    2  A    between atoms: C_3  and  O_6 
REMARK    3  A    between atoms: C_3  and  C_4 
REMARK    4  A    between atoms: C_7  and  O_6 
REMARK    5  A    between atoms: C_9  and  C_10 
REMARK    6  A    between atoms: N_15  and  C_14 
REMARK    7  A    between atoms: N_20  and  C_19 
REMARK       I    between atoms: C_22  and  N_20 
ROOT
ATOM      1  C   LIG d   1       4.243  89.235 118.563  0.00  0.00     0.161 C 
ATOM      2  C   LIG d   1       5.550  89.708 118.364  0.00  0.00     0.016 C 
ATOM      3  C   LIG d   1       6.419  89.200 117.371  0.00  0.00     0.038 C 
ATOM      4  C   LIG d   1       5.983  88.281 116.405  0.00  0.00     0.028 C 
ATOM      5  C   LIG d   1       4.829  87.405 116.879  0.00  0.00    -0.047 C 
ATOM      6  C   LIG d   1       3.712  88.311 117.447  0.00  0.00     0.091 C 
ENDROOT
BRANCH   1   7
ATOM      7  O   LIG d   1       3.346  90.346 118.763  0.00  0.00    -0.368 OA
BRANCH   7   8
ATOM      8  C   LIG d   1       2.984  91.093 117.575  0.00  0.00     0.119 C 
BRANCH   8   9
ATOM      9  C   LIG d   1       3.177  92.589 117.892  0.00  0.00     0.028 C 
ATOM     10  C   LIG d   1       4.647  93.027 117.777  0.00  0.00     0.006 C 
ENDBRANCH   8   9
BRANCH   8  11
ATOM     11  C   LIG d   1       1.495  90.937 117.252  0.00  0.00     0.028 C 
ATOM     12  C   LIG d   1       0.636  90.691 118.502  0.00  0.00     0.006 C 
ENDBRANCH   8  11
ENDBRANCH   7   8
ENDBRANCH   1   7
BRANCH   6  13
ATOM     13  N   LIG d   1       2.580  87.530 118.010  0.00  0.00    -0.311 N 
ATOM     14  C   LIG d   1       1.474  87.245 117.325  0.00  0.00     0.210 C 
ATOM     15  C   LIG d   1       0.422  86.446 118.100  0.00  0.00     0.109 C 
ATOM     16  O   LIG d   1       1.278  87.551 116.140  0.00  0.00    -0.276 OA
ATOM     17  H   LIG d   1       2.669  87.216 118.957  0.00  0.00     0.149 HD
ENDBRANCH   6  13
BRANCH   5  18
ATOM     18  N   LIG d   1       4.385  86.593 115.730  0.00  0.00     0.381 N 
ATOM     19  H   LIG d   1       3.836  85.821 116.053  0.00  0.00    -0.090 HD
ATOM     20  H   LIG d   1       5.194  86.229 115.258  0.00  0.00    -0.090 HD
ATOM     21  H   LIG d   1       3.849  87.152 115.104  0.00  0.00    -0.090 HD
ENDBRANCH   5  18
BRANCH   3  22
ATOM     22  C   LIG d   1       7.752  89.582 117.363  0.00  0.00     0.382 C 
ATOM     23  O   LIG d   1       8.072  90.750 117.690  0.00  0.00    -0.241 OA
ATOM     24  O   LIG d   1       8.635  88.786 116.992  0.00  0.00    -0.241 OA
ENDBRANCH   3  22
TORSDOF 7
ENDMDL
MODEL 9
REMARK VINA RESULT:      -3.3      2.959      6.110
REMARK  7 active torsions:
REMARK  status: ('A' for Active; 'I' for Inactive)
REMARK    1  A    between atoms: C_2  and  C_3 
REMARK    2  A    between atoms: C_3  and  O_6 
REMARK    3  A    between atoms: C_3  and  C_4 
REMARK    4  A    between atoms: C_7  and  O_6 
REMARK    5  A    between atoms: C_9  and  C_10 
REMARK    6  A    between atoms: N_15  and  C_14 
REMARK    7  A    between atoms: N_20  and  C_19 
REMARK       I    between atoms: C_22  and  N_20 
ROOT
ATOM      1  C   LIG d   1       4.498  89.747 117.794  0.00  0.00     0.161 C 
ATOM      2  C   LIG d   1       5.876  89.736 117.520  0.00  0.00     0.016 C 
ATOM      3  C   LIG d   1       6.560  88.604 117.020  0.00  0.00     0.038 C 
ATOM      4  C   LIG d   1       5.881  87.446 116.613  0.00  0.00     0.028 C 
ATOM      5  C   LIG d   1       4.558  87.233 117.342  0.00  0.00    -0.047 C 
ATOM      6  C   LIG d   1       3.721  88.529 117.252  0.00  0.00     0.091 C 
ENDROOT
BRANCH   1   7
ATOM      7  O   LIG d   1       3.914  90.972 117.307  0.00  0.00    -0.368 OA
BRANCH   7   8
ATOM      8  C   LIG d   1       3.884  92.079 118.240  0.00  0.00     0.119 C 
BRANCH   8   9
ATOM      9  C   LIG d   1       2.526  92.789 118.072  0.00  0.00     0.028 C 
ATOM     10  C   LIG d   1       1.336  91.839 118.289  0.00  0.00     0.006 C 
ENDBRANCH   8   9
BRANCH   8  11
ATOM     11  C   LIG d   1       4.938  93.133 117.890  0.00  0.00     0.028 C 
ATOM     12  C   LIG d   1       6.084  93.193 118.913  0.00  0.00     0.006 C 
ENDBRANCH   8  11
ENDBRANCH   7   8
ENDBRANCH   1   7
BRANCH   6  13
ATOM     13  N   LIG d   1       2.447  88.435 118.011  0.00  0.00    -0.311 N 
ATOM     14  C   LIG d   1       1.290  88.073 117.459  0.00  0.00     0.210 C 
ATOM     15  C   LIG d   1       0.093  88.060 118.416  0.00  0.00     0.109 C 
ATOM     16  O   LIG d   1       1.147  87.731 116.276  0.00  0.00    -0.276 OA
ATOM     17  H   LIG d   1       2.478  88.665 118.985  0.00  0.00     0.149 HD
ENDBRANCH   6  13
BRANCH   5  18
ATOM     18  N   LIG d   1       3.892  86.070 116.725  0.00  0.00     0.381 N 
ATOM     19  H   LIG d   1       2.935  86.291 116.533  0.00  0.00    -0.090 HD
ATOM     20  H   LIG d   1       3.914  85.302 117.372  0.00  0.00    -0.090 HD
ATOM     21  H   LIG d   1       4.358  85.818 115.882  0.00  0.00    -0.090 HD
ENDBRANCH   5  18
BRANCH   3  22
ATOM     22  C   LIG d   1       7.946  88.610 116.959  0.00  0.00     0.382 C 
ATOM     23  O   LIG d   1       8.575  89.684 117.117  0.00  0.00    -0.241 OA
ATOM     24  O   LIG d   1       8.571  87.564 116.705  0.00  0.00    -0.241 OA
ENDBRANCH   3  22
TORSDOF 7
ENDMDL
