MODEL 1
REMARK VINA RESULT:      -4.8      0.000      0.000
REMARK  7 active torsions:
REMARK  status: ('A' for Active; 'I' for Inactive)
REMARK    1  A    between atoms: C_2  and  C_3 
REMARK    2  A    between atoms: C_3  and  O_6 
REMARK    3  A    between atoms: C_3  and  C_4 
REMARK    4  A    between atoms: C_7  and  O_6 
REMARK    5  A    between atoms: C_9  and  C_10 
REMARK    6  A    between atoms: N_15  and  C_14 
REMARK    7  A    between atoms: N_20  and  C_19 
REMARK       I    between atoms: C_22  and  N_20 
ROOT
ATOM      1  C   LIG d   1       4.341  87.582 115.640  0.00  0.00     0.161 C 
ATOM      2  C   LIG d   1       5.303  87.985 116.582  0.00  0.00     0.016 C 
ATOM      3  C   LIG d   1       6.402  88.815 116.266  0.00  0.00     0.038 C 
ATOM      4  C   LIG d   1       6.532  89.427 115.010  0.00  0.00     0.028 C 
ATOM      5  C   LIG d   1       5.862  88.647 113.884  0.00  0.00    -0.047 C 
ATOM      6  C   LIG d   1       4.405  88.330 114.292  0.00  0.00     0.091 C 
ENDROOT
BRANCH   1   7
ATOM      7  O   LIG d   1       3.023  87.690 116.212  0.00  0.00    -0.368 OA
BRANCH   7   8
ATOM      8  C   LIG d   1       2.894  88.568 117.357  0.00  0.00     0.119 C 
BRANCH   8   9
ATOM      9  C   LIG d   1       1.880  87.924 118.322  0.00  0.00     0.028 C 
ATOM     10  C   LIG d   1       0.767  88.899 118.740  0.00  0.00     0.006 C 
ENDBRANCH   8   9
BRANCH   8  11
ATOM     11  C   LIG d   1       2.279  89.914 116.961  0.00  0.00     0.028 C 
ATOM     12  C   LIG d   1       3.303  91.059 116.958  0.00  0.00     0.006 C 
ENDBRANCH   8  11
ENDBRANCH   7   8
ENDBRANCH   1   7
BRANCH   6  13
ATOM     13  N   LIG d   1       3.703  87.496 113.282  0.00  0.00    -0.311 N 
ATOM     14  C   LIG d   1       2.877  87.996 112.365  0.00  0.00     0.210 C 
ATOM     15  C   LIG d   1       2.242  86.959 111.432  0.00  0.00     0.109 C 
ATOM     16  O   LIG d   1       2.634  89.203 112.214  0.00  0.00    -0.276 OA
ATOM     17  H   LIG d   1       3.866  86.508 113.312  0.00  0.00     0.149 HD
ENDBRANCH   6  13
BRANCH   5  18
ATOM     18  N   LIG d   1       5.954  89.465 112.660  0.00  0.00     0.381 N 
ATOM     19  H   LIG d   1       5.772  88.895 111.858  0.00  0.00    -0.090 HD
ATOM     20  H   LIG d   1       6.887  89.829 112.582  0.00  0.00    -0.090 HD
ATOM     21  H   LIG d   1       5.299  90.214 112.700  0.00  0.00    -0.090 HD
ENDBRANCH   5  18
BRANCH   3  22
ATOM     22  C   LIG d   1       7.408  89.009 117.200  0.00  0.00     0.382 C 
ATOM     23  O   LIG d   1       8.395  89.731 116.918  0.00  0.00    -0.241 OA
ATOM     24  O   LIG d   1       7.364  88.436 118.305  0.00  0.00    -0.241 OA
ENDBRANCH   3  22
TORSDOF 7
ENDMDL
MODEL 2
REMARK VINA RESULT:      -4.8      1.720      4.724
REMARK  7 active torsions:
REMARK  status: ('A' for Active; 'I' for Inactive)
REMARK    1  A    between atoms: C_2  and  C_3 
REMARK    2  A    between atoms: C_3  and  O_6 
REMARK    3  A    between atoms: C_3  and  C_4 
REMARK    4  A    between atoms: C_7  and  O_6 
REMARK    5  A    between atoms: C_9  and  C_10 
REMARK    6  A    between atoms: N_15  and  C_14 
REMARK    7  A    between atoms: N_20  and  C_19 
REMARK       I    between atoms: C_22  and  N_20 
ROOT
ATOM      1  C   LIG d   1       4.600  87.952 115.456  0.00  0.00     0.161 C 
ATOM      2  C   LIG d   1       3.667  87.360 114.588  0.00  0.00     0.016 C 
ATOM      3  C   LIG d   1       3.718  87.497 113.182  0.00  0.00     0.038 C 
ATOM      4  C   LIG d   1       4.798  88.115 112.535  0.00  0.00     0.028 C 
ATOM      5  C   LIG d   1       5.500  89.163 113.394  0.00  0.00    -0.047 C 
ATOM      6  C   LIG d   1       5.848  88.537 114.763  0.00  0.00     0.091 C 
ENDROOT
BRANCH   1   7
ATOM      7  O   LIG d   1       4.987  87.008 116.474  0.00  0.00    -0.368 OA
BRANCH   7   8
ATOM      8  C   LIG d   1       4.545  87.306 117.821  0.00  0.00     0.119 C 
BRANCH   8   9
ATOM      9  C   LIG d   1       3.514  86.231 118.218  0.00  0.00     0.028 C 
ATOM     10  C   LIG d   1       2.138  86.831 118.549  0.00  0.00     0.006 C 
ENDBRANCH   8   9
BRANCH   8  11
ATOM     11  C   LIG d   1       3.786  88.635 117.878  0.00  0.00     0.028 C 
ATOM     12  C   LIG d   1       4.470  89.673 118.782  0.00  0.00     0.006 C 
ENDBRANCH   8  11
ENDBRANCH   7   8
ENDBRANCH   1   7
BRANCH   6  13
ATOM     13  N   LIG d   1       6.462  89.519 115.695  0.00  0.00    -0.311 N 
ATOM     14  C   LIG d   1       7.469  89.222 116.514  0.00  0.00     0.210 C 
ATOM     15  C   LIG d   1       7.939  90.375 117.406  0.00  0.00     0.109 C 
ATOM     16  O   LIG d   1       8.040  88.122 116.563  0.00  0.00    -0.276 OA
ATOM     17  H   LIG d   1       6.080  90.444 115.699  0.00  0.00     0.149 HD
ENDBRANCH   6  13
BRANCH   5  18
ATOM     18  N   LIG d   1       6.687  89.626 112.651  0.00  0.00     0.381 N 
ATOM     19  H   LIG d   1       6.836  90.600 112.825  0.00  0.00    -0.090 HD
ATOM     20  H   LIG d   1       6.523  89.503 111.667  0.00  0.00    -0.090 HD
ATOM     21  H   LIG d   1       7.488  89.104 112.929  0.00  0.00    -0.090 HD
ENDBRANCH   5  18
BRANCH   3  22
ATOM     22  C   LIG d   1       2.658  87.048 112.409  0.00  0.00     0.382 C 
ATOM     23  O   LIG d   1       1.933  87.870 111.799  0.00  0.00    -0.241 OA
ATOM     24  O   LIG d   1       2.389  85.833 112.351  0.00  0.00    -0.241 OA
ENDBRANCH   3  22
TORSDOF 7
ENDMDL
MODEL 3
REMARK VINA RESULT:      -4.7      2.673      5.406
REMARK  7 active torsions:
REMARK  status: ('A' for Active; 'I' for Inactive)
REMARK    1  A    between atoms: C_2  and  C_3 
REMARK    2  A    between atoms: C_3  and  O_6 
REMARK    3  A    between atoms: C_3  and  C_4 
REMARK    4  A    between atoms: C_7  and  O_6 
REMARK    5  A    between atoms: C_9  and  C_10 
REMARK    6  A    between atoms: N_15  and  C_14 
REMARK    7  A    between atoms: N_20  and  C_19 
REMARK       I    between atoms: C_22  and  N_20 
ROOT
ATOM      1  C   LIG d   1       5.039  87.900 116.101  0.00  0.00     0.161 C 
ATOM      2  C   LIG d   1       4.043  88.889 116.041  0.00  0.00     0.016 C 
ATOM      3  C   LIG d   1       4.154  90.145 116.682  0.00  0.00     0.038 C 
ATOM      4  C   LIG d   1       5.342  90.557 117.304  0.00  0.00     0.028 C 
ATOM      5  C   LIG d   1       6.188  89.398 117.822  0.00  0.00    -0.047 C 
ATOM      6  C   LIG d   1       6.387  88.374 116.681  0.00  0.00     0.091 C 
ENDROOT
BRANCH   1   7
ATOM      7  O   LIG d   1       5.231  87.322 114.794  0.00  0.00    -0.368 OA
BRANCH   7   8
ATOM      8  C   LIG d   1       4.275  87.711 113.778  0.00  0.00     0.119 C 
BRANCH   8   9
ATOM      9  C   LIG d   1       3.668  86.420 113.195  0.00  0.00     0.028 C 
ATOM     10  C   LIG d   1       3.816  86.340 111.666  0.00  0.00     0.006 C 
ENDBRANCH   8   9
BRANCH   8  11
ATOM     11  C   LIG d   1       4.966  88.403 112.599  0.00  0.00     0.028 C 
ATOM     12  C   LIG d   1       6.017  89.432 113.044  0.00  0.00     0.006 C 
ENDBRANCH   8  11
ENDBRANCH   7   8
ENDBRANCH   1   7
BRANCH   6  13
ATOM     13  N   LIG d   1       7.134  87.168 117.126  0.00  0.00    -0.311 N 
ATOM     14  C   LIG d   1       8.462  87.071 117.084  0.00  0.00     0.210 C 
ATOM     15  C   LIG d   1       9.028  85.734 117.572  0.00  0.00     0.109 C 
ATOM     16  O   LIG d   1       9.226  87.977 116.719  0.00  0.00    -0.276 OA
ATOM     17  H   LIG d   1       6.594  86.397 117.467  0.00  0.00     0.149 HD
ENDBRANCH   6  13
BRANCH   5  18
ATOM     18  N   LIG d   1       7.457  89.961 118.321  0.00  0.00     0.381 N 
ATOM     19  H   LIG d   1       7.271  90.622 119.049  0.00  0.00    -0.090 HD
ATOM     20  H   LIG d   1       7.918  90.442 117.569  0.00  0.00    -0.090 HD
ATOM     21  H   LIG d   1       8.041  89.232 118.666  0.00  0.00    -0.090 HD
ENDBRANCH   5  18
BRANCH   3  22
ATOM     22  C   LIG d   1       3.055  90.987 116.739  0.00  0.00     0.382 C 
ATOM     23  O   LIG d   1       1.899  90.505 116.823  0.00  0.00    -0.241 OA
ATOM     24  O   LIG d   1       3.200  92.222 116.661  0.00  0.00    -0.241 OA
ENDBRANCH   3  22
TORSDOF 7
ENDMDL
MODEL 4
REMARK VINA RESULT:      -4.4      2.425      5.520
REMARK  7 active torsions:
REMARK  status: ('A' for Active; 'I' for Inactive)
REMARK    1  A    between atoms: C_2  and  C_3 
REMARK    2  A    between atoms: C_3  and  O_6 
REMARK    3  A    between atoms: C_3  and  C_4 
REMARK    4  A    between atoms: C_7  and  O_6 
REMARK    5  A    between atoms: C_9  and  C_10 
REMARK    6  A    between atoms: N_15  and  C_14 
REMARK    7  A    between atoms: N_20  and  C_19 
REMARK       I    between atoms: C_22  and  N_20 
ROOT
ATOM      1  C   LIG d   1       4.581  88.278 116.434  0.00  0.00     0.161 C 
ATOM      2  C   LIG d   1       3.258  88.742 116.530  0.00  0.00     0.016 C 
ATOM      3  C   LIG d   1       2.886  89.885 117.275  0.00  0.00     0.038 C 
ATOM      4  C   LIG d   1       3.840  90.735 117.855  0.00  0.00     0.028 C 
ATOM      5  C   LIG d   1       5.145  90.029 118.208  0.00  0.00    -0.047 C 
ATOM      6  C   LIG d   1       5.649  89.256 116.968  0.00  0.00     0.091 C 
ENDROOT
BRANCH   1   7
ATOM      7  O   LIG d   1       4.873  87.913 115.071  0.00  0.00    -0.368 OA
BRANCH   7   8
ATOM      8  C   LIG d   1       3.900  88.324 114.079  0.00  0.00     0.119 C 
BRANCH   8   9
ATOM      9  C   LIG d   1       3.662  87.125 113.141  0.00  0.00     0.028 C 
ATOM     10  C   LIG d   1       2.707  87.466 111.984  0.00  0.00     0.006 C 
ENDBRANCH   8   9
BRANCH   8  11
ATOM     11  C   LIG d   1       4.453  89.436 113.183  0.00  0.00     0.028 C 
ATOM     12  C   LIG d   1       5.967  89.313 112.946  0.00  0.00     0.006 C 
ENDBRANCH   8  11
ENDBRANCH   7   8
ENDBRANCH   1   7
BRANCH   6  13
ATOM     13  N   LIG d   1       6.877  88.469 117.252  0.00  0.00    -0.311 N 
ATOM     14  C   LIG d   1       8.109  88.950 117.095  0.00  0.00     0.210 C 
ATOM     15  C   LIG d   1       9.235  87.965 117.425  0.00  0.00     0.109 C 
ATOM     16  O   LIG d   1       8.376  90.109 116.744  0.00  0.00    -0.276 OA
ATOM     17  H   LIG d   1       6.753  87.528 117.571  0.00  0.00     0.149 HD
ENDBRANCH   6  13
BRANCH   5  18
ATOM     18  N   LIG d   1       6.095  91.056 118.675  0.00  0.00     0.381 N 
ATOM     19  H   LIG d   1       5.654  91.641 119.357  0.00  0.00    -0.090 HD
ATOM     20  H   LIG d   1       6.363  91.630 117.894  0.00  0.00    -0.090 HD
ATOM     21  H   LIG d   1       6.900  90.622 119.069  0.00  0.00    -0.090 HD
ENDBRANCH   5  18
BRANCH   3  22
ATOM     22  C   LIG d   1       1.544  90.165 117.479  0.00  0.00     0.382 C 
ATOM     23  O   LIG d   1       1.175  90.730 118.537  0.00  0.00    -0.241 OA
ATOM     24  O   LIG d   1       0.692  89.820 116.638  0.00  0.00    -0.241 OA
ENDBRANCH   3  22
TORSDOF 7
ENDMDL
MODEL 5
REMARK VINA RESULT:      -4.1      2.156      5.152
REMARK  7 active torsions:
REMARK  status: ('A' for Active; 'I' for Inactive)
REMARK    1  A    between atoms: C_2  and  C_3 
REMARK    2  A    between atoms: C_3  and  O_6 
REMARK    3  A    between atoms: C_3  and  C_4 
REMARK    4  A    between atoms: C_7  and  O_6 
REMARK    5  A    between atoms: C_9  and  C_10 
REMARK    6  A    between atoms: N_15  and  C_14 
REMARK    7  A    between atoms: N_20  and  C_19 
REMARK       I    between atoms: C_22  and  N_20 
ROOT
ATOM      1  C   LIG d   1       4.690  90.349 116.449  0.00  0.00     0.161 C 
ATOM      2  C   LIG d   1       3.777  89.916 115.473  0.00  0.00     0.016 C 
ATOM      3  C   LIG d   1       4.022  88.826 114.607  0.00  0.00     0.038 C 
ATOM      4  C   LIG d   1       5.141  87.994 114.760  0.00  0.00     0.028 C 
ATOM      5  C   LIG d   1       6.333  88.696 115.403  0.00  0.00    -0.047 C 
ATOM      6  C   LIG d   1       5.868  89.385 116.705  0.00  0.00     0.091 C 
ENDROOT
BRANCH   1   7
ATOM      7  O   LIG d   1       3.994  90.628 117.680  0.00  0.00    -0.368 OA
BRANCH   7   8
ATOM      8  C   LIG d   1       2.585  90.943 117.558  0.00  0.00     0.119 C 
BRANCH   8   9
ATOM      9  C   LIG d   1       2.410  92.430 117.923  0.00  0.00     0.028 C 
ATOM     10  C   LIG d   1       1.028  92.728 118.527  0.00  0.00     0.006 C 
ENDBRANCH   8   9
BRANCH   8  11
ATOM     11  C   LIG d   1       1.751  90.173 118.586  0.00  0.00     0.028 C 
ATOM     12  C   LIG d   1       1.151  88.878 118.017  0.00  0.00     0.006 C 
ENDBRANCH   8  11
ENDBRANCH   7   8
ENDBRANCH   1   7
BRANCH   6  13
ATOM     13  N   LIG d   1       6.954  90.165 117.353  0.00  0.00    -0.311 N 
ATOM     14  C   LIG d   1       7.737  89.674 118.312  0.00  0.00     0.210 C 
ATOM     15  C   LIG d   1       8.782  90.653 118.858  0.00  0.00     0.109 C 
ATOM     16  O   LIG d   1       7.687  88.511 118.740  0.00  0.00    -0.276 OA
ATOM     17  H   LIG d   1       7.085  91.109 117.045  0.00  0.00     0.149 HD
ENDBRANCH   6  13
BRANCH   5  18
ATOM     18  N   LIG d   1       7.379  87.680 115.628  0.00  0.00     0.381 N 
ATOM     19  H   LIG d   1       8.258  88.130 115.792  0.00  0.00    -0.090 HD
ATOM     20  H   LIG d   1       7.464  87.112 114.804  0.00  0.00    -0.090 HD
ATOM     21  H   LIG d   1       7.139  87.110 116.409  0.00  0.00    -0.090 HD
ENDBRANCH   5  18
BRANCH   3  22
ATOM     22  C   LIG d   1       3.161  88.583 113.548  0.00  0.00     0.382 C 
ATOM     23  O   LIG d   1       2.657  87.443 113.398  0.00  0.00    -0.241 OA
ATOM     24  O   LIG d   1       2.916  89.476 112.715  0.00  0.00    -0.241 OA
ENDBRANCH   3  22
TORSDOF 7
ENDMDL
MODEL 6
REMARK VINA RESULT:      -4.0      2.146      4.760
REMARK  7 active torsions:
REMARK  status: ('A' for Active; 'I' for Inactive)
REMARK    1  A    between atoms: C_2  and  C_3 
REMARK    2  A    between atoms: C_3  and  O_6 
REMARK    3  A    between atoms: C_3  and  C_4 
REMARK    4  A    between atoms: C_7  and  O_6 
REMARK    5  A    between atoms: C_9  and  C_10 
REMARK    6  A    between atoms: N_15  and  C_14 
REMARK    7  A    between atoms: N_20  and  C_19 
REMARK       I    between atoms: C_22  and  N_20 
ROOT
ATOM      1  C   LIG d   1       4.100  90.050 115.505  0.00  0.00     0.161 C 
ATOM      2  C   LIG d   1       3.540  89.491 114.344  0.00  0.00     0.016 C 
ATOM      3  C   LIG d   1       3.599  88.112 114.037  0.00  0.00     0.038 C 
ATOM      4  C   LIG d   1       4.094  87.170 114.951  0.00  0.00     0.028 C 
ATOM      5  C   LIG d   1       5.125  87.746 115.916  0.00  0.00    -0.047 C 
ATOM      6  C   LIG d   1       4.546  89.023 116.566  0.00  0.00     0.091 C 
ENDROOT
BRANCH   1   7
ATOM      7  O   LIG d   1       3.182  91.000 116.081  0.00  0.00    -0.368 OA
BRANCH   7   8
ATOM      8  C   LIG d   1       2.764  90.736 117.443  0.00  0.00     0.119 C 
BRANCH   8   9
ATOM      9  C   LIG d   1       1.305  90.245 117.393  0.00  0.00     0.028 C 
ATOM     10  C   LIG d   1       1.097  88.941 118.183  0.00  0.00     0.006 C 
ENDBRANCH   8   9
BRANCH   8  11
ATOM     11  C   LIG d   1       2.731  92.023 118.274  0.00  0.00     0.028 C 
ATOM     12  C   LIG d   1       4.022  92.846 118.150  0.00  0.00     0.006 C 
ENDBRANCH   8  11
ENDBRANCH   7   8
ENDBRANCH   1   7
BRANCH   6  13
ATOM     13  N   LIG d   1       5.523  89.696 117.461  0.00  0.00    -0.311 N 
ATOM     14  C   LIG d   1       6.752  90.039 117.079  0.00  0.00     0.210 C 
ATOM     15  C   LIG d   1       7.604  90.706 118.164  0.00  0.00     0.109 C 
ATOM     16  O   LIG d   1       7.206  89.884 115.935  0.00  0.00    -0.276 OA
ATOM     17  H   LIG d   1       5.226  89.888 118.398  0.00  0.00     0.149 HD
ENDBRANCH   6  13
BRANCH   5  18
ATOM     18  N   LIG d   1       5.453  86.694 116.898  0.00  0.00     0.381 N 
ATOM     19  H   LIG d   1       5.461  85.801 116.447  0.00  0.00    -0.090 HD
ATOM     20  H   LIG d   1       4.745  86.682 117.610  0.00  0.00    -0.090 HD
ATOM     21  H   LIG d   1       6.343  86.876 117.307  0.00  0.00    -0.090 HD
ENDBRANCH   5  18
BRANCH   3  22
ATOM     22  C   LIG d   1       3.196  87.668 112.787  0.00  0.00     0.382 C 
ATOM     23  O   LIG d   1       3.957  87.802 111.799  0.00  0.00    -0.241 OA
ATOM     24  O   LIG d   1       2.063  87.176 112.627  0.00  0.00    -0.241 OA
ENDBRANCH   3  22
TORSDOF 7
ENDMDL
MODEL 7
REMARK VINA RESULT:      -3.9      2.214      4.942
REMARK  7 active torsions:
REMARK  status: ('A' for Active; 'I' for Inactive)
REMARK    1  A    between atoms: C_2  and  C_3 
REMARK    2  A    between atoms: C_3  and  O_6 
REMARK    3  A    between atoms: C_3  and  C_4 
REMARK    4  A    between atoms: C_7  and  O_6 
REMARK    5  A    between atoms: C_9  and  C_10 
REMARK    6  A    between atoms: N_15  and  C_14 
REMARK    7  A    between atoms: N_20  and  C_19 
REMARK       I    between atoms: C_22  and  N_20 
ROOT
ATOM      1  C   LIG d   1       5.153  89.461 116.234  0.00  0.00     0.161 C 
ATOM      2  C   LIG d   1       4.459  89.722 115.041  0.00  0.00     0.016 C 
ATOM      3  C   LIG d   1       3.928  88.708 114.210  0.00  0.00     0.038 C 
ATOM      4  C   LIG d   1       3.925  87.360 114.597  0.00  0.00     0.028 C 
ATOM      5  C   LIG d   1       5.060  87.000 115.551  0.00  0.00    -0.047 C 
ATOM      6  C   LIG d   1       5.062  88.002 116.728  0.00  0.00     0.091 C 
ENDROOT
BRANCH   1   7
ATOM      7  O   LIG d   1       4.712  90.367 117.264  0.00  0.00    -0.368 OA
BRANCH   7   8
ATOM      8  C   LIG d   1       3.402  90.957 117.077  0.00  0.00     0.119 C 
BRANCH   8   9
ATOM      9  C   LIG d   1       3.489  92.429 117.523  0.00  0.00     0.028 C 
ATOM     10  C   LIG d   1       4.670  92.685 118.474  0.00  0.00     0.006 C 
ENDBRANCH   8   9
BRANCH   8  11
ATOM     11  C   LIG d   1       2.364  90.314 118.001  0.00  0.00     0.028 C 
ATOM     12  C   LIG d   1       1.455  89.312 117.271  0.00  0.00     0.006 C 
ENDBRANCH   8  11
ENDBRANCH   7   8
ENDBRANCH   1   7
BRANCH   6  13
ATOM     13  N   LIG d   1       6.193  87.773 117.665  0.00  0.00    -0.311 N 
ATOM     14  C   LIG d   1       7.412  87.412 117.267  0.00  0.00     0.210 C 
ATOM     15  C   LIG d   1       8.427  87.210 118.397  0.00  0.00     0.109 C 
ATOM     16  O   LIG d   1       7.758  87.272 116.085  0.00  0.00    -0.276 OA
ATOM     17  H   LIG d   1       6.009  87.895 118.641  0.00  0.00     0.149 HD
ENDBRANCH   6  13
BRANCH   5  18
ATOM     18  N   LIG d   1       4.855  85.604 115.980  0.00  0.00     0.381 N 
ATOM     19  H   LIG d   1       4.531  85.584 116.926  0.00  0.00    -0.090 HD
ATOM     20  H   LIG d   1       5.735  85.119 115.938  0.00  0.00    -0.090 HD
ATOM     21  H   LIG d   1       4.193  85.158 115.385  0.00  0.00    -0.090 HD
ENDBRANCH   5  18
BRANCH   3  22
ATOM     22  C   LIG d   1       3.429  89.036 112.959  0.00  0.00     0.382 C 
ATOM     23  O   LIG d   1       2.892  90.154 112.771  0.00  0.00    -0.241 OA
ATOM     24  O   LIG d   1       3.469  88.210 112.027  0.00  0.00    -0.241 OA
ENDBRANCH   3  22
TORSDOF 7
ENDMDL
MODEL 8
REMARK VINA RESULT:      -3.9      2.418      4.603
REMARK  7 active torsions:
REMARK  status: ('A' for Active; 'I' for Inactive)
REMARK    1  A    between atoms: C_2  and  C_3 
REMARK    2  A    between atoms: C_3  and  O_6 
REMARK    3  A    between atoms: C_3  and  C_4 
REMARK    4  A    between atoms: C_7  and  O_6 
REMARK    5  A    between atoms: C_9  and  C_10 
REMARK    6  A    between atoms: N_15  and  C_14 
REMARK    7  A    between atoms: N_20  and  C_19 
REMARK       I    between atoms: C_22  and  N_20 
ROOT
ATOM      1  C   LIG d   1       4.839  89.127 115.476  0.00  0.00     0.161 C 
ATOM      2  C   LIG d   1       4.443  90.315 116.113  0.00  0.00     0.016 C 
ATOM      3  C   LIG d   1       3.446  90.365 117.115  0.00  0.00     0.038 C 
ATOM      4  C   LIG d   1       2.882  89.202 117.658  0.00  0.00     0.028 C 
ATOM      5  C   LIG d   1       2.885  88.020 116.695  0.00  0.00    -0.047 C 
ATOM      6  C   LIG d   1       4.314  87.834 116.134  0.00  0.00     0.091 C 
ENDROOT
BRANCH   1   7
ATOM      7  O   LIG d   1       6.276  89.086 115.369  0.00  0.00    -0.368 OA
BRANCH   7   8
ATOM      8  C   LIG d   1       6.997  88.759 116.583  0.00  0.00     0.119 C 
BRANCH   8   9
ATOM      9  C   LIG d   1       7.940  89.937 116.893  0.00  0.00     0.028 C 
ATOM     10  C   LIG d   1       7.505  90.724 118.141  0.00  0.00     0.006 C 
ENDBRANCH   8   9
BRANCH   8  11
ATOM     11  C   LIG d   1       7.913  87.549 116.377  0.00  0.00     0.028 C 
ATOM     12  C   LIG d   1       7.510  86.343 117.242  0.00  0.00     0.006 C 
ENDBRANCH   8  11
ENDBRANCH   7   8
ENDBRANCH   1   7
BRANCH   6  13
ATOM     13  N   LIG d   1       4.388  86.751 115.119  0.00  0.00    -0.311 N 
ATOM     14  C   LIG d   1       3.654  86.737 114.007  0.00  0.00     0.210 C 
ATOM     15  C   LIG d   1       3.870  85.517 113.105  0.00  0.00     0.109 C 
ATOM     16  O   LIG d   1       2.868  87.634 113.667  0.00  0.00    -0.276 OA
ATOM     17  H   LIG d   1       5.023  85.998 115.300  0.00  0.00     0.149 HD
ENDBRANCH   6  13
BRANCH   5  18
ATOM     18  N   LIG d   1       2.396  86.841 117.434  0.00  0.00     0.381 N 
ATOM     19  H   LIG d   1       2.573  86.011 116.903  0.00  0.00    -0.090 HD
ATOM     20  H   LIG d   1       1.403  86.927 117.563  0.00  0.00    -0.090 HD
ATOM     21  H   LIG d   1       2.850  86.780 118.318  0.00  0.00    -0.090 HD
ENDBRANCH   5  18
BRANCH   3  22
ATOM     22  C   LIG d   1       2.977  91.593 117.555  0.00  0.00     0.382 C 
ATOM     23  O   LIG d   1       3.112  92.611 116.835  0.00  0.00    -0.241 OA
ATOM     24  O   LIG d   1       2.459  91.704 118.683  0.00  0.00    -0.241 OA
ENDBRANCH   3  22
TORSDOF 7
ENDMDL
MODEL 9
REMARK VINA RESULT:      -3.7      2.745      5.729
REMARK  7 active torsions:
REMARK  status: ('A' for Active; 'I' for Inactive)
REMARK    1  A    between atoms: C_2  and  C_3 
REMARK    2  A    between atoms: C_3  and  O_6 
REMARK    3  A    between atoms: C_3  and  C_4 
REMARK    4  A    between atoms: C_7  and  O_6 
REMARK    5  A    between atoms: C_9  and  C_10 
REMARK    6  A    between atoms: N_15  and  C_14 
REMARK    7  A    between atoms: N_20  and  C_19 
REMARK       I    between atoms: C_22  and  N_20 
ROOT
ATOM      1  C   LIG d   1       6.602  89.680 116.742  0.00  0.00     0.161 C 
ATOM      2  C   LIG d   1       5.364  90.343 116.782  0.00  0.00     0.016 C 
ATOM      3  C   LIG d   1       4.146  89.741 116.392  0.00  0.00     0.038 C 
ATOM      4  C   LIG d   1       4.060  88.377 116.077  0.00  0.00     0.028 C 
ATOM      5  C   LIG d   1       5.364  87.797 115.539  0.00  0.00    -0.047 C 
ATOM      6  C   LIG d   1       6.512  88.157 116.508  0.00  0.00     0.091 C 
ENDROOT
BRANCH   1   7
ATOM      7  O   LIG d   1       7.344  89.959 117.946  0.00  0.00    -0.368 OA
BRANCH   7   8
ATOM      8  C   LIG d   1       8.069  91.213 117.972  0.00  0.00     0.119 C 
BRANCH   8   9
ATOM      9  C   LIG d   1       9.458  90.932 118.577  0.00  0.00     0.028 C 
ATOM     10  C   LIG d   1       9.669  89.443 118.896  0.00  0.00     0.006 C 
ENDBRANCH   8   9
BRANCH   8  11
ATOM     11  C   LIG d   1       7.409  92.218 118.920  0.00  0.00     0.028 C 
ATOM     12  C   LIG d   1       8.077  93.602 118.881  0.00  0.00     0.006 C 
ENDBRANCH   8  11
ENDBRANCH   7   8
ENDBRANCH   1   7
BRANCH   6  13
ATOM     13  N   LIG d   1       7.837  87.700 116.013  0.00  0.00    -0.311 N 
ATOM     14  C   LIG d   1       8.575  86.783 116.635  0.00  0.00     0.210 C 
ATOM     15  C   LIG d   1       9.918  86.471 115.966  0.00  0.00     0.109 C 
ATOM     16  O   LIG d   1       8.232  86.175 117.660  0.00  0.00    -0.276 OA
ATOM     17  H   LIG d   1       8.178  88.118 115.170  0.00  0.00     0.149 HD
ENDBRANCH   6  13
BRANCH   5  18
ATOM     18  N   LIG d   1       5.173  86.342 115.383  0.00  0.00     0.381 N 
ATOM     19  H   LIG d   1       4.388  86.043 115.927  0.00  0.00    -0.090 HD
ATOM     20  H   LIG d   1       5.992  85.869 115.724  0.00  0.00    -0.090 HD
ATOM     21  H   LIG d   1       5.027  86.118 114.424  0.00  0.00    -0.090 HD
ENDBRANCH   5  18
BRANCH   3  22
ATOM     22  C   LIG d   1       3.002  90.517 116.276  0.00  0.00     0.382 C 
ATOM     23  O   LIG d   1       3.065  91.757 116.456  0.00  0.00    -0.241 OA
ATOM     24  O   LIG d   1       1.901  89.987 116.037  0.00  0.00    -0.241 OA
ENDBRANCH   3  22
TORSDOF 7
ENDMDL
