MODEL 1
REMARK VINA RESULT:      -4.5      0.000      0.000
REMARK  7 active torsions:
REMARK  status: ('A' for Active; 'I' for Inactive)
REMARK    1  A    between atoms: C_2  and  C_3 
REMARK    2  A    between atoms: C_3  and  O_6 
REMARK    3  A    between atoms: C_3  and  C_4 
REMARK    4  A    between atoms: C_7  and  O_6 
REMARK    5  A    between atoms: C_9  and  C_10 
REMARK    6  A    between atoms: N_15  and  C_14 
REMARK    7  A    between atoms: N_20  and  C_19 
REMARK       I    between atoms: C_22  and  N_20 
ROOT
ATOM      1  C   LIG d   1       2.786  88.615 116.262  0.00  0.00     0.161 C 
ATOM      2  C   LIG d   1       3.138  89.583 117.218  0.00  0.00     0.016 C 
ATOM      3  C   LIG d   1       4.063  90.622 116.967  0.00  0.00     0.038 C 
ATOM      4  C   LIG d   1       4.588  90.855 115.687  0.00  0.00     0.028 C 
ATOM      5  C   LIG d   1       4.650  89.602 114.821  0.00  0.00    -0.047 C 
ATOM      6  C   LIG d   1       3.264  88.919 114.827  0.00  0.00     0.091 C 
ENDROOT
BRANCH   1   7
ATOM      7  O   LIG d   1       1.360  88.406 116.282  0.00  0.00    -0.368 OA
BRANCH   7   8
ATOM      8  C   LIG d   1       0.909  87.139 116.821  0.00  0.00     0.119 C 
BRANCH   8   9
ATOM      9  C   LIG d   1       0.171  87.435 118.142  0.00  0.00     0.028 C 
ATOM     10  C   LIG d   1      -1.244  87.992 117.911  0.00  0.00     0.006 C 
ENDBRANCH   8   9
BRANCH   8  11
ATOM     11  C   LIG d   1       2.091  86.246 117.209  0.00  0.00     0.028 C 
ATOM     12  C   LIG d   1       1.828  85.430 118.485  0.00  0.00     0.006 C 
ENDBRANCH   8  11
ENDBRANCH   7   8
ENDBRANCH   1   7
BRANCH   6  13
ATOM     13  N   LIG d   1       3.259  87.639 114.071  0.00  0.00    -0.311 N 
ATOM     14  C   LIG d   1       2.860  87.537 112.805  0.00  0.00     0.210 C 
ATOM     15  C   LIG d   1       2.917  86.122 112.221  0.00  0.00     0.109 C 
ATOM     16  O   LIG d   1       2.496  88.490 112.099  0.00  0.00    -0.276 OA
ATOM     17  H   LIG d   1       3.570  86.821 114.558  0.00  0.00     0.149 HD
ENDBRANCH   6  13
BRANCH   5  18
ATOM     18  N   LIG d   1       5.086  90.013 113.473  0.00  0.00     0.381 N 
ATOM     19  H   LIG d   1       6.006  90.404 113.519  0.00  0.00    -0.090 HD
ATOM     20  H   LIG d   1       4.460  90.720 113.130  0.00  0.00    -0.090 HD
ATOM     21  H   LIG d   1       5.081  89.229 112.859  0.00  0.00    -0.090 HD
ENDBRANCH   5  18
BRANCH   3  22
ATOM     22  C   LIG d   1       4.503  91.418 118.014  0.00  0.00     0.382 C 
ATOM     23  O   LIG d   1       4.086  92.596 118.124  0.00  0.00    -0.241 OA
ATOM     24  O   LIG d   1       5.344  90.987 118.825  0.00  0.00    -0.241 OA
ENDBRANCH   3  22
TORSDOF 7
ENDMDL
MODEL 2
REMARK VINA RESULT:      -4.5      1.025      1.768
REMARK  7 active torsions:
REMARK  status: ('A' for Active; 'I' for Inactive)
REMARK    1  A    between atoms: C_2  and  C_3 
REMARK    2  A    between atoms: C_3  and  O_6 
REMARK    3  A    between atoms: C_3  and  C_4 
REMARK    4  A    between atoms: C_7  and  O_6 
REMARK    5  A    between atoms: C_9  and  C_10 
REMARK    6  A    between atoms: N_15  and  C_14 
REMARK    7  A    between atoms: N_20  and  C_19 
REMARK       I    between atoms: C_22  and  N_20 
ROOT
ATOM      1  C   LIG d   1       2.922  88.492 116.280  0.00  0.00     0.161 C 
ATOM      2  C   LIG d   1       3.298  89.419 117.268  0.00  0.00     0.016 C 
ATOM      3  C   LIG d   1       4.178  90.499 117.027  0.00  0.00     0.038 C 
ATOM      4  C   LIG d   1       4.627  90.816 115.736  0.00  0.00     0.028 C 
ATOM      5  C   LIG d   1       4.678  89.613 114.800  0.00  0.00    -0.047 C 
ATOM      6  C   LIG d   1       3.314  88.887 114.841  0.00  0.00     0.091 C 
ENDROOT
BRANCH   1   7
ATOM      7  O   LIG d   1       1.506  88.238 116.362  0.00  0.00    -0.368 OA
BRANCH   7   8
ATOM      8  C   LIG d   1       0.804  88.885 117.452  0.00  0.00     0.119 C 
BRANCH   8   9
ATOM      9  C   LIG d   1      -0.113  87.831 118.102  0.00  0.00     0.028 C 
ATOM     10  C   LIG d   1      -1.599  88.221 118.029  0.00  0.00     0.006 C 
ENDBRANCH   8   9
BRANCH   8  11
ATOM     11  C   LIG d   1      -0.136  89.979 116.938  0.00  0.00     0.028 C 
ATOM     12  C   LIG d   1       0.360  91.395 117.268  0.00  0.00     0.006 C 
ENDBRANCH   8  11
ENDBRANCH   7   8
ENDBRANCH   1   7
BRANCH   6  13
ATOM     13  N   LIG d   1       3.306  87.650 114.017  0.00  0.00    -0.311 N 
ATOM     14  C   LIG d   1       2.857  87.606 112.764  0.00  0.00     0.210 C 
ATOM     15  C   LIG d   1       2.919  86.226 112.102  0.00  0.00     0.109 C 
ATOM     16  O   LIG d   1       2.442  88.586 112.127  0.00  0.00    -0.276 OA
ATOM     17  H   LIG d   1       3.653  86.814 114.446  0.00  0.00     0.149 HD
ENDBRANCH   6  13
BRANCH   5  18
ATOM     18  N   LIG d   1       5.029  90.109 113.456  0.00  0.00     0.381 N 
ATOM     19  H   LIG d   1       5.940  89.783 113.202  0.00  0.00    -0.090 HD
ATOM     20  H   LIG d   1       5.048  91.114 113.475  0.00  0.00    -0.090 HD
ATOM     21  H   LIG d   1       4.358  89.794 112.790  0.00  0.00    -0.090 HD
ENDBRANCH   5  18
BRANCH   3  22
ATOM     22  C   LIG d   1       4.649  91.251 118.092  0.00  0.00     0.382 C 
ATOM     23  O   LIG d   1       4.336  92.462 118.191  0.00  0.00    -0.241 OA
ATOM     24  O   LIG d   1       5.420  90.746 118.930  0.00  0.00    -0.241 OA
ENDBRANCH   3  22
TORSDOF 7
ENDMDL
MODEL 3
REMARK VINA RESULT:      -4.3      2.037      4.676
REMARK  7 active torsions:
REMARK  status: ('A' for Active; 'I' for Inactive)
REMARK    1  A    between atoms: C_2  and  C_3 
REMARK    2  A    between atoms: C_3  and  O_6 
REMARK    3  A    between atoms: C_3  and  C_4 
REMARK    4  A    between atoms: C_7  and  O_6 
REMARK    5  A    between atoms: C_9  and  C_10 
REMARK    6  A    between atoms: N_15  and  C_14 
REMARK    7  A    between atoms: N_20  and  C_19 
REMARK       I    between atoms: C_22  and  N_20 
ROOT
ATOM      1  C   LIG d   1       2.751  89.525 116.335  0.00  0.00     0.161 C 
ATOM      2  C   LIG d   1       2.678  88.905 115.077  0.00  0.00     0.016 C 
ATOM      3  C   LIG d   1       3.816  88.542 114.321  0.00  0.00     0.038 C 
ATOM      4  C   LIG d   1       5.115  88.638 114.843  0.00  0.00     0.028 C 
ATOM      5  C   LIG d   1       5.262  89.723 115.904  0.00  0.00    -0.047 C 
ATOM      6  C   LIG d   1       4.158  89.537 116.969  0.00  0.00     0.091 C 
ENDROOT
BRANCH   1   7
ATOM      7  O   LIG d   1       1.801  88.920 117.234  0.00  0.00    -0.368 OA
BRANCH   7   8
ATOM      8  C   LIG d   1       0.463  89.475 117.215  0.00  0.00     0.119 C 
BRANCH   8   9
ATOM      9  C   LIG d   1       0.423  90.626 118.238  0.00  0.00     0.028 C 
ATOM     10  C   LIG d   1       0.205  91.995 117.573  0.00  0.00     0.006 C 
ENDBRANCH   8   9
BRANCH   8  11
ATOM     11  C   LIG d   1      -0.569  88.457 117.709  0.00  0.00     0.028 C 
ATOM     12  C   LIG d   1       0.075  87.238 118.390  0.00  0.00     0.006 C 
ENDBRANCH   8  11
ENDBRANCH   7   8
ENDBRANCH   1   7
BRANCH   6  13
ATOM     13  N   LIG d   1       4.178  90.608 118.000  0.00  0.00    -0.311 N 
ATOM     14  C   LIG d   1       3.982  91.896 117.722  0.00  0.00     0.210 C 
ATOM     15  C   LIG d   1       4.064  92.837 118.928  0.00  0.00     0.109 C 
ATOM     16  O   LIG d   1       3.716  92.344 116.597  0.00  0.00    -0.276 OA
ATOM     17  H   LIG d   1       4.356  90.329 118.945  0.00  0.00     0.149 HD
ENDBRANCH   6  13
BRANCH   5  18
ATOM     18  N   LIG d   1       6.625  89.621 116.459  0.00  0.00     0.381 N 
ATOM     19  H   LIG d   1       7.297  89.832 115.749  0.00  0.00    -0.090 HD
ATOM     20  H   LIG d   1       6.780  88.678 116.770  0.00  0.00    -0.090 HD
ATOM     21  H   LIG d   1       6.730  90.252 117.223  0.00  0.00    -0.090 HD
ENDBRANCH   5  18
BRANCH   3  22
ATOM     22  C   LIG d   1       3.663  88.113 113.011  0.00  0.00     0.382 C 
ATOM     23  O   LIG d   1       2.594  88.345 112.396  0.00  0.00    -0.241 OA
ATOM     24  O   LIG d   1       4.563  87.458 112.452  0.00  0.00    -0.241 OA
ENDBRANCH   3  22
TORSDOF 7
ENDMDL
MODEL 4
REMARK VINA RESULT:      -4.2      2.614      5.534
REMARK  7 active torsions:
REMARK  status: ('A' for Active; 'I' for Inactive)
REMARK    1  A    between atoms: C_2  and  C_3 
REMARK    2  A    between atoms: C_3  and  O_6 
REMARK    3  A    between atoms: C_3  and  C_4 
REMARK    4  A    between atoms: C_7  and  O_6 
REMARK    5  A    between atoms: C_9  and  C_10 
REMARK    6  A    between atoms: N_15  and  C_14 
REMARK    7  A    between atoms: N_20  and  C_19 
REMARK       I    between atoms: C_22  and  N_20 
ROOT
ATOM      1  C   LIG d   1       2.244  89.421 116.465  0.00  0.00     0.161 C 
ATOM      2  C   LIG d   1       0.912  89.005 116.622  0.00  0.00     0.016 C 
ATOM      3  C   LIG d   1      -0.013  89.658 117.469  0.00  0.00     0.038 C 
ATOM      4  C   LIG d   1       0.292  90.870 118.105  0.00  0.00     0.028 C 
ATOM      5  C   LIG d   1       1.782  91.054 118.375  0.00  0.00    -0.047 C 
ATOM      6  C   LIG d   1       2.564  90.806 117.065  0.00  0.00     0.091 C 
ENDROOT
BRANCH   1   7
ATOM      7  O   LIG d   1       2.607  89.383 115.071  0.00  0.00    -0.368 OA
BRANCH   7   8
ATOM      8  C   LIG d   1       3.186  88.143 114.596  0.00  0.00     0.119 C 
BRANCH   8   9
ATOM      9  C   LIG d   1       4.320  87.761 115.567  0.00  0.00     0.028 C 
ATOM     10  C   LIG d   1       5.661  88.412 115.189  0.00  0.00     0.006 C 
ENDBRANCH   8   9
BRANCH   8  11
ATOM     11  C   LIG d   1       3.863  88.328 113.235  0.00  0.00     0.028 C 
ATOM     12  C   LIG d   1       3.741  87.089 112.335  0.00  0.00     0.006 C 
ENDBRANCH   8  11
ENDBRANCH   7   8
ENDBRANCH   1   7
BRANCH   6  13
ATOM     13  N   LIG d   1       4.035  90.884 117.260  0.00  0.00    -0.311 N 
ATOM     14  C   LIG d   1       4.731  92.014 117.150  0.00  0.00     0.210 C 
ATOM     15  C   LIG d   1       6.240  91.868 117.370  0.00  0.00     0.109 C 
ATOM     16  O   LIG d   1       4.237  93.129 116.923  0.00  0.00    -0.276 OA
ATOM     17  H   LIG d   1       4.512  90.030 117.478  0.00  0.00     0.149 HD
ENDBRANCH   6  13
BRANCH   5  18
ATOM     18  N   LIG d   1       1.973  92.414 118.914  0.00  0.00     0.381 N 
ATOM     19  H   LIG d   1       1.120  92.932 118.835  0.00  0.00    -0.090 HD
ATOM     20  H   LIG d   1       2.678  92.883 118.372  0.00  0.00    -0.090 HD
ATOM     21  H   LIG d   1       2.254  92.367 119.868  0.00  0.00    -0.090 HD
ENDBRANCH   5  18
BRANCH   3  22
ATOM     22  C   LIG d   1      -1.247  89.076 117.718  0.00  0.00     0.382 C 
ATOM     23  O   LIG d   1      -2.248  89.799 117.941  0.00  0.00    -0.241 OA
ATOM     24  O   LIG d   1      -1.363  87.837 117.767  0.00  0.00    -0.241 OA
ENDBRANCH   3  22
TORSDOF 7
ENDMDL
MODEL 5
REMARK VINA RESULT:      -4.1      2.901      4.855
REMARK  7 active torsions:
REMARK  status: ('A' for Active; 'I' for Inactive)
REMARK    1  A    between atoms: C_2  and  C_3 
REMARK    2  A    between atoms: C_3  and  O_6 
REMARK    3  A    between atoms: C_3  and  C_4 
REMARK    4  A    between atoms: C_7  and  O_6 
REMARK    5  A    between atoms: C_9  and  C_10 
REMARK    6  A    between atoms: N_15  and  C_14 
REMARK    7  A    between atoms: N_20  and  C_19 
REMARK       I    between atoms: C_22  and  N_20 
ROOT
ATOM      1  C   LIG d   1       3.827  87.209 116.117  0.00  0.00     0.161 C 
ATOM      2  C   LIG d   1       2.748  88.107 116.094  0.00  0.00     0.016 C 
ATOM      3  C   LIG d   1       2.801  89.403 116.657  0.00  0.00     0.038 C 
ATOM      4  C   LIG d   1       3.996  89.947 117.152  0.00  0.00     0.028 C 
ATOM      5  C   LIG d   1       4.979  88.895 117.653  0.00  0.00    -0.047 C 
ATOM      6  C   LIG d   1       5.172  87.825 116.554  0.00  0.00     0.091 C 
ENDROOT
BRANCH   1   7
ATOM      7  O   LIG d   1       3.962  86.573 114.831  0.00  0.00    -0.368 OA
BRANCH   7   8
ATOM      8  C   LIG d   1       3.466  87.323 113.694  0.00  0.00     0.119 C 
BRANCH   8   9
ATOM      9  C   LIG d   1       2.822  86.317 112.721  0.00  0.00     0.028 C 
ATOM     10  C   LIG d   1       3.788  85.877 111.608  0.00  0.00     0.006 C 
ENDBRANCH   8   9
BRANCH   8  11
ATOM     11  C   LIG d   1       4.612  87.969 112.911  0.00  0.00     0.028 C 
ATOM     12  C   LIG d   1       4.890  89.417 113.345  0.00  0.00     0.006 C 
ENDBRANCH   8  11
ENDBRANCH   7   8
ENDBRANCH   1   7
BRANCH   6  13
ATOM     13  N   LIG d   1       6.055  86.713 116.994  0.00  0.00    -0.311 N 
ATOM     14  C   LIG d   1       7.364  86.677 116.753  0.00  0.00     0.210 C 
ATOM     15  C   LIG d   1       8.084  85.430 117.277  0.00  0.00     0.109 C 
ATOM     16  O   LIG d   1       8.004  87.575 116.184  0.00  0.00    -0.276 OA
ATOM     17  H   LIG d   1       5.624  85.958 117.490  0.00  0.00     0.149 HD
ENDBRANCH   6  13
BRANCH   5  18
ATOM     18  N   LIG d   1       6.231  89.588 118.011  0.00  0.00     0.381 N 
ATOM     19  H   LIG d   1       6.967  89.295 117.401  0.00  0.00    -0.090 HD
ATOM     20  H   LIG d   1       6.482  89.340 118.952  0.00  0.00    -0.090 HD
ATOM     21  H   LIG d   1       6.105  90.574 117.943  0.00  0.00    -0.090 HD
ENDBRANCH   5  18
BRANCH   3  22
ATOM     22  C   LIG d   1       1.641  90.154 116.765  0.00  0.00     0.382 C 
ATOM     23  O   LIG d   1       1.686  91.311 117.248  0.00  0.00    -0.241 OA
ATOM     24  O   LIG d   1       0.543  89.672 116.428  0.00  0.00    -0.241 OA
ENDBRANCH   3  22
TORSDOF 7
ENDMDL
MODEL 6
REMARK VINA RESULT:      -4.0      2.549      4.241
REMARK  7 active torsions:
REMARK  status: ('A' for Active; 'I' for Inactive)
REMARK    1  A    between atoms: C_2  and  C_3 
REMARK    2  A    between atoms: C_3  and  O_6 
REMARK    3  A    between atoms: C_3  and  C_4 
REMARK    4  A    between atoms: C_7  and  O_6 
REMARK    5  A    between atoms: C_9  and  C_10 
REMARK    6  A    between atoms: N_15  and  C_14 
REMARK    7  A    between atoms: N_20  and  C_19 
REMARK       I    between atoms: C_22  and  N_20 
ROOT
ATOM      1  C   LIG d   1       3.626  89.616 115.789  0.00  0.00     0.161 C 
ATOM      2  C   LIG d   1       2.505  90.306 116.279  0.00  0.00     0.016 C 
ATOM      3  C   LIG d   1       2.594  91.469 117.078  0.00  0.00     0.038 C 
ATOM      4  C   LIG d   1       3.818  92.111 117.316  0.00  0.00     0.028 C 
ATOM      5  C   LIG d   1       5.017  91.170 117.265  0.00  0.00    -0.047 C 
ATOM      6  C   LIG d   1       4.966  90.365 115.946  0.00  0.00     0.091 C 
ENDROOT
BRANCH   1   7
ATOM      7  O   LIG d   1       3.413  89.254 114.410  0.00  0.00    -0.368 OA
BRANCH   7   8
ATOM      8  C   LIG d   1       3.714  87.881 114.057  0.00  0.00     0.119 C 
BRANCH   8   9
ATOM      9  C   LIG d   1       3.208  87.651 112.620  0.00  0.00     0.028 C 
ATOM     10  C   LIG d   1       4.014  86.570 111.880  0.00  0.00     0.006 C 
ENDBRANCH   8   9
BRANCH   8  11
ATOM     11  C   LIG d   1       2.926  86.897 114.927  0.00  0.00     0.028 C 
ATOM     12  C   LIG d   1       3.817  85.818 115.563  0.00  0.00     0.006 C 
ENDBRANCH   8  11
ENDBRANCH   7   8
ENDBRANCH   1   7
BRANCH   6  13
ATOM     13  N   LIG d   1       6.056  89.359 115.854  0.00  0.00    -0.311 N 
ATOM     14  C   LIG d   1       6.220  88.372 116.732  0.00  0.00     0.210 C 
ATOM     15  C   LIG d   1       7.420  87.458 116.462  0.00  0.00     0.109 C 
ATOM     16  O   LIG d   1       5.467  88.147 117.692  0.00  0.00    -0.276 OA
ATOM     17  H   LIG d   1       6.695  89.449 115.088  0.00  0.00     0.149 HD
ENDBRANCH   6  13
BRANCH   5  18
ATOM     18  N   LIG d   1       6.235  91.992 117.393  0.00  0.00     0.381 N 
ATOM     19  H   LIG d   1       6.871  91.773 116.652  0.00  0.00    -0.090 HD
ATOM     20  H   LIG d   1       6.682  91.777 118.267  0.00  0.00    -0.090 HD
ATOM     21  H   LIG d   1       5.999  92.959 117.362  0.00  0.00    -0.090 HD
ENDBRANCH   5  18
BRANCH   3  22
ATOM     22  C   LIG d   1       1.454  91.978 117.680  0.00  0.00     0.382 C 
ATOM     23  O   LIG d   1       1.438  93.165 118.088  0.00  0.00    -0.241 OA
ATOM     24  O   LIG d   1       0.458  91.253 117.862  0.00  0.00    -0.241 OA
ENDBRANCH   3  22
TORSDOF 7
ENDMDL
MODEL 7
REMARK VINA RESULT:      -4.0      3.217      4.502
REMARK  7 active torsions:
REMARK  status: ('A' for Active; 'I' for Inactive)
REMARK    1  A    between atoms: C_2  and  C_3 
REMARK    2  A    between atoms: C_3  and  O_6 
REMARK    3  A    between atoms: C_3  and  C_4 
REMARK    4  A    between atoms: C_7  and  O_6 
REMARK    5  A    between atoms: C_9  and  C_10 
REMARK    6  A    between atoms: N_15  and  C_14 
REMARK    7  A    between atoms: N_20  and  C_19 
REMARK       I    between atoms: C_22  and  N_20 
ROOT
ATOM      1  C   LIG d   1       4.737  88.170 116.862  0.00  0.00     0.161 C 
ATOM      2  C   LIG d   1       3.925  89.308 116.727  0.00  0.00     0.016 C 
ATOM      3  C   LIG d   1       4.402  90.629 116.892  0.00  0.00     0.038 C 
ATOM      4  C   LIG d   1       5.767  90.909 117.054  0.00  0.00     0.028 C 
ATOM      5  C   LIG d   1       6.547  89.768 117.698  0.00  0.00    -0.047 C 
ATOM      6  C   LIG d   1       6.251  88.460 116.929  0.00  0.00     0.091 C 
ENDROOT
BRANCH   1   7
ATOM      7  O   LIG d   1       4.452  87.238 115.800  0.00  0.00    -0.368 OA
BRANCH   7   8
ATOM      8  C   LIG d   1       3.670  87.752 114.693  0.00  0.00     0.119 C 
BRANCH   8   9
ATOM      9  C   LIG d   1       2.704  86.636 114.251  0.00  0.00     0.028 C 
ATOM     10  C   LIG d   1       2.004  85.960 115.442  0.00  0.00     0.006 C 
ENDBRANCH   8   9
BRANCH   8  11
ATOM     11  C   LIG d   1       4.551  88.034 113.472  0.00  0.00     0.028 C 
ATOM     12  C   LIG d   1       4.180  87.168 112.258  0.00  0.00     0.006 C 
ENDBRANCH   8  11
ENDBRANCH   7   8
ENDBRANCH   1   7
BRANCH   6  13
ATOM     13  N   LIG d   1       6.909  87.278 117.545  0.00  0.00    -0.311 N 
ATOM     14  C   LIG d   1       8.040  86.747 117.086  0.00  0.00     0.210 C 
ATOM     15  C   LIG d   1       8.537  85.519 117.856  0.00  0.00     0.109 C 
ATOM     16  O   LIG d   1       8.697  87.195 116.134  0.00  0.00    -0.276 OA
ATOM     17  H   LIG d   1       6.460  86.870 118.342  0.00  0.00     0.149 HD
ENDBRANCH   6  13
BRANCH   5  18
ATOM     18  N   LIG d   1       7.975  90.138 117.681  0.00  0.00     0.381 N 
ATOM     19  H   LIG d   1       8.471  89.544 117.047  0.00  0.00    -0.090 HD
ATOM     20  H   LIG d   1       8.356  90.006 118.601  0.00  0.00    -0.090 HD
ATOM     21  H   LIG d   1       8.077  91.090 117.405  0.00  0.00    -0.090 HD
ENDBRANCH   5  18
BRANCH   3  22
ATOM     22  C   LIG d   1       3.504  91.684 116.935  0.00  0.00     0.382 C 
ATOM     23  O   LIG d   1       3.922  92.866 116.884  0.00  0.00    -0.241 OA
ATOM     24  O   LIG d   1       2.284  91.470 117.067  0.00  0.00    -0.241 OA
ENDBRANCH   3  22
TORSDOF 7
ENDMDL
MODEL 8
REMARK VINA RESULT:      -3.8      5.765      8.378
REMARK  7 active torsions:
REMARK  status: ('A' for Active; 'I' for Inactive)
REMARK    1  A    between atoms: C_2  and  C_3 
REMARK    2  A    between atoms: C_3  and  O_6 
REMARK    3  A    between atoms: C_3  and  C_4 
REMARK    4  A    between atoms: C_7  and  O_6 
REMARK    5  A    between atoms: C_9  and  C_10 
REMARK    6  A    between atoms: N_15  and  C_14 
REMARK    7  A    between atoms: N_20  and  C_19 
REMARK       I    between atoms: C_22  and  N_20 
ROOT
ATOM      1  C   LIG d   1      -2.882  91.867 117.756  0.00  0.00     0.161 C 
ATOM      2  C   LIG d   1      -4.143  92.486 117.770  0.00  0.00     0.016 C 
ATOM      3  C   LIG d   1      -5.342  91.815 117.436  0.00  0.00     0.038 C 
ATOM      4  C   LIG d   1      -5.380  90.431 117.210  0.00  0.00     0.028 C 
ATOM      5  C   LIG d   1      -4.062  89.866 116.691  0.00  0.00    -0.047 C 
ATOM      6  C   LIG d   1      -2.917  90.330 117.620  0.00  0.00     0.091 C 
ENDROOT
BRANCH   1   7
ATOM      7  O   LIG d   1      -2.138  92.249 118.930  0.00  0.00    -0.368 OA
BRANCH   7   8
ATOM      8  C   LIG d   1      -1.116  93.258 118.736  0.00  0.00     0.119 C 
BRANCH   8   9
ATOM      9  C   LIG d   1      -1.709  94.347 117.820  0.00  0.00     0.028 C 
ATOM     10  C   LIG d   1      -1.491  95.764 118.377  0.00  0.00     0.006 C 
ENDBRANCH   8   9
BRANCH   8  11
ATOM     11  C   LIG d   1       0.085  92.695 117.970  0.00  0.00     0.028 C 
ATOM     12  C   LIG d   1       1.428  93.026 118.641  0.00  0.00     0.006 C 
ENDBRANCH   8  11
ENDBRANCH   7   8
ENDBRANCH   1   7
BRANCH   6  13
ATOM     13  N   LIG d   1      -1.582  89.891 117.138  0.00  0.00    -0.311 N 
ATOM     14  C   LIG d   1      -0.818  89.015 117.789  0.00  0.00     0.210 C 
ATOM     15  C   LIG d   1       0.531  88.716 117.127  0.00  0.00     0.109 C 
ATOM     16  O   LIG d   1      -1.144  88.434 118.835  0.00  0.00    -0.276 OA
ATOM     17  H   LIG d   1      -1.253  90.290 116.280  0.00  0.00     0.149 HD
ENDBRANCH   6  13
BRANCH   5  18
ATOM     18  N   LIG d   1      -4.199  88.399 116.632  0.00  0.00     0.381 N 
ATOM     19  H   LIG d   1      -3.746  88.049 115.811  0.00  0.00    -0.090 HD
ATOM     20  H   LIG d   1      -5.175  88.165 116.577  0.00  0.00    -0.090 HD
ATOM     21  H   LIG d   1      -3.796  87.985 117.444  0.00  0.00    -0.090 HD
ENDBRANCH   5  18
BRANCH   3  22
ATOM     22  C   LIG d   1      -6.515  92.539 117.285  0.00  0.00     0.382 C 
ATOM     23  O   LIG d   1      -6.688  93.596 117.940  0.00  0.00    -0.241 OA
ATOM     24  O   LIG d   1      -7.422  92.125 116.538  0.00  0.00    -0.241 OA
ENDBRANCH   3  22
TORSDOF 7
ENDMDL
MODEL 9
REMARK VINA RESULT:      -3.8      1.902      4.980
REMARK  7 active torsions:
REMARK  status: ('A' for Active; 'I' for Inactive)
REMARK    1  A    between atoms: C_2  and  C_3 
REMARK    2  A    between atoms: C_3  and  O_6 
REMARK    3  A    between atoms: C_3  and  C_4 
REMARK    4  A    between atoms: C_7  and  O_6 
REMARK    5  A    between atoms: C_9  and  C_10 
REMARK    6  A    between atoms: N_15  and  C_14 
REMARK    7  A    between atoms: N_20  and  C_19 
REMARK       I    between atoms: C_22  and  N_20 
ROOT
ATOM      1  C   LIG d   1       2.486  89.309 116.547  0.00  0.00     0.161 C 
ATOM      2  C   LIG d   1       1.233  89.347 117.181  0.00  0.00     0.016 C 
ATOM      3  C   LIG d   1       0.430  88.201 117.386  0.00  0.00     0.038 C 
ATOM      4  C   LIG d   1       0.897  86.908 117.104  0.00  0.00     0.028 C 
ATOM      5  C   LIG d   1       1.948  86.872 116.001  0.00  0.00    -0.047 C 
ATOM      6  C   LIG d   1       3.060  87.893 116.333  0.00  0.00     0.091 C 
ENDROOT
BRANCH   1   7
ATOM      7  O   LIG d   1       3.425  90.126 117.273  0.00  0.00    -0.368 OA
BRANCH   7   8
ATOM      8  C   LIG d   1       3.881  91.325 116.600  0.00  0.00     0.119 C 
BRANCH   8   9
ATOM      9  C   LIG d   1       5.375  91.133 116.273  0.00  0.00     0.028 C 
ATOM     10  C   LIG d   1       6.096  90.261 117.315  0.00  0.00     0.006 C 
ENDBRANCH   8   9
BRANCH   8  11
ATOM     11  C   LIG d   1       3.822  92.542 117.528  0.00  0.00     0.028 C 
ATOM     12  C   LIG d   1       2.558  92.565 118.402  0.00  0.00     0.006 C 
ENDBRANCH   8  11
ENDBRANCH   7   8
ENDBRANCH   1   7
BRANCH   6  13
ATOM     13  N   LIG d   1       4.087  87.982 115.262  0.00  0.00    -0.311 N 
ATOM     14  C   LIG d   1       3.814  88.362 114.014  0.00  0.00     0.210 C 
ATOM     15  C   LIG d   1       5.014  88.365 113.062  0.00  0.00     0.109 C 
ATOM     16  O   LIG d   1       2.699  88.728 113.614  0.00  0.00    -0.276 OA
ATOM     17  H   LIG d   1       5.025  87.733 115.507  0.00  0.00     0.149 HD
ENDBRANCH   6  13
BRANCH   5  18
ATOM     18  N   LIG d   1       2.446  85.486 115.905  0.00  0.00     0.381 N 
ATOM     19  H   LIG d   1       2.268  85.003 116.762  0.00  0.00    -0.090 HD
ATOM     20  H   LIG d   1       3.439  85.507 115.755  0.00  0.00    -0.090 HD
ATOM     21  H   LIG d   1       1.999  85.015 115.150  0.00  0.00    -0.090 HD
ENDBRANCH   5  18
BRANCH   3  22
ATOM     22  C   LIG d   1      -0.871  88.346 117.843  0.00  0.00     0.382 C 
ATOM     23  O   LIG d   1      -1.550  89.343 117.495  0.00  0.00    -0.241 OA
ATOM     24  O   LIG d   1      -1.360  87.517 118.633  0.00  0.00    -0.241 OA
ENDBRANCH   3  22
TORSDOF 7
ENDMDL
