MODEL 1
REMARK VINA RESULT:      -5.1      0.000      0.000
REMARK  7 active torsions:
REMARK  status: ('A' for Active; 'I' for Inactive)
REMARK    1  A    between atoms: C_2  and  C_3 
REMARK    2  A    between atoms: C_3  and  O_6 
REMARK    3  A    between atoms: C_3  and  C_4 
REMARK    4  A    between atoms: C_7  and  O_6 
REMARK    5  A    between atoms: C_9  and  C_10 
REMARK    6  A    between atoms: N_15  and  C_14 
REMARK    7  A    between atoms: N_20  and  C_19 
REMARK       I    between atoms: C_22  and  N_20 
ROOT
ATOM      1  C   LIG d   1       2.109  86.565 115.044  0.00  0.00     0.161 C 
ATOM      2  C   LIG d   1       0.912  86.400 115.760  0.00  0.00     0.016 C 
ATOM      3  C   LIG d   1       0.291  87.440 116.490  0.00  0.00     0.038 C 
ATOM      4  C   LIG d   1       0.750  88.764 116.429  0.00  0.00     0.028 C 
ATOM      5  C   LIG d   1       2.241  88.876 116.128  0.00  0.00    -0.047 C 
ATOM      6  C   LIG d   1       2.565  88.030 114.875  0.00  0.00     0.091 C 
ENDROOT
BRANCH   1   7
ATOM      7  O   LIG d   1       2.003  85.922 113.759  0.00  0.00    -0.368 OA
BRANCH   7   8
ATOM      8  C   LIG d   1       1.263  86.644 112.744  0.00  0.00     0.119 C 
BRANCH   8   9
ATOM      9  C   LIG d   1       0.119  85.729 112.267  0.00  0.00     0.028 C 
ATOM     10  C   LIG d   1      -0.927  86.485 111.430  0.00  0.00     0.006 C 
ENDBRANCH   8   9
BRANCH   8  11
ATOM     11  C   LIG d   1       2.123  86.899 111.503  0.00  0.00     0.028 C 
ATOM     12  C   LIG d   1       3.431  86.092 111.508  0.00  0.00     0.006 C 
ENDBRANCH   8  11
ENDBRANCH   7   8
ENDBRANCH   1   7
BRANCH   6  13
ATOM     13  N   LIG d   1       4.017  88.016 114.560  0.00  0.00    -0.311 N 
ATOM     14  C   LIG d   1       4.590  88.861 113.706  0.00  0.00     0.210 C 
ATOM     15  C   LIG d   1       6.097  88.662 113.511  0.00  0.00     0.109 C 
ATOM     16  O   LIG d   1       4.000  89.778 113.115  0.00  0.00    -0.276 OA
ATOM     17  H   LIG d   1       4.577  87.324 115.019  0.00  0.00     0.149 HD
ENDBRANCH   6  13
BRANCH   5  18
ATOM     18  N   LIG d   1       2.555  90.307 115.957  0.00  0.00     0.381 N 
ATOM     19  H   LIG d   1       3.296  90.567 116.577  0.00  0.00    -0.090 HD
ATOM     20  H   LIG d   1       1.742  90.848 116.190  0.00  0.00    -0.090 HD
ATOM     21  H   LIG d   1       2.824  90.486 115.014  0.00  0.00    -0.090 HD
ENDBRANCH   5  18
BRANCH   3  22
ATOM     22  C   LIG d   1      -0.778  87.151 117.324  0.00  0.00     0.382 C 
ATOM     23  O   LIG d   1      -1.919  86.960 116.837  0.00  0.00    -0.241 OA
ATOM     24  O   LIG d   1      -0.626  87.123 118.559  0.00  0.00    -0.241 OA
ENDBRANCH   3  22
TORSDOF 7
ENDMDL
MODEL 2
REMARK VINA RESULT:      -4.8      2.420      4.401
REMARK  7 active torsions:
REMARK  status: ('A' for Active; 'I' for Inactive)
REMARK    1  A    between atoms: C_2  and  C_3 
REMARK    2  A    between atoms: C_3  and  O_6 
REMARK    3  A    between atoms: C_3  and  C_4 
REMARK    4  A    between atoms: C_7  and  O_6 
REMARK    5  A    between atoms: C_9  and  C_10 
REMARK    6  A    between atoms: N_15  and  C_14 
REMARK    7  A    between atoms: N_20  and  C_19 
REMARK       I    between atoms: C_22  and  N_20 
ROOT
ATOM      1  C   LIG d   1       3.103  88.132 115.350  0.00  0.00     0.161 C 
ATOM      2  C   LIG d   1       3.252  88.976 116.462  0.00  0.00     0.016 C 
ATOM      3  C   LIG d   1       4.215  90.010 116.531  0.00  0.00     0.038 C 
ATOM      4  C   LIG d   1       4.998  90.368 115.423  0.00  0.00     0.028 C 
ATOM      5  C   LIG d   1       5.233  89.218 114.450  0.00  0.00    -0.047 C 
ATOM      6  C   LIG d   1       3.873  88.579 114.090  0.00  0.00     0.091 C 
ENDROOT
BRANCH   1   7
ATOM      7  O   LIG d   1       1.703  87.964 115.049  0.00  0.00    -0.368 OA
BRANCH   7   8
ATOM      8  C   LIG d   1       1.068  86.786 115.605  0.00  0.00     0.119 C 
BRANCH   8   9
ATOM      9  C   LIG d   1       0.465  85.988 114.432  0.00  0.00     0.028 C 
ATOM     10  C   LIG d   1      -1.057  85.814 114.563  0.00  0.00     0.006 C 
ENDBRANCH   8   9
BRANCH   8  11
ATOM     11  C   LIG d   1      -0.121  87.161 116.494  0.00  0.00     0.028 C 
ATOM     12  C   LIG d   1       0.218  87.113 117.993  0.00  0.00     0.006 C 
ENDBRANCH   8  11
ENDBRANCH   7   8
ENDBRANCH   1   7
BRANCH   6  13
ATOM     13  N   LIG d   1       4.020  87.392 113.208  0.00  0.00    -0.311 N 
ATOM     14  C   LIG d   1       3.189  87.118 112.203  0.00  0.00     0.210 C 
ATOM     15  C   LIG d   1       3.510  85.834 111.431  0.00  0.00     0.109 C 
ATOM     16  O   LIG d   1       2.236  87.833 111.858  0.00  0.00    -0.276 OA
ATOM     17  H   LIG d   1       4.785  86.775 113.397  0.00  0.00     0.149 HD
ENDBRANCH   6  13
BRANCH   5  18
ATOM     18  N   LIG d   1       5.944  89.764 113.279  0.00  0.00     0.381 N 
ATOM     19  H   LIG d   1       6.632  90.426 113.578  0.00  0.00    -0.090 HD
ATOM     20  H   LIG d   1       5.283  90.240 112.690  0.00  0.00    -0.090 HD
ATOM     21  H   LIG d   1       6.381  89.026 112.771  0.00  0.00    -0.090 HD
ENDBRANCH   5  18
BRANCH   3  22
ATOM     22  C   LIG d   1       4.429  90.671 117.731  0.00  0.00     0.382 C 
ATOM     23  O   LIG d   1       5.430  91.416 117.866  0.00  0.00    -0.241 OA
ATOM     24  O   LIG d   1       3.659  90.497 118.694  0.00  0.00    -0.241 OA
ENDBRANCH   3  22
TORSDOF 7
ENDMDL
MODEL 3
REMARK VINA RESULT:      -4.8      1.121      1.977
REMARK  7 active torsions:
REMARK  status: ('A' for Active; 'I' for Inactive)
REMARK    1  A    between atoms: C_2  and  C_3 
REMARK    2  A    between atoms: C_3  and  O_6 
REMARK    3  A    between atoms: C_3  and  C_4 
REMARK    4  A    between atoms: C_7  and  O_6 
REMARK    5  A    between atoms: C_9  and  C_10 
REMARK    6  A    between atoms: N_15  and  C_14 
REMARK    7  A    between atoms: N_20  and  C_19 
REMARK       I    between atoms: C_22  and  N_20 
ROOT
ATOM      1  C   LIG d   1       2.020  87.743 115.320  0.00  0.00     0.161 C 
ATOM      2  C   LIG d   1       0.780  87.629 115.970  0.00  0.00     0.016 C 
ATOM      3  C   LIG d   1       0.285  88.595 116.876  0.00  0.00     0.038 C 
ATOM      4  C   LIG d   1       0.935  89.822 117.080  0.00  0.00     0.028 C 
ATOM      5  C   LIG d   1       2.438  89.760 116.832  0.00  0.00    -0.047 C 
ATOM      6  C   LIG d   1       2.692  89.126 115.445  0.00  0.00     0.091 C 
ENDROOT
BRANCH   1   7
ATOM      7  O   LIG d   1       1.880  87.377 113.933  0.00  0.00    -0.368 OA
BRANCH   7   8
ATOM      8  C   LIG d   1       2.030  85.968 113.627  0.00  0.00     0.119 C 
BRANCH   8   9
ATOM      9  C   LIG d   1       3.437  85.771 113.031  0.00  0.00     0.028 C 
ATOM     10  C   LIG d   1       3.702  86.699 111.833  0.00  0.00     0.006 C 
ENDBRANCH   8   9
BRANCH   8  11
ATOM     11  C   LIG d   1       1.058  85.531 112.527  0.00  0.00     0.028 C 
ATOM     12  C   LIG d   1      -0.404  85.879 112.850  0.00  0.00     0.006 C 
ENDBRANCH   8  11
ENDBRANCH   7   8
ENDBRANCH   1   7
BRANCH   6  13
ATOM     13  N   LIG d   1       4.140  88.951 115.158  0.00  0.00    -0.311 N 
ATOM     14  C   LIG d   1       4.747  89.484 114.100  0.00  0.00     0.210 C 
ATOM     15  C   LIG d   1       6.240  89.164 113.982  0.00  0.00     0.109 C 
ATOM     16  O   LIG d   1       4.198  90.219 113.265  0.00  0.00    -0.276 OA
ATOM     17  H   LIG d   1       4.668  88.395 115.802  0.00  0.00     0.149 HD
ENDBRANCH   6  13
BRANCH   5  18
ATOM     18  N   LIG d   1       2.965  91.133 116.946  0.00  0.00     0.381 N 
ATOM     19  H   LIG d   1       2.792  91.634 116.097  0.00  0.00    -0.090 HD
ATOM     20  H   LIG d   1       3.959  91.089 117.089  0.00  0.00    -0.090 HD
ATOM     21  H   LIG d   1       2.533  91.602 117.711  0.00  0.00    -0.090 HD
ENDBRANCH   5  18
BRANCH   3  22
ATOM     22  C   LIG d   1      -0.852  88.321 117.620  0.00  0.00     0.382 C 
ATOM     23  O   LIG d   1      -1.429  87.213 117.499  0.00  0.00    -0.241 OA
ATOM     24  O   LIG d   1      -1.334  89.183 118.379  0.00  0.00    -0.241 OA
ENDBRANCH   3  22
TORSDOF 7
ENDMDL
MODEL 4
REMARK VINA RESULT:      -4.6      2.930      5.524
REMARK  7 active torsions:
REMARK  status: ('A' for Active; 'I' for Inactive)
REMARK    1  A    between atoms: C_2  and  C_3 
REMARK    2  A    between atoms: C_3  and  O_6 
REMARK    3  A    between atoms: C_3  and  C_4 
REMARK    4  A    between atoms: C_7  and  O_6 
REMARK    5  A    between atoms: C_9  and  C_10 
REMARK    6  A    between atoms: N_15  and  C_14 
REMARK    7  A    between atoms: N_20  and  C_19 
REMARK       I    between atoms: C_22  and  N_20 
ROOT
ATOM      1  C   LIG d   1       4.834  87.125 115.796  0.00  0.00     0.161 C 
ATOM      2  C   LIG d   1       5.697  87.626 116.784  0.00  0.00     0.016 C 
ATOM      3  C   LIG d   1       6.519  88.761 116.597  0.00  0.00     0.038 C 
ATOM      4  C   LIG d   1       6.422  89.566 115.452  0.00  0.00     0.028 C 
ATOM      5  C   LIG d   1       5.931  88.812 114.221  0.00  0.00    -0.047 C 
ATOM      6  C   LIG d   1       4.632  88.055 114.581  0.00  0.00     0.091 C 
ENDROOT
BRANCH   1   7
ATOM      7  O   LIG d   1       3.562  86.785 116.383  0.00  0.00    -0.368 OA
BRANCH   7   8
ATOM      8  C   LIG d   1       2.553  87.825 116.362  0.00  0.00     0.119 C 
BRANCH   8   9
ATOM      9  C   LIG d   1       2.353  88.305 117.813  0.00  0.00     0.028 C 
ATOM     10  C   LIG d   1       2.948  89.703 118.055  0.00  0.00     0.006 C 
ENDBRANCH   8   9
BRANCH   8  11
ATOM     11  C   LIG d   1       1.192  87.271 115.928  0.00  0.00     0.028 C 
ATOM     12  C   LIG d   1       1.285  85.852 115.345  0.00  0.00     0.006 C 
ENDBRANCH   8  11
ENDBRANCH   7   8
ENDBRANCH   1   7
BRANCH   6  13
ATOM     13  N   LIG d   1       4.130  87.223 113.456  0.00  0.00    -0.311 N 
ATOM     14  C   LIG d   1       3.167  87.618 112.626  0.00  0.00     0.210 C 
ATOM     15  C   LIG d   1       2.786  86.599 111.547  0.00  0.00     0.109 C 
ATOM     16  O   LIG d   1       2.613  88.727 112.661  0.00  0.00    -0.276 OA
ATOM     17  H   LIG d   1       4.546  86.320 113.336  0.00  0.00     0.149 HD
ENDBRANCH   6  13
BRANCH   5  18
ATOM     18  N   LIG d   1       5.745  89.797 113.139  0.00  0.00     0.381 N 
ATOM     19  H   LIG d   1       6.180  89.466 112.301  0.00  0.00    -0.090 HD
ATOM     20  H   LIG d   1       6.188  90.659 113.405  0.00  0.00    -0.090 HD
ATOM     21  H   LIG d   1       4.773  89.950 112.980  0.00  0.00    -0.090 HD
ENDBRANCH   5  18
BRANCH   3  22
ATOM     22  C   LIG d   1       7.480  89.077 117.545  0.00  0.00     0.382 C 
ATOM     23  O   LIG d   1       7.207  89.877 118.472  0.00  0.00    -0.241 OA
ATOM     24  O   LIG d   1       8.631  88.608 117.459  0.00  0.00    -0.241 OA
ENDBRANCH   3  22
TORSDOF 7
ENDMDL
MODEL 5
REMARK VINA RESULT:      -4.6      2.792      5.193
REMARK  7 active torsions:
REMARK  status: ('A' for Active; 'I' for Inactive)
REMARK    1  A    between atoms: C_2  and  C_3 
REMARK    2  A    between atoms: C_3  and  O_6 
REMARK    3  A    between atoms: C_3  and  C_4 
REMARK    4  A    between atoms: C_7  and  O_6 
REMARK    5  A    between atoms: C_9  and  C_10 
REMARK    6  A    between atoms: N_15  and  C_14 
REMARK    7  A    between atoms: N_20  and  C_19 
REMARK       I    between atoms: C_22  and  N_20 
ROOT
ATOM      1  C   LIG d   1       2.996  89.380 115.863  0.00  0.00     0.161 C 
ATOM      2  C   LIG d   1       3.396  90.613 116.403  0.00  0.00     0.016 C 
ATOM      3  C   LIG d   1       2.537  91.451 117.151  0.00  0.00     0.038 C 
ATOM      4  C   LIG d   1       1.255  91.038 117.541  0.00  0.00     0.028 C 
ATOM      5  C   LIG d   1       0.632  90.018 116.594  0.00  0.00    -0.047 C 
ATOM      6  C   LIG d   1       1.634  88.862 116.372  0.00  0.00     0.091 C 
ENDROOT
BRANCH   1   7
ATOM      7  O   LIG d   1       4.022  88.392 116.085  0.00  0.00    -0.368 OA
BRANCH   7   8
ATOM      8  C   LIG d   1       4.745  87.948 114.911  0.00  0.00     0.119 C 
BRANCH   8   9
ATOM      9  C   LIG d   1       6.145  88.590 114.960  0.00  0.00     0.028 C 
ATOM     10  C   LIG d   1       6.248  89.843 114.074  0.00  0.00     0.006 C 
ENDBRANCH   8   9
BRANCH   8  11
ATOM     11  C   LIG d   1       4.101  88.478 113.627  0.00  0.00     0.028 C 
ATOM     12  C   LIG d   1       3.881  87.380 112.574  0.00  0.00     0.006 C 
ENDBRANCH   8  11
ENDBRANCH   7   8
ENDBRANCH   1   7
BRANCH   6  13
ATOM     13  N   LIG d   1       1.138  87.862 115.391  0.00  0.00    -0.311 N 
ATOM     14  C   LIG d   1       0.417  86.795 115.733  0.00  0.00     0.210 C 
ATOM     15  C   LIG d   1       0.024  85.881 114.568  0.00  0.00     0.109 C 
ATOM     16  O   LIG d   1       0.039  86.537 116.885  0.00  0.00    -0.276 OA
ATOM     17  H   LIG d   1       1.372  88.011 114.429  0.00  0.00     0.149 HD
ENDBRANCH   6  13
BRANCH   5  18
ATOM     18  N   LIG d   1      -0.641  89.573 117.192  0.00  0.00     0.381 N 
ATOM     19  H   LIG d   1      -1.104  88.940 116.571  0.00  0.00    -0.090 HD
ATOM     20  H   LIG d   1      -1.234  90.373 117.326  0.00  0.00    -0.090 HD
ATOM     21  H   LIG d   1      -0.469  89.127 118.066  0.00  0.00    -0.090 HD
ENDBRANCH   5  18
BRANCH   3  22
ATOM     22  C   LIG d   1       2.946  92.733 117.483  0.00  0.00     0.382 C 
ATOM     23  O   LIG d   1       2.202  93.469 118.174  0.00  0.00    -0.241 OA
ATOM     24  O   LIG d   1       4.031  93.179 117.064  0.00  0.00    -0.241 OA
ENDBRANCH   3  22
TORSDOF 7
ENDMDL
MODEL 6
REMARK VINA RESULT:      -4.5      2.138      3.236
REMARK  7 active torsions:
REMARK  status: ('A' for Active; 'I' for Inactive)
REMARK    1  A    between atoms: C_2  and  C_3 
REMARK    2  A    between atoms: C_3  and  O_6 
REMARK    3  A    between atoms: C_3  and  C_4 
REMARK    4  A    between atoms: C_7  and  O_6 
REMARK    5  A    between atoms: C_9  and  C_10 
REMARK    6  A    between atoms: N_15  and  C_14 
REMARK    7  A    between atoms: N_20  and  C_19 
REMARK       I    between atoms: C_22  and  N_20 
ROOT
ATOM      1  C   LIG d   1       1.803  88.963 116.291  0.00  0.00     0.161 C 
ATOM      2  C   LIG d   1       0.482  89.062 116.759  0.00  0.00     0.016 C 
ATOM      3  C   LIG d   1      -0.042  90.225 117.369  0.00  0.00     0.038 C 
ATOM      4  C   LIG d   1       0.681  91.427 117.417  0.00  0.00     0.028 C 
ATOM      5  C   LIG d   1       2.192  91.225 117.412  0.00  0.00    -0.047 C 
ATOM      6  C   LIG d   1       2.571  90.299 116.234  0.00  0.00     0.091 C 
ENDROOT
BRANCH   1   7
ATOM      7  O   LIG d   1       1.816  88.321 115.000  0.00  0.00    -0.368 OA
BRANCH   7   8
ATOM      8  C   LIG d   1       1.974  86.881 115.006  0.00  0.00     0.119 C 
BRANCH   8   9
ATOM      9  C   LIG d   1       3.372  86.566 114.439  0.00  0.00     0.028 C 
ATOM     10  C   LIG d   1       4.420  86.354 115.545  0.00  0.00     0.006 C 
ENDBRANCH   8   9
BRANCH   8  11
ATOM     11  C   LIG d   1       0.987  86.208 114.047  0.00  0.00     0.028 C 
ATOM     12  C   LIG d   1      -0.393  85.974 114.681  0.00  0.00     0.006 C 
ENDBRANCH   8  11
ENDBRANCH   7   8
ENDBRANCH   1   7
BRANCH   6  13
ATOM     13  N   LIG d   1       4.023  89.983 116.206  0.00  0.00    -0.311 N 
ATOM     14  C   LIG d   1       4.770  90.065 115.106  0.00  0.00     0.210 C 
ATOM     15  C   LIG d   1       6.240  89.675 115.292  0.00  0.00     0.109 C 
ATOM     16  O   LIG d   1       4.363  90.456 114.002  0.00  0.00    -0.276 OA
ATOM     17  H   LIG d   1       4.442  89.688 117.066  0.00  0.00     0.149 HD
ENDBRANCH   6  13
BRANCH   5  18
ATOM     18  N   LIG d   1       2.819  92.558 117.325  0.00  0.00     0.381 N 
ATOM     19  H   LIG d   1       2.381  93.092 116.601  0.00  0.00    -0.090 HD
ATOM     20  H   LIG d   1       3.790  92.446 117.091  0.00  0.00    -0.090 HD
ATOM     21  H   LIG d   1       2.733  93.033 118.196  0.00  0.00    -0.090 HD
ENDBRANCH   5  18
BRANCH   3  22
ATOM     22  C   LIG d   1      -1.287  90.181 117.977  0.00  0.00     0.382 C 
ATOM     23  O   LIG d   1      -2.185  90.985 117.626  0.00  0.00    -0.241 OA
ATOM     24  O   LIG d   1      -1.512  89.377 118.901  0.00  0.00    -0.241 OA
ENDBRANCH   3  22
TORSDOF 7
ENDMDL
MODEL 7
REMARK VINA RESULT:      -4.3      3.414      6.316
REMARK  7 active torsions:
REMARK  status: ('A' for Active; 'I' for Inactive)
REMARK    1  A    between atoms: C_2  and  C_3 
REMARK    2  A    between atoms: C_3  and  O_6 
REMARK    3  A    between atoms: C_3  and  C_4 
REMARK    4  A    between atoms: C_7  and  O_6 
REMARK    5  A    between atoms: C_9  and  C_10 
REMARK    6  A    between atoms: N_15  and  C_14 
REMARK    7  A    between atoms: N_20  and  C_19 
REMARK       I    between atoms: C_22  and  N_20 
ROOT
ATOM      1  C   LIG d   1       4.422  89.085 116.964  0.00  0.00     0.161 C 
ATOM      2  C   LIG d   1       5.306  89.912 117.676  0.00  0.00     0.016 C 
ATOM      3  C   LIG d   1       6.363  90.628 117.067  0.00  0.00     0.038 C 
ATOM      4  C   LIG d   1       6.513  90.685 115.674  0.00  0.00     0.028 C 
ATOM      5  C   LIG d   1       5.952  89.464 114.953  0.00  0.00    -0.047 C 
ATOM      6  C   LIG d   1       4.502  89.223 115.429  0.00  0.00     0.091 C 
ENDROOT
BRANCH   1   7
ATOM      7  O   LIG d   1       3.072  89.309 117.417  0.00  0.00    -0.368 OA
BRANCH   7   8
ATOM      8  C   LIG d   1       2.327  90.336 116.718  0.00  0.00     0.119 C 
BRANCH   8   9
ATOM      9  C   LIG d   1       2.061  91.477 117.718  0.00  0.00     0.028 C 
ATOM     10  C   LIG d   1       2.998  92.677 117.502  0.00  0.00     0.006 C 
ENDBRANCH   8   9
BRANCH   8  11
ATOM     11  C   LIG d   1       0.942  89.833 116.299  0.00  0.00     0.028 C 
ATOM     12  C   LIG d   1      -0.197  90.497 117.089  0.00  0.00     0.006 C 
ENDBRANCH   8  11
ENDBRANCH   7   8
ENDBRANCH   1   7
BRANCH   6  13
ATOM     13  N   LIG d   1       3.907  87.997 114.836  0.00  0.00    -0.311 N 
ATOM     14  C   LIG d   1       3.150  88.005 113.740  0.00  0.00     0.210 C 
ATOM     15  C   LIG d   1       2.621  86.634 113.309  0.00  0.00     0.109 C 
ATOM     16  O   LIG d   1       2.894  89.014 113.065  0.00  0.00    -0.276 OA
ATOM     17  H   LIG d   1       4.090  87.129 115.301  0.00  0.00     0.149 HD
ENDBRANCH   6  13
BRANCH   5  18
ATOM     18  N   LIG d   1       6.051  89.717 113.503  0.00  0.00     0.381 N 
ATOM     19  H   LIG d   1       6.635  89.025 113.077  0.00  0.00    -0.090 HD
ATOM     20  H   LIG d   1       6.472  90.618 113.359  0.00  0.00    -0.090 HD
ATOM     21  H   LIG d   1       5.144  89.696 113.091  0.00  0.00    -0.090 HD
ENDBRANCH   5  18
BRANCH   3  22
ATOM     22  C   LIG d   1       7.307  91.265 117.858  0.00  0.00     0.382 C 
ATOM     23  O   LIG d   1       6.957  91.816 118.930  0.00  0.00    -0.241 OA
ATOM     24  O   LIG d   1       8.495  91.333 117.492  0.00  0.00    -0.241 OA
ENDBRANCH   3  22
TORSDOF 7
ENDMDL
MODEL 8
REMARK VINA RESULT:      -4.3      2.327      4.522
REMARK  7 active torsions:
REMARK  status: ('A' for Active; 'I' for Inactive)
REMARK    1  A    between atoms: C_2  and  C_3 
REMARK    2  A    between atoms: C_3  and  O_6 
REMARK    3  A    between atoms: C_3  and  C_4 
REMARK    4  A    between atoms: C_7  and  O_6 
REMARK    5  A    between atoms: C_9  and  C_10 
REMARK    6  A    between atoms: N_15  and  C_14 
REMARK    7  A    between atoms: N_20  and  C_19 
REMARK       I    between atoms: C_22  and  N_20 
ROOT
ATOM      1  C   LIG d   1       2.888  88.866 115.423  0.00  0.00     0.161 C 
ATOM      2  C   LIG d   1       1.968  89.559 116.227  0.00  0.00     0.016 C 
ATOM      3  C   LIG d   1       0.741  89.005 116.661  0.00  0.00     0.038 C 
ATOM      4  C   LIG d   1       0.418  87.657 116.443  0.00  0.00     0.028 C 
ATOM      5  C   LIG d   1       1.087  87.066 115.206  0.00  0.00    -0.047 C 
ATOM      6  C   LIG d   1       2.604  87.357 115.268  0.00  0.00     0.091 C 
ENDROOT
BRANCH   1   7
ATOM      7  O   LIG d   1       4.225  89.075 115.919  0.00  0.00    -0.368 OA
BRANCH   7   8
ATOM      8  C   LIG d   1       4.860  90.319 115.533  0.00  0.00     0.119 C 
BRANCH   8   9
ATOM      9  C   LIG d   1       6.234  89.969 114.929  0.00  0.00     0.028 C 
ATOM     10  C   LIG d   1       6.115  89.305 113.546  0.00  0.00     0.006 C 
ENDBRANCH   8   9
BRANCH   8  11
ATOM     11  C   LIG d   1       5.165  91.192 116.754  0.00  0.00     0.028 C 
ATOM     12  C   LIG d   1       6.611  91.038 117.251  0.00  0.00     0.006 C 
ENDBRANCH   8  11
ENDBRANCH   7   8
ENDBRANCH   1   7
BRANCH   6  13
ATOM     13  N   LIG d   1       3.321  86.886 114.055  0.00  0.00    -0.311 N 
ATOM     14  C   LIG d   1       3.162  87.433 112.851  0.00  0.00     0.210 C 
ATOM     15  C   LIG d   1       3.982  86.783 111.732  0.00  0.00     0.109 C 
ATOM     16  O   LIG d   1       2.445  88.415 112.609  0.00  0.00    -0.276 OA
ATOM     17  H   LIG d   1       3.947  86.113 114.166  0.00  0.00     0.149 HD
ENDBRANCH   6  13
BRANCH   5  18
ATOM     18  N   LIG d   1       0.775  85.625 115.177  0.00  0.00     0.381 N 
ATOM     19  H   LIG d   1      -0.200  85.493 114.995  0.00  0.00    -0.090 HD
ATOM     20  H   LIG d   1       0.985  85.228 116.076  0.00  0.00    -0.090 HD
ATOM     21  H   LIG d   1       1.316  85.173 114.472  0.00  0.00    -0.090 HD
ENDBRANCH   5  18
BRANCH   3  22
ATOM     22  C   LIG d   1      -0.195  89.814 117.286  0.00  0.00     0.382 C 
ATOM     23  O   LIG d   1      -0.227  91.043 117.039  0.00  0.00    -0.241 OA
ATOM     24  O   LIG d   1      -0.980  89.337 118.128  0.00  0.00    -0.241 OA
ENDBRANCH   3  22
TORSDOF 7
ENDMDL
MODEL 9
REMARK VINA RESULT:      -4.3      2.103      2.697
REMARK  7 active torsions:
REMARK  status: ('A' for Active; 'I' for Inactive)
REMARK    1  A    between atoms: C_2  and  C_3 
REMARK    2  A    between atoms: C_3  and  O_6 
REMARK    3  A    between atoms: C_3  and  C_4 
REMARK    4  A    between atoms: C_7  and  O_6 
REMARK    5  A    between atoms: C_9  and  C_10 
REMARK    6  A    between atoms: N_15  and  C_14 
REMARK    7  A    between atoms: N_20  and  C_19 
REMARK       I    between atoms: C_22  and  N_20 
ROOT
ATOM      1  C   LIG d   1       1.635  88.173 117.347  0.00  0.00     0.161 C 
ATOM      2  C   LIG d   1       0.290  87.827 117.557  0.00  0.00     0.016 C 
ATOM      3  C   LIG d   1      -0.758  88.775 117.610  0.00  0.00     0.038 C 
ATOM      4  C   LIG d   1      -0.550  90.128 117.303  0.00  0.00     0.028 C 
ATOM      5  C   LIG d   1       0.872  90.601 117.582  0.00  0.00    -0.047 C 
ATOM      6  C   LIG d   1       1.866  89.632 116.900  0.00  0.00     0.091 C 
ENDROOT
BRANCH   1   7
ATOM      7  O   LIG d   1       2.233  87.260 116.405  0.00  0.00    -0.368 OA
BRANCH   7   8
ATOM      8  C   LIG d   1       1.685  87.277 115.065  0.00  0.00     0.119 C 
BRANCH   8   9
ATOM      9  C   LIG d   1       1.064  85.892 114.801  0.00  0.00     0.028 C 
ATOM     10  C   LIG d   1      -0.438  85.973 114.481  0.00  0.00     0.006 C 
ENDBRANCH   8   9
BRANCH   8  11
ATOM     11  C   LIG d   1       2.787  87.435 114.013  0.00  0.00     0.028 C 
ATOM     12  C   LIG d   1       4.186  87.121 114.566  0.00  0.00     0.006 C 
ENDBRANCH   8  11
ENDBRANCH   7   8
ENDBRANCH   1   7
BRANCH   6  13
ATOM     13  N   LIG d   1       3.282  89.974 117.192  0.00  0.00    -0.311 N 
ATOM     14  C   LIG d   1       4.139  90.403 116.267  0.00  0.00     0.210 C 
ATOM     15  C   LIG d   1       5.556  90.680 116.778  0.00  0.00     0.109 C 
ATOM     16  O   LIG d   1       3.851  90.611 115.079  0.00  0.00    -0.276 OA
ATOM     17  H   LIG d   1       3.592  89.864 118.138  0.00  0.00     0.149 HD
ENDBRANCH   6  13
BRANCH   5  18
ATOM     18  N   LIG d   1       0.986  91.986 117.089  0.00  0.00     0.381 N 
ATOM     19  H   LIG d   1       1.844  92.390 117.407  0.00  0.00    -0.090 HD
ATOM     20  H   LIG d   1       0.226  92.527 117.462  0.00  0.00    -0.090 HD
ATOM     21  H   LIG d   1       0.954  91.998 116.093  0.00  0.00    -0.090 HD
ENDBRANCH   5  18
BRANCH   3  22
ATOM     22  C   LIG d   1      -2.024  88.377 118.012  0.00  0.00     0.382 C 
ATOM     23  O   LIG d   1      -3.019  89.094 117.749  0.00  0.00    -0.241 OA
ATOM     24  O   LIG d   1      -2.178  87.332 118.673  0.00  0.00    -0.241 OA
ENDBRANCH   3  22
TORSDOF 7
ENDMDL
