MODEL 1
REMARK VINA RESULT:      -4.9      0.000      0.000
REMARK  7 active torsions:
REMARK  status: ('A' for Active; 'I' for Inactive)
REMARK    1  A    between atoms: C_2  and  C_3 
REMARK    2  A    between atoms: C_3  and  O_6 
REMARK    3  A    between atoms: C_3  and  C_4 
REMARK    4  A    between atoms: C_7  and  O_6 
REMARK    5  A    between atoms: C_9  and  C_10 
REMARK    6  A    between atoms: N_15  and  C_14 
REMARK    7  A    between atoms: N_20  and  C_19 
REMARK       I    between atoms: C_22  and  N_20 
ROOT
ATOM      1  C   LIG d   1       3.241  88.244 115.152  0.00  0.00     0.161 C 
ATOM      2  C   LIG d   1       3.732  89.159 116.098  0.00  0.00     0.016 C 
ATOM      3  C   LIG d   1       4.898  89.934 115.899  0.00  0.00     0.038 C 
ATOM      4  C   LIG d   1       5.572  89.957 114.669  0.00  0.00     0.028 C 
ATOM      5  C   LIG d   1       5.405  88.673 113.863  0.00  0.00    -0.047 C 
ATOM      6  C   LIG d   1       3.900  88.338 113.760  0.00  0.00     0.091 C 
ENDROOT
BRANCH   1   7
ATOM      7  O   LIG d   1       1.810  88.378 115.039  0.00  0.00    -0.368 OA
BRANCH   7   8
ATOM      8  C   LIG d   1       1.035  87.915 116.172  0.00  0.00     0.119 C 
BRANCH   8   9
ATOM      9  C   LIG d   1       0.029  86.872 115.649  0.00  0.00     0.028 C 
ATOM     10  C   LIG d   1       0.671  85.878 114.666  0.00  0.00     0.006 C 
ENDBRANCH   8   9
BRANCH   8  11
ATOM     11  C   LIG d   1       0.182  89.042 116.761  0.00  0.00     0.028 C 
ATOM     12  C   LIG d   1       0.673  89.501 118.143  0.00  0.00     0.006 C 
ENDBRANCH   8  11
ENDBRANCH   7   8
ENDBRANCH   1   7
BRANCH   6  13
ATOM     13  N   LIG d   1       3.653  87.051 113.058  0.00  0.00    -0.311 N 
ATOM     14  C   LIG d   1       2.851  86.934 112.002  0.00  0.00     0.210 C 
ATOM     15  C   LIG d   1       2.721  85.514 111.442  0.00  0.00     0.109 C 
ATOM     16  O   LIG d   1       2.259  87.877 111.455  0.00  0.00    -0.276 OA
ATOM     17  H   LIG d   1       4.118  86.240 113.416  0.00  0.00     0.149 HD
ENDBRANCH   6  13
BRANCH   5  18
ATOM     18  N   LIG d   1       6.042  88.887 112.550  0.00  0.00     0.381 N 
ATOM     19  H   LIG d   1       6.546  89.751 112.554  0.00  0.00    -0.090 HD
ATOM     20  H   LIG d   1       5.326  88.942 111.847  0.00  0.00    -0.090 HD
ATOM     21  H   LIG d   1       6.661  88.133 112.345  0.00  0.00    -0.090 HD
ENDBRANCH   5  18
BRANCH   3  22
ATOM     22  C   LIG d   1       5.423  90.667 116.953  0.00  0.00     0.382 C 
ATOM     23  O   LIG d   1       4.688  91.452 117.599  0.00  0.00    -0.241 OA
ATOM     24  O   LIG d   1       6.634  90.587 117.236  0.00  0.00    -0.241 OA
ENDBRANCH   3  22
TORSDOF 7
ENDMDL
MODEL 2
REMARK VINA RESULT:      -4.7      1.985      2.522
REMARK  7 active torsions:
REMARK  status: ('A' for Active; 'I' for Inactive)
REMARK    1  A    between atoms: C_2  and  C_3 
REMARK    2  A    between atoms: C_3  and  O_6 
REMARK    3  A    between atoms: C_3  and  C_4 
REMARK    4  A    between atoms: C_7  and  O_6 
REMARK    5  A    between atoms: C_9  and  C_10 
REMARK    6  A    between atoms: N_15  and  C_14 
REMARK    7  A    between atoms: N_20  and  C_19 
REMARK       I    between atoms: C_22  and  N_20 
ROOT
ATOM      1  C   LIG d   1       4.353  86.721 115.710  0.00  0.00     0.161 C 
ATOM      2  C   LIG d   1       5.320  87.020 116.685  0.00  0.00     0.016 C 
ATOM      3  C   LIG d   1       6.278  88.050 116.540  0.00  0.00     0.038 C 
ATOM      4  C   LIG d   1       6.238  88.954 115.468  0.00  0.00     0.028 C 
ATOM      5  C   LIG d   1       5.595  88.377 114.212  0.00  0.00    -0.047 C 
ATOM      6  C   LIG d   1       4.224  87.769 114.585  0.00  0.00     0.091 C 
ENDROOT
BRANCH   1   7
ATOM      7  O   LIG d   1       3.076  86.502 116.341  0.00  0.00    -0.368 OA
BRANCH   7   8
ATOM      8  C   LIG d   1       2.294  87.688 116.626  0.00  0.00     0.119 C 
BRANCH   8   9
ATOM      9  C   LIG d   1       2.159  87.797 118.157  0.00  0.00     0.028 C 
ATOM     10  C   LIG d   1       2.363  86.445 118.861  0.00  0.00     0.006 C 
ENDBRANCH   8   9
BRANCH   8  11
ATOM     11  C   LIG d   1       0.862  87.551 116.101  0.00  0.00     0.028 C 
ATOM     12  C   LIG d   1       0.637  86.249 115.315  0.00  0.00     0.006 C 
ENDBRANCH   8  11
ENDBRANCH   7   8
ENDBRANCH   1   7
BRANCH   6  13
ATOM     13  N   LIG d   1       3.564  87.108 113.429  0.00  0.00    -0.311 N 
ATOM     14  C   LIG d   1       2.829  87.762 112.531  0.00  0.00     0.210 C 
ATOM     15  C   LIG d   1       2.222  86.887 111.430  0.00  0.00     0.109 C 
ATOM     16  O   LIG d   1       2.649  88.989 112.524  0.00  0.00    -0.276 OA
ATOM     17  H   LIG d   1       3.684  86.118 113.340  0.00  0.00     0.149 HD
ENDBRANCH   6  13
BRANCH   5  18
ATOM     18  N   LIG d   1       5.494  89.466 113.222  0.00  0.00     0.381 N 
ATOM     19  H   LIG d   1       6.347  89.533 112.704  0.00  0.00    -0.090 HD
ATOM     20  H   LIG d   1       5.352  90.335 113.708  0.00  0.00    -0.090 HD
ATOM     21  H   LIG d   1       4.733  89.295 112.603  0.00  0.00    -0.090 HD
ENDBRANCH   5  18
BRANCH   3  22
ATOM     22  C   LIG d   1       7.315  88.157 117.454  0.00  0.00     0.382 C 
ATOM     23  O   LIG d   1       7.088  88.014 118.679  0.00  0.00    -0.241 OA
ATOM     24  O   LIG d   1       8.467  88.438 117.072  0.00  0.00    -0.241 OA
ENDBRANCH   3  22
TORSDOF 7
ENDMDL
MODEL 3
REMARK VINA RESULT:      -4.7      1.161      2.105
REMARK  7 active torsions:
REMARK  status: ('A' for Active; 'I' for Inactive)
REMARK    1  A    between atoms: C_2  and  C_3 
REMARK    2  A    between atoms: C_3  and  O_6 
REMARK    3  A    between atoms: C_3  and  C_4 
REMARK    4  A    between atoms: C_7  and  O_6 
REMARK    5  A    between atoms: C_9  and  C_10 
REMARK    6  A    between atoms: N_15  and  C_14 
REMARK    7  A    between atoms: N_20  and  C_19 
REMARK       I    between atoms: C_22  and  N_20 
ROOT
ATOM      1  C   LIG d   1       3.797  87.366 115.995  0.00  0.00     0.161 C 
ATOM      2  C   LIG d   1       4.156  88.149 117.105  0.00  0.00     0.016 C 
ATOM      3  C   LIG d   1       4.762  89.422 116.996  0.00  0.00     0.038 C 
ATOM      4  C   LIG d   1       4.913  90.068 115.760  0.00  0.00     0.028 C 
ATOM      5  C   LIG d   1       5.028  89.105 114.583  0.00  0.00    -0.047 C 
ATOM      6  C   LIG d   1       3.853  88.102 114.639  0.00  0.00     0.091 C 
ENDROOT
BRANCH   1   7
ATOM      7  O   LIG d   1       2.490  86.795 116.201  0.00  0.00    -0.368 OA
BRANCH   7   8
ATOM      8  C   LIG d   1       1.377  87.531 115.638  0.00  0.00     0.119 C 
BRANCH   8   9
ATOM      9  C   LIG d   1       0.836  88.466 116.738  0.00  0.00     0.028 C 
ATOM     10  C   LIG d   1       1.023  89.952 116.389  0.00  0.00     0.006 C 
ENDBRANCH   8   9
BRANCH   8  11
ATOM     11  C   LIG d   1       0.212  86.600 115.289  0.00  0.00     0.028 C 
ATOM     12  C   LIG d   1       0.412  85.871 113.951  0.00  0.00     0.006 C 
ENDBRANCH   8  11
ENDBRANCH   7   8
ENDBRANCH   1   7
BRANCH   6  13
ATOM     13  N   LIG d   1       3.936  87.071 113.571  0.00  0.00    -0.311 N 
ATOM     14  C   LIG d   1       3.350  87.199 112.382  0.00  0.00     0.210 C 
ATOM     15  C   LIG d   1       3.545  86.011 111.434  0.00  0.00     0.109 C 
ATOM     16  O   LIG d   1       2.715  88.197 112.010  0.00  0.00    -0.276 OA
ATOM     17  H   LIG d   1       4.459  86.242 113.777  0.00  0.00     0.149 HD
ENDBRANCH   6  13
BRANCH   5  18
ATOM     18  N   LIG d   1       5.042  89.910 113.348  0.00  0.00     0.381 N 
ATOM     19  H   LIG d   1       4.245  89.684 112.787  0.00  0.00    -0.090 HD
ATOM     20  H   LIG d   1       5.870  89.688 112.824  0.00  0.00    -0.090 HD
ATOM     21  H   LIG d   1       5.034  90.881 113.573  0.00  0.00    -0.090 HD
ENDBRANCH   5  18
BRANCH   3  22
ATOM     22  C   LIG d   1       5.260  90.045 118.130  0.00  0.00     0.382 C 
ATOM     23  O   LIG d   1       4.941  91.231 118.385  0.00  0.00    -0.241 OA
ATOM     24  O   LIG d   1       6.058  89.450 118.878  0.00  0.00    -0.241 OA
ENDBRANCH   3  22
TORSDOF 7
ENDMDL
MODEL 4
REMARK VINA RESULT:      -4.6      2.933      5.159
REMARK  7 active torsions:
REMARK  status: ('A' for Active; 'I' for Inactive)
REMARK    1  A    between atoms: C_2  and  C_3 
REMARK    2  A    between atoms: C_3  and  O_6 
REMARK    3  A    between atoms: C_3  and  C_4 
REMARK    4  A    between atoms: C_7  and  O_6 
REMARK    5  A    between atoms: C_9  and  C_10 
REMARK    6  A    between atoms: N_15  and  C_14 
REMARK    7  A    between atoms: N_20  and  C_19 
REMARK       I    between atoms: C_22  and  N_20 
ROOT
ATOM      1  C   LIG d   1       1.106  88.661 116.433  0.00  0.00     0.161 C 
ATOM      2  C   LIG d   1      -0.195  88.883 116.914  0.00  0.00     0.016 C 
ATOM      3  C   LIG d   1      -0.618  90.109 117.477  0.00  0.00     0.038 C 
ATOM      4  C   LIG d   1       0.194  91.253 117.458  0.00  0.00     0.028 C 
ATOM      5  C   LIG d   1       1.686  90.936 117.441  0.00  0.00    -0.047 C 
ATOM      6  C   LIG d   1       1.972  89.931 116.303  0.00  0.00     0.091 C 
ENDROOT
BRANCH   1   7
ATOM      7  O   LIG d   1       1.048  87.962 115.174  0.00  0.00    -0.368 OA
BRANCH   7   8
ATOM      8  C   LIG d   1       1.375  86.551 115.212  0.00  0.00     0.119 C 
BRANCH   8   9
ATOM      9  C   LIG d   1       2.732  86.370 114.505  0.00  0.00     0.028 C 
ATOM     10  C   LIG d   1       2.764  87.037 113.119  0.00  0.00     0.006 C 
ENDBRANCH   8   9
BRANCH   8  11
ATOM     11  C   LIG d   1       0.377  85.726 114.394  0.00  0.00     0.028 C 
ATOM     12  C   LIG d   1      -1.084  86.114 114.669  0.00  0.00     0.006 C 
ENDBRANCH   8  11
ENDBRANCH   7   8
ENDBRANCH   1   7
BRANCH   6  13
ATOM     13  N   LIG d   1       3.395  89.503 116.269  0.00  0.00    -0.311 N 
ATOM     14  C   LIG d   1       4.200  89.714 115.229  0.00  0.00     0.210 C 
ATOM     15  C   LIG d   1       5.624  89.175 115.394  0.00  0.00     0.109 C 
ATOM     16  O   LIG d   1       3.879  90.325 114.199  0.00  0.00    -0.276 OA
ATOM     17  H   LIG d   1       3.748  89.028 117.077  0.00  0.00     0.149 HD
ENDBRANCH   6  13
BRANCH   5  18
ATOM     18  N   LIG d   1       2.410  92.211 117.283  0.00  0.00     0.381 N 
ATOM     19  H   LIG d   1       2.260  92.788 118.087  0.00  0.00    -0.090 HD
ATOM     20  H   LIG d   1       2.050  92.692 116.478  0.00  0.00    -0.090 HD
ATOM     21  H   LIG d   1       3.384  92.038 117.168  0.00  0.00    -0.090 HD
ENDBRANCH   5  18
BRANCH   3  22
ATOM     22  C   LIG d   1      -1.853  90.188 118.103  0.00  0.00     0.382 C 
ATOM     23  O   LIG d   1      -2.759  89.372 117.808  0.00  0.00    -0.241 OA
ATOM     24  O   LIG d   1      -2.087  91.093 118.926  0.00  0.00    -0.241 OA
ENDBRANCH   3  22
TORSDOF 7
ENDMDL
MODEL 5
REMARK VINA RESULT:      -4.5      3.656      6.657
REMARK  7 active torsions:
REMARK  status: ('A' for Active; 'I' for Inactive)
REMARK    1  A    between atoms: C_2  and  C_3 
REMARK    2  A    between atoms: C_3  and  O_6 
REMARK    3  A    between atoms: C_3  and  C_4 
REMARK    4  A    between atoms: C_7  and  O_6 
REMARK    5  A    between atoms: C_9  and  C_10 
REMARK    6  A    between atoms: N_15  and  C_14 
REMARK    7  A    between atoms: N_20  and  C_19 
REMARK       I    between atoms: C_22  and  N_20 
ROOT
ATOM      1  C   LIG d   1       0.393  89.434 117.320  0.00  0.00     0.161 C 
ATOM      2  C   LIG d   1      -1.006  89.307 117.349  0.00  0.00     0.016 C 
ATOM      3  C   LIG d   1      -1.868  90.312 117.845  0.00  0.00     0.038 C 
ATOM      4  C   LIG d   1      -1.395  91.581 118.209  0.00  0.00     0.028 C 
ATOM      5  C   LIG d   1       0.059  91.577 118.671  0.00  0.00    -0.047 C 
ATOM      6  C   LIG d   1       0.920  90.855 117.610  0.00  0.00     0.091 C 
ENDROOT
BRANCH   1   7
ATOM      7  O   LIG d   1       0.901  88.959 116.058  0.00  0.00    -0.368 OA
BRANCH   7   8
ATOM      8  C   LIG d   1       1.755  87.790 116.113  0.00  0.00     0.119 C 
BRANCH   8   9
ATOM      9  C   LIG d   1       3.164  88.225 115.666  0.00  0.00     0.028 C 
ATOM     10  C   LIG d   1       3.128  89.394 114.667  0.00  0.00     0.006 C 
ENDBRANCH   8   9
BRANCH   8  11
ATOM     11  C   LIG d   1       1.316  86.730 115.098  0.00  0.00     0.028 C 
ATOM     12  C   LIG d   1      -0.192  86.439 115.155  0.00  0.00     0.006 C 
ENDBRANCH   8  11
ENDBRANCH   7   8
ENDBRANCH   1   7
BRANCH   6  13
ATOM     13  N   LIG d   1       2.343  90.731 118.022  0.00  0.00    -0.311 N 
ATOM     14  C   LIG d   1       3.279  91.622 117.700  0.00  0.00     0.210 C 
ATOM     15  C   LIG d   1       4.686  91.294 118.210  0.00  0.00     0.109 C 
ATOM     16  O   LIG d   1       3.072  92.669 117.068  0.00  0.00    -0.276 OA
ATOM     17  H   LIG d   1       2.592  89.928 118.565  0.00  0.00     0.149 HD
ENDBRANCH   6  13
BRANCH   5  18
ATOM     18  N   LIG d   1       0.462  92.979 118.887  0.00  0.00     0.381 N 
ATOM     19  H   LIG d   1       1.027  93.291 118.121  0.00  0.00    -0.090 HD
ATOM     20  H   LIG d   1       1.012  93.034 119.726  0.00  0.00    -0.090 HD
ATOM     21  H   LIG d   1      -0.345  93.557 118.971  0.00  0.00    -0.090 HD
ENDBRANCH   5  18
BRANCH   3  22
ATOM     22  C   LIG d   1      -3.216  90.037 118.019  0.00  0.00     0.382 C 
ATOM     23  O   LIG d   1      -4.077  90.697 117.389  0.00  0.00    -0.241 OA
ATOM     24  O   LIG d   1      -3.583  89.167 118.831  0.00  0.00    -0.241 OA
ENDBRANCH   3  22
TORSDOF 7
ENDMDL
MODEL 6
REMARK VINA RESULT:      -4.4      2.188      4.614
REMARK  7 active torsions:
REMARK  status: ('A' for Active; 'I' for Inactive)
REMARK    1  A    between atoms: C_2  and  C_3 
REMARK    2  A    between atoms: C_3  and  O_6 
REMARK    3  A    between atoms: C_3  and  C_4 
REMARK    4  A    between atoms: C_7  and  O_6 
REMARK    5  A    between atoms: C_9  and  C_10 
REMARK    6  A    between atoms: N_15  and  C_14 
REMARK    7  A    between atoms: N_20  and  C_19 
REMARK       I    between atoms: C_22  and  N_20 
ROOT
ATOM      1  C   LIG d   1       4.374  89.579 115.272  0.00  0.00     0.161 C 
ATOM      2  C   LIG d   1       3.921  90.655 116.054  0.00  0.00     0.016 C 
ATOM      3  C   LIG d   1       2.657  90.678 116.688  0.00  0.00     0.038 C 
ATOM      4  C   LIG d   1       1.816  89.556 116.706  0.00  0.00     0.028 C 
ATOM      5  C   LIG d   1       2.013  88.632 115.509  0.00  0.00    -0.047 C 
ATOM      6  C   LIG d   1       3.516  88.301 115.372  0.00  0.00     0.091 C 
ENDROOT
BRANCH   1   7
ATOM      7  O   LIG d   1       5.748  89.287 115.592  0.00  0.00    -0.368 OA
BRANCH   7   8
ATOM      8  C   LIG d   1       6.098  89.328 116.998  0.00  0.00     0.119 C 
BRANCH   8   9
ATOM      9  C   LIG d   1       7.361  90.200 117.136  0.00  0.00     0.028 C 
ATOM     10  C   LIG d   1       7.187  91.326 118.169  0.00  0.00     0.006 C 
ENDBRANCH   8   9
BRANCH   8  11
ATOM     11  C   LIG d   1       6.503  87.944 117.512  0.00  0.00     0.028 C 
ATOM     12  C   LIG d   1       7.151  87.071 116.425  0.00  0.00     0.006 C 
ENDBRANCH   8  11
ENDBRANCH   7   8
ENDBRANCH   1   7
BRANCH   6  13
ATOM     13  N   LIG d   1       3.807  87.469 114.175  0.00  0.00    -0.311 N 
ATOM     14  C   LIG d   1       3.503  87.841 112.933  0.00  0.00     0.210 C 
ATOM     15  C   LIG d   1       3.872  86.826 111.846  0.00  0.00     0.109 C 
ATOM     16  O   LIG d   1       2.992  88.928 112.625  0.00  0.00    -0.276 OA
ATOM     17  H   LIG d   1       4.250  86.584 114.331  0.00  0.00     0.149 HD
ENDBRANCH   6  13
BRANCH   5  18
ATOM     18  N   LIG d   1       1.175  87.437 115.725  0.00  0.00     0.381 N 
ATOM     19  H   LIG d   1       1.730  86.611 115.622  0.00  0.00    -0.090 HD
ATOM     20  H   LIG d   1       0.449  87.419 115.030  0.00  0.00    -0.090 HD
ATOM     21  H   LIG d   1       0.772  87.464 116.635  0.00  0.00    -0.090 HD
ENDBRANCH   5  18
BRANCH   3  22
ATOM     22  C   LIG d   1       2.206  91.849 117.278  0.00  0.00     0.382 C 
ATOM     23  O   LIG d   1       1.023  91.928 117.689  0.00  0.00    -0.241 OA
ATOM     24  O   LIG d   1       2.954  92.841 117.366  0.00  0.00    -0.241 OA
ENDBRANCH   3  22
TORSDOF 7
ENDMDL
MODEL 7
REMARK VINA RESULT:      -4.3      2.431      4.632
REMARK  7 active torsions:
REMARK  status: ('A' for Active; 'I' for Inactive)
REMARK    1  A    between atoms: C_2  and  C_3 
REMARK    2  A    between atoms: C_3  and  O_6 
REMARK    3  A    between atoms: C_3  and  C_4 
REMARK    4  A    between atoms: C_7  and  O_6 
REMARK    5  A    between atoms: C_9  and  C_10 
REMARK    6  A    between atoms: N_15  and  C_14 
REMARK    7  A    between atoms: N_20  and  C_19 
REMARK       I    between atoms: C_22  and  N_20 
ROOT
ATOM      1  C   LIG d   1       3.411  89.075 115.971  0.00  0.00     0.161 C 
ATOM      2  C   LIG d   1       3.637  90.273 116.669  0.00  0.00     0.016 C 
ATOM      3  C   LIG d   1       2.614  90.997 117.324  0.00  0.00     0.038 C 
ATOM      4  C   LIG d   1       1.313  90.488 117.455  0.00  0.00     0.028 C 
ATOM      5  C   LIG d   1       0.923  89.528 116.337  0.00  0.00    -0.047 C 
ATOM      6  C   LIG d   1       2.020  88.447 116.198  0.00  0.00     0.091 C 
ENDROOT
BRANCH   1   7
ATOM      7  O   LIG d   1       4.447  88.123 116.287  0.00  0.00    -0.368 OA
BRANCH   7   8
ATOM      8  C   LIG d   1       5.311  87.735 115.191  0.00  0.00     0.119 C 
BRANCH   8   9
ATOM      9  C   LIG d   1       6.763  88.009 115.627  0.00  0.00     0.028 C 
ATOM     10  C   LIG d   1       7.176  87.175 116.851  0.00  0.00     0.006 C 
ENDBRANCH   8   9
BRANCH   8  11
ATOM     11  C   LIG d   1       5.083  88.619 113.961  0.00  0.00     0.028 C 
ATOM     12  C   LIG d   1       4.644  87.819 112.725  0.00  0.00     0.006 C 
ENDBRANCH   8  11
ENDBRANCH   7   8
ENDBRANCH   1   7
BRANCH   6  13
ATOM     13  N   LIG d   1       1.758  87.515 115.070  0.00  0.00    -0.311 N 
ATOM     14  C   LIG d   1       1.178  86.326 115.221  0.00  0.00     0.210 C 
ATOM     15  C   LIG d   1       1.020  85.515 113.931  0.00  0.00     0.109 C 
ATOM     16  O   LIG d   1       0.751  85.879 116.296  0.00  0.00    -0.276 OA
ATOM     17  H   LIG d   1       2.044  87.812 114.157  0.00  0.00     0.149 HD
ENDBRANCH   6  13
BRANCH   5  18
ATOM     18  N   LIG d   1      -0.401  88.968 116.671  0.00  0.00     0.381 N 
ATOM     19  H   LIG d   1      -0.320  87.986 116.843  0.00  0.00    -0.090 HD
ATOM     20  H   LIG d   1      -1.017  89.102 115.889  0.00  0.00    -0.090 HD
ATOM     21  H   LIG d   1      -0.770  89.425 117.476  0.00  0.00    -0.090 HD
ENDBRANCH   5  18
BRANCH   3  22
ATOM     22  C   LIG d   1       2.879  92.263 117.822  0.00  0.00     0.382 C 
ATOM     23  O   LIG d   1       2.276  92.675 118.842  0.00  0.00    -0.241 OA
ATOM     24  O   LIG d   1       3.682  93.016 117.239  0.00  0.00    -0.241 OA
ENDBRANCH   3  22
TORSDOF 7
ENDMDL
MODEL 8
REMARK VINA RESULT:      -4.3      2.424      5.269
REMARK  7 active torsions:
REMARK  status: ('A' for Active; 'I' for Inactive)
REMARK    1  A    between atoms: C_2  and  C_3 
REMARK    2  A    between atoms: C_3  and  O_6 
REMARK    3  A    between atoms: C_3  and  C_4 
REMARK    4  A    between atoms: C_7  and  O_6 
REMARK    5  A    between atoms: C_9  and  C_10 
REMARK    6  A    between atoms: N_15  and  C_14 
REMARK    7  A    between atoms: N_20  and  C_19 
REMARK       I    between atoms: C_22  and  N_20 
ROOT
ATOM      1  C   LIG d   1       3.682  89.483 116.035  0.00  0.00     0.161 C 
ATOM      2  C   LIG d   1       3.230  89.236 114.728  0.00  0.00     0.016 C 
ATOM      3  C   LIG d   1       3.616  88.106 113.972  0.00  0.00     0.038 C 
ATOM      4  C   LIG d   1       4.366  87.061 114.530  0.00  0.00     0.028 C 
ATOM      5  C   LIG d   1       5.263  87.506 115.681  0.00  0.00    -0.047 C 
ATOM      6  C   LIG d   1       4.413  88.298 116.701  0.00  0.00     0.091 C 
ENDROOT
BRANCH   1   7
ATOM      7  O   LIG d   1       2.583  89.920 116.858  0.00  0.00    -0.368 OA
BRANCH   7   8
ATOM      8  C   LIG d   1       2.407  91.353 116.978  0.00  0.00     0.119 C 
BRANCH   8   9
ATOM      9  C   LIG d   1       3.188  91.813 118.225  0.00  0.00     0.028 C 
ATOM     10  C   LIG d   1       4.195  92.931 117.907  0.00  0.00     0.006 C 
ENDBRANCH   8   9
BRANCH   8  11
ATOM     11  C   LIG d   1       0.945  91.714 117.260  0.00  0.00     0.028 C 
ATOM     12  C   LIG d   1      -0.023  90.560 116.952  0.00  0.00     0.006 C 
ENDBRANCH   8  11
ENDBRANCH   7   8
ENDBRANCH   1   7
BRANCH   6  13
ATOM     13  N   LIG d   1       5.230  88.843 117.817  0.00  0.00    -0.311 N 
ATOM     14  C   LIG d   1       6.175  89.767 117.651  0.00  0.00     0.210 C 
ATOM     15  C   LIG d   1       6.912  90.176 118.930  0.00  0.00     0.109 C 
ATOM     16  O   LIG d   1       6.451  90.310 116.570  0.00  0.00    -0.276 OA
ATOM     17  H   LIG d   1       5.050  88.481 118.733  0.00  0.00     0.149 HD
ENDBRANCH   6  13
BRANCH   5  18
ATOM     18  N   LIG d   1       5.881  86.298 116.258  0.00  0.00     0.381 N 
ATOM     19  H   LIG d   1       6.309  86.522 117.134  0.00  0.00    -0.090 HD
ATOM     20  H   LIG d   1       6.596  85.969 115.633  0.00  0.00    -0.090 HD
ATOM     21  H   LIG d   1       5.192  85.591 116.387  0.00  0.00    -0.090 HD
ENDBRANCH   5  18
BRANCH   3  22
ATOM     22  C   LIG d   1       3.283  88.032 112.628  0.00  0.00     0.382 C 
ATOM     23  O   LIG d   1       3.823  87.169 111.894  0.00  0.00    -0.241 OA
ATOM     24  O   LIG d   1       2.482  88.846 112.130  0.00  0.00    -0.241 OA
ENDBRANCH   3  22
TORSDOF 7
ENDMDL
MODEL 9
REMARK VINA RESULT:      -4.2      2.824      4.352
REMARK  7 active torsions:
REMARK  status: ('A' for Active; 'I' for Inactive)
REMARK    1  A    between atoms: C_2  and  C_3 
REMARK    2  A    between atoms: C_3  and  O_6 
REMARK    3  A    between atoms: C_3  and  C_4 
REMARK    4  A    between atoms: C_7  and  O_6 
REMARK    5  A    between atoms: C_9  and  C_10 
REMARK    6  A    between atoms: N_15  and  C_14 
REMARK    7  A    between atoms: N_20  and  C_19 
REMARK       I    between atoms: C_22  and  N_20 
ROOT
ATOM      1  C   LIG d   1       2.150  89.073 116.301  0.00  0.00     0.161 C 
ATOM      2  C   LIG d   1       1.061  89.939 116.499  0.00  0.00     0.016 C 
ATOM      3  C   LIG d   1       1.192  91.249 117.014  0.00  0.00     0.038 C 
ATOM      4  C   LIG d   1       2.447  91.840 117.225  0.00  0.00     0.028 C 
ATOM      5  C   LIG d   1       3.552  90.830 117.516  0.00  0.00    -0.047 C 
ATOM      6  C   LIG d   1       3.537  89.740 116.421  0.00  0.00     0.091 C 
ENDROOT
BRANCH   1   7
ATOM      7  O   LIG d   1       2.022  88.410 115.027  0.00  0.00    -0.368 OA
BRANCH   7   8
ATOM      8  C   LIG d   1       2.047  86.962 115.057  0.00  0.00     0.119 C 
BRANCH   8   9
ATOM      9  C   LIG d   1       1.915  86.467 113.604  0.00  0.00     0.028 C 
ATOM     10  C   LIG d   1       2.906  87.162 112.655  0.00  0.00     0.006 C 
ENDBRANCH   8   9
BRANCH   8  11
ATOM     11  C   LIG d   1       0.825  86.399 115.790  0.00  0.00     0.028 C 
ATOM     12  C   LIG d   1      -0.387  86.204 114.865  0.00  0.00     0.006 C 
ENDBRANCH   8  11
ENDBRANCH   7   8
ENDBRANCH   1   7
BRANCH   6  13
ATOM     13  N   LIG d   1       4.532  88.666 116.675  0.00  0.00    -0.311 N 
ATOM     14  C   LIG d   1       5.427  88.267 115.773  0.00  0.00     0.210 C 
ATOM     15  C   LIG d   1       6.346  87.132 116.234  0.00  0.00     0.109 C 
ATOM     16  O   LIG d   1       5.567  88.767 114.647  0.00  0.00    -0.276 OA
ATOM     17  H   LIG d   1       4.509  88.228 117.575  0.00  0.00     0.149 HD
ENDBRANCH   6  13
BRANCH   5  18
ATOM     18  N   LIG d   1       4.826  91.570 117.579  0.00  0.00     0.381 N 
ATOM     19  H   LIG d   1       5.241  91.607 116.669  0.00  0.00    -0.090 HD
ATOM     20  H   LIG d   1       5.455  91.082 118.192  0.00  0.00    -0.090 HD
ATOM     21  H   LIG d   1       4.669  92.493 117.918  0.00  0.00    -0.090 HD
ENDBRANCH   5  18
BRANCH   3  22
ATOM     22  C   LIG d   1       0.059  91.967 117.361  0.00  0.00     0.382 C 
ATOM     23  O   LIG d   1       0.119  93.215 117.483  0.00  0.00    -0.241 OA
ATOM     24  O   LIG d   1      -1.014  91.380 117.598  0.00  0.00    -0.241 OA
ENDBRANCH   3  22
TORSDOF 7
ENDMDL
