MODEL 1
REMARK VINA RESULT:      -4.3      0.000      0.000
REMARK  7 active torsions:
REMARK  status: ('A' for Active; 'I' for Inactive)
REMARK    1  A    between atoms: C_2  and  C_3 
REMARK    2  A    between atoms: C_3  and  O_6 
REMARK    3  A    between atoms: C_3  and  C_4 
REMARK    4  A    between atoms: C_7  and  O_6 
REMARK    5  A    between atoms: C_9  and  C_10 
REMARK    6  A    between atoms: N_15  and  C_14 
REMARK    7  A    between atoms: N_20  and  C_19 
REMARK       I    between atoms: C_22  and  N_20 
ROOT
ATOM      1  C   LIG d   1       2.824  86.722 115.120  0.00  0.00     0.161 C 
ATOM      2  C   LIG d   1       1.775  86.311 115.957  0.00  0.00     0.016 C 
ATOM      3  C   LIG d   1       1.069  87.190 116.810  0.00  0.00     0.038 C 
ATOM      4  C   LIG d   1       1.266  88.578 116.771  0.00  0.00     0.028 C 
ATOM      5  C   LIG d   1       2.663  88.979 116.309  0.00  0.00    -0.047 C 
ATOM      6  C   LIG d   1       2.980  88.251 114.982  0.00  0.00     0.091 C 
ENDROOT
BRANCH   1   7
ATOM      7  O   LIG d   1       2.681  86.114 113.821  0.00  0.00    -0.368 OA
BRANCH   7   8
ATOM      8  C   LIG d   1       1.812  86.802 112.888  0.00  0.00     0.119 C 
BRANCH   8   9
ATOM      9  C   LIG d   1       0.639  85.857 112.564  0.00  0.00     0.028 C 
ATOM     10  C   LIG d   1      -0.414  86.517 111.659  0.00  0.00     0.006 C 
ENDBRANCH   8   9
BRANCH   8  11
ATOM     11  C   LIG d   1       2.516  87.048 111.550  0.00  0.00     0.028 C 
ATOM     12  C   LIG d   1       3.897  86.379 111.471  0.00  0.00     0.006 C 
ENDBRANCH   8  11
ENDBRANCH   7   8
ENDBRANCH   1   7
BRANCH   6  13
ATOM     13  N   LIG d   1       4.360  88.522 114.503  0.00  0.00    -0.311 N 
ATOM     14  C   LIG d   1       4.647  89.421 113.563  0.00  0.00     0.210 C 
ATOM     15  C   LIG d   1       6.132  89.528 113.202  0.00  0.00     0.109 C 
ATOM     16  O   LIG d   1       3.817  90.164 113.018  0.00  0.00    -0.276 OA
ATOM     17  H   LIG d   1       5.099  87.986 114.914  0.00  0.00     0.149 HD
ENDBRANCH   6  13
BRANCH   5  18
ATOM     18  N   LIG d   1       2.687  90.448 116.182  0.00  0.00     0.381 N 
ATOM     19  H   LIG d   1       2.222  90.723 115.340  0.00  0.00    -0.090 HD
ATOM     20  H   LIG d   1       3.642  90.755 116.130  0.00  0.00    -0.090 HD
ATOM     21  H   LIG d   1       2.239  90.865 116.968  0.00  0.00    -0.090 HD
ENDBRANCH   5  18
BRANCH   3  22
ATOM     22  C   LIG d   1       0.181  86.677 117.744  0.00  0.00     0.382 C 
ATOM     23  O   LIG d   1       0.033  85.436 117.852  0.00  0.00    -0.241 OA
ATOM     24  O   LIG d   1      -0.507  87.441 118.448  0.00  0.00    -0.241 OA
ENDBRANCH   3  22
TORSDOF 7
ENDMDL
MODEL 2
REMARK VINA RESULT:      -4.2      2.954      5.206
REMARK  7 active torsions:
REMARK  status: ('A' for Active; 'I' for Inactive)
REMARK    1  A    between atoms: C_2  and  C_3 
REMARK    2  A    between atoms: C_3  and  O_6 
REMARK    3  A    between atoms: C_3  and  C_4 
REMARK    4  A    between atoms: C_7  and  O_6 
REMARK    5  A    between atoms: C_9  and  C_10 
REMARK    6  A    between atoms: N_15  and  C_14 
REMARK    7  A    between atoms: N_20  and  C_19 
REMARK       I    between atoms: C_22  and  N_20 
ROOT
ATOM      1  C   LIG d   1       3.636  88.293 115.769  0.00  0.00     0.161 C 
ATOM      2  C   LIG d   1       4.390  88.611 116.911  0.00  0.00     0.016 C 
ATOM      3  C   LIG d   1       5.696  89.151 116.855  0.00  0.00     0.038 C 
ATOM      4  C   LIG d   1       6.282  89.552 115.645  0.00  0.00     0.028 C 
ATOM      5  C   LIG d   1       5.759  88.784 114.435  0.00  0.00    -0.047 C 
ATOM      6  C   LIG d   1       4.214  88.827 114.442  0.00  0.00     0.091 C 
ENDROOT
BRANCH   1   7
ATOM      7  O   LIG d   1       2.277  88.743 115.941  0.00  0.00    -0.368 OA
BRANCH   7   8
ATOM      8  C   LIG d   1       2.043  89.662 117.037  0.00  0.00     0.119 C 
BRANCH   8   9
ATOM      9  C   LIG d   1       0.639  89.366 117.597  0.00  0.00     0.028 C 
ATOM     10  C   LIG d   1      -0.339  90.532 117.374  0.00  0.00     0.006 C 
ENDBRANCH   8   9
BRANCH   8  11
ATOM     11  C   LIG d   1       1.987  91.111 116.546  0.00  0.00     0.028 C 
ATOM     12  C   LIG d   1       3.073  91.997 117.178  0.00  0.00     0.006 C 
ENDBRANCH   8  11
ENDBRANCH   7   8
ENDBRANCH   1   7
BRANCH   6  13
ATOM     13  N   LIG d   1       3.620  88.029 113.339  0.00  0.00    -0.311 N 
ATOM     14  C   LIG d   1       2.707  88.509 112.496  0.00  0.00     0.210 C 
ATOM     15  C   LIG d   1       2.211  87.512 111.444  0.00  0.00     0.109 C 
ATOM     16  O   LIG d   1       2.285  89.675 112.499  0.00  0.00    -0.276 OA
ATOM     17  H   LIG d   1       3.928  87.081 113.244  0.00  0.00     0.149 HD
ENDBRANCH   6  13
BRANCH   5  18
ATOM     18  N   LIG d   1       6.350  89.395 113.230  0.00  0.00     0.381 N 
ATOM     19  H   LIG d   1       5.709  90.056 112.837  0.00  0.00    -0.090 HD
ATOM     20  H   LIG d   1       6.517  88.676 112.549  0.00  0.00    -0.090 HD
ATOM     21  H   LIG d   1       7.206  89.849 113.462  0.00  0.00    -0.090 HD
ENDBRANCH   5  18
BRANCH   3  22
ATOM     22  C   LIG d   1       6.446  89.256 118.016  0.00  0.00     0.382 C 
ATOM     23  O   LIG d   1       6.230  90.195 118.819  0.00  0.00    -0.241 OA
ATOM     24  O   LIG d   1       7.367  88.450 118.249  0.00  0.00    -0.241 OA
ENDBRANCH   3  22
TORSDOF 7
ENDMDL
MODEL 3
REMARK VINA RESULT:      -4.1      2.947      3.825
REMARK  7 active torsions:
REMARK  status: ('A' for Active; 'I' for Inactive)
REMARK    1  A    between atoms: C_2  and  C_3 
REMARK    2  A    between atoms: C_3  and  O_6 
REMARK    3  A    between atoms: C_3  and  C_4 
REMARK    4  A    between atoms: C_7  and  O_6 
REMARK    5  A    between atoms: C_9  and  C_10 
REMARK    6  A    between atoms: N_15  and  C_14 
REMARK    7  A    between atoms: N_20  and  C_19 
REMARK       I    between atoms: C_22  and  N_20 
ROOT
ATOM      1  C   LIG d   1       3.924  88.597 116.406  0.00  0.00     0.161 C 
ATOM      2  C   LIG d   1       2.610  89.093 116.375  0.00  0.00     0.016 C 
ATOM      3  C   LIG d   1       2.217  90.294 117.009  0.00  0.00     0.038 C 
ATOM      4  C   LIG d   1       3.150  91.164 117.593  0.00  0.00     0.028 C 
ATOM      5  C   LIG d   1       4.410  90.459 118.086  0.00  0.00    -0.047 C 
ATOM      6  C   LIG d   1       4.978  89.588 116.943  0.00  0.00     0.091 C 
ENDROOT
BRANCH   1   7
ATOM      7  O   LIG d   1       4.300  88.128 115.095  0.00  0.00    -0.368 OA
BRANCH   7   8
ATOM      8  C   LIG d   1       3.624  88.754 113.977  0.00  0.00     0.119 C 
BRANCH   8   9
ATOM      9  C   LIG d   1       3.361  87.660 112.924  0.00  0.00     0.028 C 
ATOM     10  C   LIG d   1       2.249  88.050 111.936  0.00  0.00     0.006 C 
ENDBRANCH   8   9
BRANCH   8  11
ATOM     11  C   LIG d   1       4.527  89.777 113.282  0.00  0.00     0.028 C 
ATOM     12  C   LIG d   1       6.020  89.428 113.395  0.00  0.00     0.006 C 
ENDBRANCH   8  11
ENDBRANCH   7   8
ENDBRANCH   1   7
BRANCH   6  13
ATOM     13  N   LIG d   1       6.163  88.799 117.367  0.00  0.00    -0.311 N 
ATOM     14  C   LIG d   1       7.417  89.230 117.235  0.00  0.00     0.210 C 
ATOM     15  C   LIG d   1       8.491  88.251 117.718  0.00  0.00     0.109 C 
ATOM     16  O   LIG d   1       7.739  90.343 116.794  0.00  0.00    -0.276 OA
ATOM     17  H   LIG d   1       5.992  87.896 117.764  0.00  0.00     0.149 HD
ENDBRANCH   6  13
BRANCH   5  18
ATOM     18  N   LIG d   1       5.351  91.498 118.544  0.00  0.00     0.381 N 
ATOM     19  H   LIG d   1       6.287  91.236 118.306  0.00  0.00    -0.090 HD
ATOM     20  H   LIG d   1       5.290  91.574 119.544  0.00  0.00    -0.090 HD
ATOM     21  H   LIG d   1       5.126  92.372 118.123  0.00  0.00    -0.090 HD
ENDBRANCH   5  18
BRANCH   3  22
ATOM     22  C   LIG d   1       0.872  90.616 117.098  0.00  0.00     0.382 C 
ATOM     23  O   LIG d   1       0.524  91.789 117.378  0.00  0.00    -0.241 OA
ATOM     24  O   LIG d   1       0.001  89.738 116.946  0.00  0.00    -0.241 OA
ENDBRANCH   3  22
TORSDOF 7
ENDMDL
MODEL 4
REMARK VINA RESULT:      -4.1      3.170      4.937
REMARK  7 active torsions:
REMARK  status: ('A' for Active; 'I' for Inactive)
REMARK    1  A    between atoms: C_2  and  C_3 
REMARK    2  A    between atoms: C_3  and  O_6 
REMARK    3  A    between atoms: C_3  and  C_4 
REMARK    4  A    between atoms: C_7  and  O_6 
REMARK    5  A    between atoms: C_9  and  C_10 
REMARK    6  A    between atoms: N_15  and  C_14 
REMARK    7  A    between atoms: N_20  and  C_19 
REMARK       I    between atoms: C_22  and  N_20 
ROOT
ATOM      1  C   LIG d   1       0.179  89.435 117.731  0.00  0.00     0.161 C 
ATOM      2  C   LIG d   1      -1.172  89.051 117.703  0.00  0.00     0.016 C 
ATOM      3  C   LIG d   1      -2.244  89.965 117.830  0.00  0.00     0.038 C 
ATOM      4  C   LIG d   1      -2.037  91.353 117.842  0.00  0.00     0.028 C 
ATOM      5  C   LIG d   1      -0.669  91.757 118.380  0.00  0.00    -0.047 C 
ATOM      6  C   LIG d   1       0.421  90.956 117.632  0.00  0.00     0.091 C 
ENDROOT
BRANCH   1   7
ATOM      7  O   LIG d   1       0.905  88.743 116.696  0.00  0.00    -0.368 OA
BRANCH   7   8
ATOM      8  C   LIG d   1       1.679  87.594 117.119  0.00  0.00     0.119 C 
BRANCH   8   9
ATOM      9  C   LIG d   1       3.062  87.695 116.448  0.00  0.00     0.028 C 
ATOM     10  C   LIG d   1       3.021  88.494 115.135  0.00  0.00     0.006 C 
ENDBRANCH   8   9
BRANCH   8  11
ATOM     11  C   LIG d   1       1.070  86.289 116.598  0.00  0.00     0.028 C 
ATOM     12  C   LIG d   1       0.427  85.445 117.710  0.00  0.00     0.006 C 
ENDBRANCH   8  11
ENDBRANCH   7   8
ENDBRANCH   1   7
BRANCH   6  13
ATOM     13  N   LIG d   1       1.785  91.229 118.156  0.00  0.00    -0.311 N 
ATOM     14  C   LIG d   1       2.800  91.621 117.389  0.00  0.00     0.210 C 
ATOM     15  C   LIG d   1       4.127  91.828 118.127  0.00  0.00     0.109 C 
ATOM     16  O   LIG d   1       2.721  91.848 116.172  0.00  0.00    -0.276 OA
ATOM     17  H   LIG d   1       1.931  91.099 119.138  0.00  0.00     0.149 HD
ENDBRANCH   6  13
BRANCH   5  18
ATOM     18  N   LIG d   1      -0.535  93.215 118.208  0.00  0.00     0.381 N 
ATOM     19  H   LIG d   1       0.413  93.490 118.370  0.00  0.00    -0.090 HD
ATOM     20  H   LIG d   1      -1.117  93.677 118.885  0.00  0.00    -0.090 HD
ATOM     21  H   LIG d   1      -0.812  93.477 117.288  0.00  0.00    -0.090 HD
ENDBRANCH   5  18
BRANCH   3  22
ATOM     22  C   LIG d   1      -3.537  89.490 117.986  0.00  0.00     0.382 C 
ATOM     23  O   LIG d   1      -4.442  89.867 117.202  0.00  0.00    -0.241 OA
ATOM     24  O   LIG d   1      -3.820  88.725 118.927  0.00  0.00    -0.241 OA
ENDBRANCH   3  22
TORSDOF 7
ENDMDL
MODEL 5
REMARK VINA RESULT:      -3.9      2.981      4.332
REMARK  7 active torsions:
REMARK  status: ('A' for Active; 'I' for Inactive)
REMARK    1  A    between atoms: C_2  and  C_3 
REMARK    2  A    between atoms: C_3  and  O_6 
REMARK    3  A    between atoms: C_3  and  C_4 
REMARK    4  A    between atoms: C_7  and  O_6 
REMARK    5  A    between atoms: C_9  and  C_10 
REMARK    6  A    between atoms: N_15  and  C_14 
REMARK    7  A    between atoms: N_20  and  C_19 
REMARK       I    between atoms: C_22  and  N_20 
ROOT
ATOM      1  C   LIG d   1       2.000  89.615 118.005  0.00  0.00     0.161 C 
ATOM      2  C   LIG d   1       0.927  88.722 117.845  0.00  0.00     0.016 C 
ATOM      3  C   LIG d   1      -0.424  89.133 117.775  0.00  0.00     0.038 C 
ATOM      4  C   LIG d   1      -0.785  90.487 117.710  0.00  0.00     0.028 C 
ATOM      5  C   LIG d   1       0.225  91.416 118.376  0.00  0.00    -0.047 C 
ATOM      6  C   LIG d   1       1.634  91.104 117.824  0.00  0.00     0.091 C 
ENDROOT
BRANCH   1   7
ATOM      7  O   LIG d   1       3.075  89.252 117.118  0.00  0.00    -0.368 OA
BRANCH   7   8
ATOM      8  C   LIG d   1       2.743  89.182 115.709  0.00  0.00     0.119 C 
BRANCH   8   9
ATOM      9  C   LIG d   1       3.339  87.872 115.158  0.00  0.00     0.028 C 
ATOM     10  C   LIG d   1       2.286  86.758 115.026  0.00  0.00     0.006 C 
ENDBRANCH   8   9
BRANCH   8  11
ATOM     11  C   LIG d   1       3.426  90.302 114.919  0.00  0.00     0.028 C 
ATOM     12  C   LIG d   1       3.526  89.996 113.416  0.00  0.00     0.006 C 
ENDBRANCH   8  11
ENDBRANCH   7   8
ENDBRANCH   1   7
BRANCH   6  13
ATOM     13  N   LIG d   1       2.693  91.910 118.485  0.00  0.00    -0.311 N 
ATOM     14  C   LIG d   1       3.163  93.052 117.987  0.00  0.00     0.210 C 
ATOM     15  C   LIG d   1       4.268  93.714 118.817  0.00  0.00     0.109 C 
ATOM     16  O   LIG d   1       2.748  93.597 116.952  0.00  0.00    -0.276 OA
ATOM     17  H   LIG d   1       3.065  91.558 119.346  0.00  0.00     0.149 HD
ENDBRANCH   6  13
BRANCH   5  18
ATOM     18  N   LIG d   1      -0.205  92.802 118.114  0.00  0.00     0.381 N 
ATOM     19  H   LIG d   1      -0.948  93.050 118.737  0.00  0.00    -0.090 HD
ATOM     20  H   LIG d   1      -0.549  92.864 117.172  0.00  0.00    -0.090 HD
ATOM     21  H   LIG d   1       0.562  93.426 118.237  0.00  0.00    -0.090 HD
ENDBRANCH   5  18
BRANCH   3  22
ATOM     22  C   LIG d   1      -1.433  88.183 117.811  0.00  0.00     0.382 C 
ATOM     23  O   LIG d   1      -2.632  88.538 117.705  0.00  0.00    -0.241 OA
ATOM     24  O   LIG d   1      -1.164  86.981 117.992  0.00  0.00    -0.241 OA
ENDBRANCH   3  22
TORSDOF 7
ENDMDL
MODEL 6
REMARK VINA RESULT:      -3.9      2.774      5.135
REMARK  7 active torsions:
REMARK  status: ('A' for Active; 'I' for Inactive)
REMARK    1  A    between atoms: C_2  and  C_3 
REMARK    2  A    between atoms: C_3  and  O_6 
REMARK    3  A    between atoms: C_3  and  C_4 
REMARK    4  A    between atoms: C_7  and  O_6 
REMARK    5  A    between atoms: C_9  and  C_10 
REMARK    6  A    between atoms: N_15  and  C_14 
REMARK    7  A    between atoms: N_20  and  C_19 
REMARK       I    between atoms: C_22  and  N_20 
ROOT
ATOM      1  C   LIG d   1       4.571  86.963 115.477  0.00  0.00     0.161 C 
ATOM      2  C   LIG d   1       5.551  87.370 116.397  0.00  0.00     0.016 C 
ATOM      3  C   LIG d   1       6.307  88.557 116.255  0.00  0.00     0.038 C 
ATOM      4  C   LIG d   1       6.026  89.499 115.255  0.00  0.00     0.028 C 
ATOM      5  C   LIG d   1       5.386  88.891 114.012  0.00  0.00    -0.047 C 
ATOM      6  C   LIG d   1       4.173  88.034 114.440  0.00  0.00     0.091 C 
ENDROOT
BRANCH   1   7
ATOM      7  O   LIG d   1       3.406  86.491 116.182  0.00  0.00    -0.368 OA
BRANCH   7   8
ATOM      8  C   LIG d   1       2.296  87.418 116.271  0.00  0.00     0.119 C 
BRANCH   8   9
ATOM      9  C   LIG d   1       2.258  87.956 117.715  0.00  0.00     0.028 C 
ATOM     10  C   LIG d   1       2.788  89.396 117.818  0.00  0.00     0.006 C 
ENDBRANCH   8   9
BRANCH   8  11
ATOM     11  C   LIG d   1       0.956  86.704 116.070  0.00  0.00     0.028 C 
ATOM     12  C   LIG d   1      -0.090  87.090 117.127  0.00  0.00     0.006 C 
ENDBRANCH   8  11
ENDBRANCH   7   8
ENDBRANCH   1   7
BRANCH   6  13
ATOM     13  N   LIG d   1       3.540  87.334 113.292  0.00  0.00    -0.311 N 
ATOM     14  C   LIG d   1       2.568  87.868 112.554  0.00  0.00     0.210 C 
ATOM     15  C   LIG d   1       2.042  86.969 111.430  0.00  0.00     0.109 C 
ATOM     16  O   LIG d   1       2.114  89.013 112.702  0.00  0.00    -0.276 OA
ATOM     17  H   LIG d   1       3.869  86.413 113.081  0.00  0.00     0.149 HD
ENDBRANCH   6  13
BRANCH   5  18
ATOM     18  N   LIG d   1       5.021  90.000 113.110  0.00  0.00     0.381 N 
ATOM     19  H   LIG d   1       4.729  89.636 112.226  0.00  0.00    -0.090 HD
ATOM     20  H   LIG d   1       5.830  90.578 112.962  0.00  0.00    -0.090 HD
ATOM     21  H   LIG d   1       4.287  90.540 113.514  0.00  0.00    -0.090 HD
ENDBRANCH   5  18
BRANCH   3  22
ATOM     22  C   LIG d   1       7.384  88.790 117.097  0.00  0.00     0.382 C 
ATOM     23  O   LIG d   1       7.794  87.881 117.857  0.00  0.00    -0.241 OA
ATOM     24  O   LIG d   1       7.922  89.913 117.137  0.00  0.00    -0.241 OA
ENDBRANCH   3  22
TORSDOF 7
ENDMDL
MODEL 7
REMARK VINA RESULT:      -3.8      2.398      6.176
REMARK  7 active torsions:
REMARK  status: ('A' for Active; 'I' for Inactive)
REMARK    1  A    between atoms: C_2  and  C_3 
REMARK    2  A    between atoms: C_3  and  O_6 
REMARK    3  A    between atoms: C_3  and  C_4 
REMARK    4  A    between atoms: C_7  and  O_6 
REMARK    5  A    between atoms: C_9  and  C_10 
REMARK    6  A    between atoms: N_15  and  C_14 
REMARK    7  A    between atoms: N_20  and  C_19 
REMARK       I    between atoms: C_22  and  N_20 
ROOT
ATOM      1  C   LIG d   1       3.379  87.946 116.163  0.00  0.00     0.161 C 
ATOM      2  C   LIG d   1       4.214  88.311 115.093  0.00  0.00     0.016 C 
ATOM      3  C   LIG d   1       3.949  87.968 113.747  0.00  0.00     0.038 C 
ATOM      4  C   LIG d   1       2.744  87.363 113.360  0.00  0.00     0.028 C 
ATOM      5  C   LIG d   1       2.104  86.527 114.463  0.00  0.00    -0.047 C 
ATOM      6  C   LIG d   1       2.005  87.382 115.747  0.00  0.00     0.091 C 
ENDROOT
BRANCH   1   7
ATOM      7  O   LIG d   1       3.212  89.065 117.056  0.00  0.00    -0.368 OA
BRANCH   7   8
ATOM      8  C   LIG d   1       2.216  90.044 116.671  0.00  0.00     0.119 C 
BRANCH   8   9
ATOM      9  C   LIG d   1       2.947  91.379 116.432  0.00  0.00     0.028 C 
ATOM     10  C   LIG d   1       3.434  92.024 117.741  0.00  0.00     0.006 C 
ENDBRANCH   8   9
BRANCH   8  11
ATOM     11  C   LIG d   1       1.234  90.318 117.814  0.00  0.00     0.028 C 
ATOM     12  C   LIG d   1      -0.138  90.801 117.318  0.00  0.00     0.006 C 
ENDBRANCH   8  11
ENDBRANCH   7   8
ENDBRANCH   1   7
BRANCH   6  13
ATOM     13  N   LIG d   1       1.466  86.614 116.899  0.00  0.00    -0.311 N 
ATOM     14  C   LIG d   1       0.200  86.690 117.305  0.00  0.00     0.210 C 
ATOM     15  C   LIG d   1      -0.142  85.830 118.525  0.00  0.00     0.109 C 
ATOM     16  O   LIG d   1      -0.681  87.365 116.749  0.00  0.00    -0.276 OA
ATOM     17  H   LIG d   1       2.105  86.017 117.388  0.00  0.00     0.149 HD
ENDBRANCH   6  13
BRANCH   5  18
ATOM     18  N   LIG d   1       0.791  86.069 113.970  0.00  0.00     0.381 N 
ATOM     19  H   LIG d   1       0.919  85.352 113.284  0.00  0.00    -0.090 HD
ATOM     20  H   LIG d   1       0.320  86.842 113.534  0.00  0.00    -0.090 HD
ATOM     21  H   LIG d   1       0.245  85.721 114.727  0.00  0.00    -0.090 HD
ENDBRANCH   5  18
BRANCH   3  22
ATOM     22  C   LIG d   1       4.914  88.195 112.778  0.00  0.00     0.382 C 
ATOM     23  O   LIG d   1       5.739  89.130 112.921  0.00  0.00    -0.241 OA
ATOM     24  O   LIG d   1       4.941  87.506 111.740  0.00  0.00    -0.241 OA
ENDBRANCH   3  22
TORSDOF 7
ENDMDL
MODEL 8
REMARK VINA RESULT:      -3.6      3.782      6.246
REMARK  7 active torsions:
REMARK  status: ('A' for Active; 'I' for Inactive)
REMARK    1  A    between atoms: C_2  and  C_3 
REMARK    2  A    between atoms: C_3  and  O_6 
REMARK    3  A    between atoms: C_3  and  C_4 
REMARK    4  A    between atoms: C_7  and  O_6 
REMARK    5  A    between atoms: C_9  and  C_10 
REMARK    6  A    between atoms: N_15  and  C_14 
REMARK    7  A    between atoms: N_20  and  C_19 
REMARK       I    between atoms: C_22  and  N_20 
ROOT
ATOM      1  C   LIG d   1       0.050  90.139 117.711  0.00  0.00     0.161 C 
ATOM      2  C   LIG d   1       0.294  88.762 117.583  0.00  0.00     0.016 C 
ATOM      3  C   LIG d   1      -0.711  87.777 117.720  0.00  0.00     0.038 C 
ATOM      4  C   LIG d   1      -2.067  88.115 117.845  0.00  0.00     0.028 C 
ATOM      5  C   LIG d   1      -2.295  89.481 118.483  0.00  0.00    -0.047 C 
ATOM      6  C   LIG d   1      -1.442  90.532 117.737  0.00  0.00     0.091 C 
ENDROOT
BRANCH   1   7
ATOM      7  O   LIG d   1       0.738  90.857 116.667  0.00  0.00    -0.368 OA
BRANCH   7   8
ATOM      8  C   LIG d   1       2.184  90.755 116.670  0.00  0.00     0.119 C 
BRANCH   8   9
ATOM      9  C   LIG d   1       2.744  92.133 117.072  0.00  0.00     0.028 C 
ATOM     10  C   LIG d   1       2.314  92.552 118.488  0.00  0.00     0.006 C 
ENDBRANCH   8   9
BRANCH   8  11
ATOM     11  C   LIG d   1       2.727  90.491 115.263  0.00  0.00     0.028 C 
ATOM     12  C   LIG d   1       3.072  89.012 115.025  0.00  0.00     0.006 C 
ENDBRANCH   8  11
ENDBRANCH   7   8
ENDBRANCH   1   7
BRANCH   6  13
ATOM     13  N   LIG d   1      -1.541  91.882 118.351  0.00  0.00    -0.311 N 
ATOM     14  C   LIG d   1      -2.515  92.746 118.068  0.00  0.00     0.210 C 
ATOM     15  C   LIG d   1      -2.418  94.090 118.797  0.00  0.00     0.109 C 
ATOM     16  O   LIG d   1      -3.467  92.515 117.308  0.00  0.00    -0.276 OA
ATOM     17  H   LIG d   1      -0.827  92.140 119.003  0.00  0.00     0.149 HD
ENDBRANCH   6  13
BRANCH   5  18
ATOM     18  N   LIG d   1      -3.741  89.764 118.427  0.00  0.00     0.381 N 
ATOM     19  H   LIG d   1      -3.928  90.430 117.704  0.00  0.00    -0.090 HD
ATOM     20  H   LIG d   1      -4.030  90.160 119.304  0.00  0.00    -0.090 HD
ATOM     21  H   LIG d   1      -4.247  88.923 118.251  0.00  0.00    -0.090 HD
ENDBRANCH   5  18
BRANCH   3  22
ATOM     22  C   LIG d   1      -0.358  86.437 117.772  0.00  0.00     0.382 C 
ATOM     23  O   LIG d   1      -0.949  85.664 118.563  0.00  0.00    -0.241 OA
ATOM     24  O   LIG d   1       0.573  86.002 117.069  0.00  0.00    -0.241 OA
ENDBRANCH   3  22
TORSDOF 7
ENDMDL
MODEL 9
REMARK VINA RESULT:      -3.6      5.940      8.428
REMARK  7 active torsions:
REMARK  status: ('A' for Active; 'I' for Inactive)
REMARK    1  A    between atoms: C_2  and  C_3 
REMARK    2  A    between atoms: C_3  and  O_6 
REMARK    3  A    between atoms: C_3  and  C_4 
REMARK    4  A    between atoms: C_7  and  O_6 
REMARK    5  A    between atoms: C_9  and  C_10 
REMARK    6  A    between atoms: N_15  and  C_14 
REMARK    7  A    between atoms: N_20  and  C_19 
REMARK       I    between atoms: C_22  and  N_20 
ROOT
ATOM      1  C   LIG d   1      -2.998  91.467 118.067  0.00  0.00     0.161 C 
ATOM      2  C   LIG d   1      -2.853  92.863 118.005  0.00  0.00     0.016 C 
ATOM      3  C   LIG d   1      -1.601  93.518 118.057  0.00  0.00     0.038 C 
ATOM      4  C   LIG d   1      -0.391  92.809 118.021  0.00  0.00     0.028 C 
ATOM      5  C   LIG d   1      -0.498  91.399 118.592  0.00  0.00    -0.047 C 
ATOM      6  C   LIG d   1      -1.683  90.673 117.916  0.00  0.00     0.091 C 
ENDROOT
BRANCH   1   7
ATOM      7  O   LIG d   1      -3.961  91.032 117.087  0.00  0.00    -0.368 OA
BRANCH   7   8
ATOM      8  C   LIG d   1      -5.170  90.426 117.607  0.00  0.00     0.119 C 
BRANCH   8   9
ATOM      9  C   LIG d   1      -6.307  90.738 116.615  0.00  0.00     0.028 C 
ATOM     10  C   LIG d   1      -5.837  91.610 115.438  0.00  0.00     0.006 C 
ENDBRANCH   8   9
BRANCH   8  11
ATOM     11  C   LIG d   1      -5.595  91.075 118.927  0.00  0.00     0.028 C 
ATOM     12  C   LIG d   1      -6.579  92.239 118.730  0.00  0.00     0.006 C 
ENDBRANCH   8  11
ENDBRANCH   7   8
ENDBRANCH   1   7
BRANCH   6  13
ATOM     13  N   LIG d   1      -1.910  89.316 118.478  0.00  0.00    -0.311 N 
ATOM     14  C   LIG d   1      -1.323  88.218 118.003  0.00  0.00     0.210 C 
ATOM     15  C   LIG d   1      -1.712  86.918 118.714  0.00  0.00     0.109 C 
ATOM     16  O   LIG d   1      -0.492  88.203 117.083  0.00  0.00    -0.276 OA
ATOM     17  H   LIG d   1      -2.546  89.241 119.247  0.00  0.00     0.149 HD
ENDBRANCH   6  13
BRANCH   5  18
ATOM     18  N   LIG d   1       0.796  90.728 118.367  0.00  0.00     0.381 N 
ATOM     19  H   LIG d   1       0.930  90.012 119.053  0.00  0.00    -0.090 HD
ATOM     20  H   LIG d   1       1.534  91.403 118.467  0.00  0.00    -0.090 HD
ATOM     21  H   LIG d   1       0.820  90.331 117.453  0.00  0.00    -0.090 HD
ENDBRANCH   5  18
BRANCH   3  22
ATOM     22  C   LIG d   1      -1.552  94.898 118.185  0.00  0.00     0.382 C 
ATOM     23  O   LIG d   1      -2.375  95.488 118.927  0.00  0.00    -0.241 OA
ATOM     24  O   LIG d   1      -0.726  95.564 117.534  0.00  0.00    -0.241 OA
ENDBRANCH   3  22
TORSDOF 7
ENDMDL
