MODEL 1
REMARK VINA RESULT:      -4.7      0.000      0.000
REMARK  7 active torsions:
REMARK  status: ('A' for Active; 'I' for Inactive)
REMARK    1  A    between atoms: C_2  and  C_3 
REMARK    2  A    between atoms: C_3  and  O_6 
REMARK    3  A    between atoms: C_3  and  C_4 
REMARK    4  A    between atoms: C_7  and  O_6 
REMARK    5  A    between atoms: C_9  and  C_10 
REMARK    6  A    between atoms: N_15  and  C_14 
REMARK    7  A    between atoms: N_20  and  C_19 
REMARK       I    between atoms: C_22  and  N_20 
ROOT
ATOM      1  C   LIG d   1       1.179  88.804 117.029  0.00  0.00     0.161 C 
ATOM      2  C   LIG d   1      -0.214  88.624 117.079  0.00  0.00     0.016 C 
ATOM      3  C   LIG d   1      -1.096  89.546 117.688  0.00  0.00     0.038 C 
ATOM      4  C   LIG d   1      -0.657  90.792 118.160  0.00  0.00     0.028 C 
ATOM      5  C   LIG d   1       0.808  90.796 118.585  0.00  0.00    -0.047 C 
ATOM      6  C   LIG d   1       1.664  90.210 117.440  0.00  0.00     0.091 C 
ENDROOT
BRANCH   1   7
ATOM      7  O   LIG d   1       1.668  88.469 115.715  0.00  0.00    -0.368 OA
BRANCH   7   8
ATOM      8  C   LIG d   1       2.410  87.229 115.608  0.00  0.00     0.119 C 
BRANCH   8   9
ATOM      9  C   LIG d   1       3.441  87.402 114.476  0.00  0.00     0.028 C 
ATOM     10  C   LIG d   1       4.418  88.559 114.745  0.00  0.00     0.006 C 
ENDBRANCH   8   9
BRANCH   8  11
ATOM     11  C   LIG d   1       1.506  86.076 115.160  0.00  0.00     0.028 C 
ATOM     12  C   LIG d   1       1.736  85.674 113.695  0.00  0.00     0.006 C 
ENDBRANCH   8  11
ENDBRANCH   7   8
ENDBRANCH   1   7
BRANCH   6  13
ATOM     13  N   LIG d   1       3.101  90.100 117.806  0.00  0.00    -0.311 N 
ATOM     14  C   LIG d   1       4.005  91.033 117.513  0.00  0.00     0.210 C 
ATOM     15  C   LIG d   1       5.434  90.713 117.963  0.00  0.00     0.109 C 
ATOM     16  O   LIG d   1       3.754  92.109 116.951  0.00  0.00    -0.276 OA
ATOM     17  H   LIG d   1       3.386  89.272 118.292  0.00  0.00     0.149 HD
ENDBRANCH   6  13
BRANCH   5  18
ATOM     18  N   LIG d   1       1.169  92.186 118.924  0.00  0.00     0.381 N 
ATOM     19  H   LIG d   1       0.926  92.793 118.167  0.00  0.00    -0.090 HD
ATOM     20  H   LIG d   1       2.163  92.238 119.064  0.00  0.00    -0.090 HD
ATOM     21  H   LIG d   1       0.694  92.469 119.753  0.00  0.00    -0.090 HD
ENDBRANCH   5  18
BRANCH   3  22
ATOM     22  C   LIG d   1      -2.428  89.206 117.866  0.00  0.00     0.382 C 
ATOM     23  O   LIG d   1      -3.318  89.789 117.201  0.00  0.00    -0.241 OA
ATOM     24  O   LIG d   1      -2.756  88.356 118.716  0.00  0.00    -0.241 OA
ENDBRANCH   3  22
TORSDOF 7
ENDMDL
MODEL 2
REMARK VINA RESULT:      -4.5      3.216      6.027
REMARK  7 active torsions:
REMARK  status: ('A' for Active; 'I' for Inactive)
REMARK    1  A    between atoms: C_2  and  C_3 
REMARK    2  A    between atoms: C_3  and  O_6 
REMARK    3  A    between atoms: C_3  and  C_4 
REMARK    4  A    between atoms: C_7  and  O_6 
REMARK    5  A    between atoms: C_9  and  C_10 
REMARK    6  A    between atoms: N_15  and  C_14 
REMARK    7  A    between atoms: N_20  and  C_19 
REMARK       I    between atoms: C_22  and  N_20 
ROOT
ATOM      1  C   LIG d   1       3.621  87.060 116.087  0.00  0.00     0.161 C 
ATOM      2  C   LIG d   1       4.143  87.825 117.143  0.00  0.00     0.016 C 
ATOM      3  C   LIG d   1       4.814  89.056 116.955  0.00  0.00     0.038 C 
ATOM      4  C   LIG d   1       4.875  89.683 115.702  0.00  0.00     0.028 C 
ATOM      5  C   LIG d   1       4.804  88.707 114.532  0.00  0.00    -0.047 C 
ATOM      6  C   LIG d   1       3.580  87.783 114.723  0.00  0.00     0.091 C 
ENDROOT
BRANCH   1   7
ATOM      7  O   LIG d   1       2.309  86.576 116.436  0.00  0.00    -0.368 OA
BRANCH   7   8
ATOM      8  C   LIG d   1       1.632  87.284 117.503  0.00  0.00     0.119 C 
BRANCH   8   9
ATOM      9  C   LIG d   1       0.969  86.230 118.411  0.00  0.00     0.028 C 
ATOM     10  C   LIG d   1      -0.406  86.683 118.930  0.00  0.00     0.006 C 
ENDBRANCH   8   9
BRANCH   8  11
ATOM     11  C   LIG d   1       0.480  88.137 116.963  0.00  0.00     0.028 C 
ATOM     12  C   LIG d   1       0.809  89.638 116.940  0.00  0.00     0.006 C 
ENDBRANCH   8  11
ENDBRANCH   7   8
ENDBRANCH   1   7
BRANCH   6  13
ATOM     13  N   LIG d   1       3.485  86.743 113.666  0.00  0.00    -0.311 N 
ATOM     14  C   LIG d   1       2.908  86.950 112.484  0.00  0.00     0.210 C 
ATOM     15  C   LIG d   1       2.899  85.738 111.547  0.00  0.00     0.109 C 
ATOM     16  O   LIG d   1       2.430  88.032 112.110  0.00  0.00    -0.276 OA
ATOM     17  H   LIG d   1       3.874  85.844 113.874  0.00  0.00     0.149 HD
ENDBRANCH   6  13
BRANCH   5  18
ATOM     18  N   LIG d   1       4.739  89.503 113.291  0.00  0.00     0.381 N 
ATOM     19  H   LIG d   1       3.911  89.268 112.781  0.00  0.00    -0.090 HD
ATOM     20  H   LIG d   1       5.535  89.280 112.720  0.00  0.00    -0.090 HD
ATOM     21  H   LIG d   1       4.739  90.475 113.509  0.00  0.00    -0.090 HD
ENDBRANCH   5  18
BRANCH   3  22
ATOM     22  C   LIG d   1       5.467  89.652 118.023  0.00  0.00     0.382 C 
ATOM     23  O   LIG d   1       5.489  90.902 118.125  0.00  0.00    -0.241 OA
ATOM     24  O   LIG d   1       6.073  88.957 118.861  0.00  0.00    -0.241 OA
ENDBRANCH   3  22
TORSDOF 7
ENDMDL
MODEL 3
REMARK VINA RESULT:      -4.4      1.771      2.197
REMARK  7 active torsions:
REMARK  status: ('A' for Active; 'I' for Inactive)
REMARK    1  A    between atoms: C_2  and  C_3 
REMARK    2  A    between atoms: C_3  and  O_6 
REMARK    3  A    between atoms: C_3  and  C_4 
REMARK    4  A    between atoms: C_7  and  O_6 
REMARK    5  A    between atoms: C_9  and  C_10 
REMARK    6  A    between atoms: N_15  and  C_14 
REMARK    7  A    between atoms: N_20  and  C_19 
REMARK       I    between atoms: C_22  and  N_20 
ROOT
ATOM      1  C   LIG d   1       2.061  88.786 116.578  0.00  0.00     0.161 C 
ATOM      2  C   LIG d   1       0.724  89.169 116.777  0.00  0.00     0.016 C 
ATOM      3  C   LIG d   1       0.347  90.367 117.428  0.00  0.00     0.038 C 
ATOM      4  C   LIG d   1       1.289  91.341 117.791  0.00  0.00     0.028 C 
ATOM      5  C   LIG d   1       2.676  90.771 118.064  0.00  0.00    -0.047 C 
ATOM      6  C   LIG d   1       3.101  89.888 116.868  0.00  0.00     0.091 C 
ENDROOT
BRANCH   1   7
ATOM      7  O   LIG d   1       2.229  88.279 115.239  0.00  0.00    -0.368 OA
BRANCH   7   8
ATOM      8  C   LIG d   1       2.166  86.839 115.090  0.00  0.00     0.119 C 
BRANCH   8   9
ATOM      9  C   LIG d   1       2.787  86.215 116.354  0.00  0.00     0.028 C 
ATOM     10  C   LIG d   1       4.171  85.601 116.086  0.00  0.00     0.006 C 
ENDBRANCH   8   9
BRANCH   8  11
ATOM     11  C   LIG d   1       3.042  86.360 113.928  0.00  0.00     0.028 C 
ATOM     12  C   LIG d   1       3.372  87.480 112.929  0.00  0.00     0.006 C 
ENDBRANCH   8  11
ENDBRANCH   7   8
ENDBRANCH   1   7
BRANCH   6  13
ATOM     13  N   LIG d   1       4.411  89.224 117.091  0.00  0.00    -0.311 N 
ATOM     14  C   LIG d   1       5.376  89.180 116.174  0.00  0.00     0.210 C 
ATOM     15  C   LIG d   1       6.640  88.428 116.601  0.00  0.00     0.109 C 
ATOM     16  O   LIG d   1       5.318  89.722 115.060  0.00  0.00    -0.276 OA
ATOM     17  H   LIG d   1       4.555  88.786 117.980  0.00  0.00     0.149 HD
ENDBRANCH   6  13
BRANCH   5  18
ATOM     18  N   LIG d   1       3.587  91.907 118.297  0.00  0.00     0.381 N 
ATOM     19  H   LIG d   1       3.472  92.249 119.230  0.00  0.00    -0.090 HD
ATOM     20  H   LIG d   1       3.353  92.647 117.659  0.00  0.00    -0.090 HD
ATOM     21  H   LIG d   1       4.531  91.622 118.154  0.00  0.00    -0.090 HD
ENDBRANCH   5  18
BRANCH   3  22
ATOM     22  C   LIG d   1      -0.983  90.580 117.756  0.00  0.00     0.382 C 
ATOM     23  O   LIG d   1      -1.322  91.638 118.339  0.00  0.00    -0.241 OA
ATOM     24  O   LIG d   1      -1.840  89.709 117.518  0.00  0.00    -0.241 OA
ENDBRANCH   3  22
TORSDOF 7
ENDMDL
MODEL 4
REMARK VINA RESULT:      -4.2      5.645      8.295
REMARK  7 active torsions:
REMARK  status: ('A' for Active; 'I' for Inactive)
REMARK    1  A    between atoms: C_2  and  C_3 
REMARK    2  A    between atoms: C_3  and  O_6 
REMARK    3  A    between atoms: C_3  and  C_4 
REMARK    4  A    between atoms: C_7  and  O_6 
REMARK    5  A    between atoms: C_9  and  C_10 
REMARK    6  A    between atoms: N_15  and  C_14 
REMARK    7  A    between atoms: N_20  and  C_19 
REMARK       I    between atoms: C_22  and  N_20 
ROOT
ATOM      1  C   LIG d   1      -5.608  92.221 118.177  0.00  0.00     0.161 C 
ATOM      2  C   LIG d   1      -6.856  92.867 118.176  0.00  0.00     0.016 C 
ATOM      3  C   LIG d   1      -7.013  94.259 118.366  0.00  0.00     0.038 C 
ATOM      4  C   LIG d   1      -5.913  95.128 118.419  0.00  0.00     0.028 C 
ATOM      5  C   LIG d   1      -4.639  94.462 118.930  0.00  0.00    -0.047 C 
ATOM      6  C   LIG d   1      -4.391  93.168 118.122  0.00  0.00     0.091 C 
ENDROOT
BRANCH   1   7
ATOM      7  O   LIG d   1      -5.551  91.268 117.097  0.00  0.00    -0.368 OA
BRANCH   7   8
ATOM      8  C   LIG d   1      -6.623  91.340 116.126  0.00  0.00     0.119 C 
BRANCH   8   9
ATOM      9  C   LIG d   1      -6.965  89.897 115.706  0.00  0.00     0.028 C 
ATOM     10  C   LIG d   1      -8.439  89.545 115.964  0.00  0.00     0.006 C 
ENDBRANCH   8   9
BRANCH   8  11
ATOM     11  C   LIG d   1      -6.165  92.038 114.841  0.00  0.00     0.028 C 
ATOM     12  C   LIG d   1      -7.277  92.130 113.785  0.00  0.00     0.006 C 
ENDBRANCH   8  11
ENDBRANCH   7   8
ENDBRANCH   1   7
BRANCH   6  13
ATOM     13  N   LIG d   1      -3.210  92.411 118.614  0.00  0.00    -0.311 N 
ATOM     14  C   LIG d   1      -1.966  92.643 118.200  0.00  0.00     0.210 C 
ATOM     15  C   LIG d   1      -0.898  91.735 118.819  0.00  0.00     0.109 C 
ATOM     16  O   LIG d   1      -1.641  93.537 117.404  0.00  0.00    -0.276 OA
ATOM     17  H   LIG d   1      -3.379  91.688 119.286  0.00  0.00     0.149 HD
ENDBRANCH   6  13
BRANCH   5  18
ATOM     18  N   LIG d   1      -3.543  95.442 118.803  0.00  0.00     0.381 N 
ATOM     19  H   LIG d   1      -3.744  96.081 118.060  0.00  0.00    -0.090 HD
ATOM     20  H   LIG d   1      -2.695  94.953 118.578  0.00  0.00    -0.090 HD
ATOM     21  H   LIG d   1      -3.431  95.940 119.659  0.00  0.00    -0.090 HD
ENDBRANCH   5  18
BRANCH   3  22
ATOM     22  C   LIG d   1      -8.281  94.790 118.544  0.00  0.00     0.382 C 
ATOM     23  O   LIG d   1      -8.422  96.019 118.752  0.00  0.00    -0.241 OA
ATOM     24  O   LIG d   1      -9.282  94.049 118.545  0.00  0.00    -0.241 OA
ENDBRANCH   3  22
TORSDOF 7
ENDMDL
MODEL 5
REMARK VINA RESULT:      -4.1      3.809      6.798
REMARK  7 active torsions:
REMARK  status: ('A' for Active; 'I' for Inactive)
REMARK    1  A    between atoms: C_2  and  C_3 
REMARK    2  A    between atoms: C_3  and  O_6 
REMARK    3  A    between atoms: C_3  and  C_4 
REMARK    4  A    between atoms: C_7  and  O_6 
REMARK    5  A    between atoms: C_9  and  C_10 
REMARK    6  A    between atoms: N_15  and  C_14 
REMARK    7  A    between atoms: N_20  and  C_19 
REMARK       I    between atoms: C_22  and  N_20 
ROOT
ATOM      1  C   LIG d   1      -3.462  91.304 118.565  0.00  0.00     0.161 C 
ATOM      2  C   LIG d   1      -3.821  92.659 118.657  0.00  0.00     0.016 C 
ATOM      3  C   LIG d   1      -2.895  93.720 118.525  0.00  0.00     0.038 C 
ATOM      4  C   LIG d   1      -1.565  93.499 118.139  0.00  0.00     0.028 C 
ATOM      5  C   LIG d   1      -1.041  92.121 118.530  0.00  0.00    -0.047 C 
ATOM      6  C   LIG d   1      -2.036  91.047 118.034  0.00  0.00     0.091 C 
ENDROOT
BRANCH   1   7
ATOM      7  O   LIG d   1      -4.430  90.595 117.766  0.00  0.00    -0.368 OA
BRANCH   7   8
ATOM      8  C   LIG d   1      -5.099  91.370 116.740  0.00  0.00     0.119 C 
BRANCH   8   9
ATOM      9  C   LIG d   1      -6.502  91.724 117.269  0.00  0.00     0.028 C 
ATOM     10  C   LIG d   1      -6.861  93.202 117.037  0.00  0.00     0.006 C 
ENDBRANCH   8   9
BRANCH   8  11
ATOM     11  C   LIG d   1      -5.340  90.535 115.479  0.00  0.00     0.028 C 
ATOM     12  C   LIG d   1      -6.832  90.294 115.200  0.00  0.00     0.006 C 
ENDBRANCH   8  11
ENDBRANCH   7   8
ENDBRANCH   1   7
BRANCH   6  13
ATOM     13  N   LIG d   1      -1.643  89.675 118.449  0.00  0.00    -0.311 N 
ATOM     14  C   LIG d   1      -0.780  88.922 117.769  0.00  0.00     0.210 C 
ATOM     15  C   LIG d   1      -0.529  87.531 118.359  0.00  0.00     0.109 C 
ATOM     16  O   LIG d   1      -0.174  89.287 116.750  0.00  0.00    -0.276 OA
ATOM     17  H   LIG d   1      -2.063  89.312 119.282  0.00  0.00     0.149 HD
ENDBRANCH   6  13
BRANCH   5  18
ATOM     18  N   LIG d   1       0.306  91.974 117.948  0.00  0.00     0.381 N 
ATOM     19  H   LIG d   1       0.466  91.017 117.702  0.00  0.00    -0.090 HD
ATOM     20  H   LIG d   1       0.988  92.242 118.635  0.00  0.00    -0.090 HD
ATOM     21  H   LIG d   1       0.393  92.550 117.140  0.00  0.00    -0.090 HD
ENDBRANCH   5  18
BRANCH   3  22
ATOM     22  C   LIG d   1      -3.289  95.016 118.819  0.00  0.00     0.382 C 
ATOM     23  O   LIG d   1      -4.508  95.291 118.930  0.00  0.00    -0.241 OA
ATOM     24  O   LIG d   1      -2.443  95.923 118.930  0.00  0.00    -0.241 OA
ENDBRANCH   3  22
TORSDOF 7
ENDMDL
MODEL 6
REMARK VINA RESULT:      -4.0      3.271      5.386
REMARK  7 active torsions:
REMARK  status: ('A' for Active; 'I' for Inactive)
REMARK    1  A    between atoms: C_2  and  C_3 
REMARK    2  A    between atoms: C_3  and  O_6 
REMARK    3  A    between atoms: C_3  and  C_4 
REMARK    4  A    between atoms: C_7  and  O_6 
REMARK    5  A    between atoms: C_9  and  C_10 
REMARK    6  A    between atoms: N_15  and  C_14 
REMARK    7  A    between atoms: N_20  and  C_19 
REMARK       I    between atoms: C_22  and  N_20 
ROOT
ATOM      1  C   LIG d   1       4.622  88.537 115.272  0.00  0.00     0.161 C 
ATOM      2  C   LIG d   1       4.511  89.700 116.052  0.00  0.00     0.016 C 
ATOM      3  C   LIG d   1       3.354  90.032 116.794  0.00  0.00     0.038 C 
ATOM      4  C   LIG d   1       2.279  89.141 116.929  0.00  0.00     0.028 C 
ATOM      5  C   LIG d   1       2.138  88.180 115.753  0.00  0.00    -0.047 C 
ATOM      6  C   LIG d   1       3.502  87.500 115.495  0.00  0.00     0.091 C 
ENDROOT
BRANCH   1   7
ATOM      7  O   LIG d   1       5.914  87.932 115.479  0.00  0.00    -0.368 OA
BRANCH   7   8
ATOM      8  C   LIG d   1       6.327  87.766 116.858  0.00  0.00     0.119 C 
BRANCH   8   9
ATOM      9  C   LIG d   1       7.864  87.666 116.872  0.00  0.00     0.028 C 
ATOM     10  C   LIG d   1       8.497  88.509 117.991  0.00  0.00     0.006 C 
ENDBRANCH   8   9
BRANCH   8  11
ATOM     11  C   LIG d   1       5.828  86.437 117.432  0.00  0.00     0.028 C 
ATOM     12  C   LIG d   1       5.075  86.607 118.761  0.00  0.00     0.006 C 
ENDBRANCH   8  11
ENDBRANCH   7   8
ENDBRANCH   1   7
BRANCH   6  13
ATOM     13  N   LIG d   1       3.474  86.606 114.308  0.00  0.00    -0.311 N 
ATOM     14  C   LIG d   1       3.236  87.038 113.071  0.00  0.00     0.210 C 
ATOM     15  C   LIG d   1       3.233  85.948 111.995  0.00  0.00     0.109 C 
ATOM     16  O   LIG d   1       3.060  88.225 112.757  0.00  0.00    -0.276 OA
ATOM     17  H   LIG d   1       3.638  85.631 114.467  0.00  0.00     0.149 HD
ENDBRANCH   6  13
BRANCH   5  18
ATOM     18  N   LIG d   1       1.067  87.222 116.087  0.00  0.00     0.381 N 
ATOM     19  H   LIG d   1       0.175  87.661 115.980  0.00  0.00    -0.090 HD
ATOM     20  H   LIG d   1       1.169  86.943 117.047  0.00  0.00    -0.090 HD
ATOM     21  H   LIG d   1       1.127  86.424 115.493  0.00  0.00    -0.090 HD
ENDBRANCH   5  18
BRANCH   3  22
ATOM     22  C   LIG d   1       3.250  91.284 117.380  0.00  0.00     0.382 C 
ATOM     23  O   LIG d   1       2.311  91.528 118.176  0.00  0.00    -0.241 OA
ATOM     24  O   LIG d   1       4.056  92.188 117.088  0.00  0.00    -0.241 OA
ENDBRANCH   3  22
TORSDOF 7
ENDMDL
MODEL 7
REMARK VINA RESULT:      -3.8      2.361      3.480
REMARK  7 active torsions:
REMARK  status: ('A' for Active; 'I' for Inactive)
REMARK    1  A    between atoms: C_2  and  C_3 
REMARK    2  A    between atoms: C_3  and  O_6 
REMARK    3  A    between atoms: C_3  and  C_4 
REMARK    4  A    between atoms: C_7  and  O_6 
REMARK    5  A    between atoms: C_9  and  C_10 
REMARK    6  A    between atoms: N_15  and  C_14 
REMARK    7  A    between atoms: N_20  and  C_19 
REMARK       I    between atoms: C_22  and  N_20 
ROOT
ATOM      1  C   LIG d   1       3.575  87.200 116.352  0.00  0.00     0.161 C 
ATOM      2  C   LIG d   1       2.220  87.564 116.297  0.00  0.00     0.016 C 
ATOM      3  C   LIG d   1       1.705  88.740 116.891  0.00  0.00     0.038 C 
ATOM      4  C   LIG d   1       2.542  89.714 117.453  0.00  0.00     0.028 C 
ATOM      5  C   LIG d   1       3.859  89.152 117.977  0.00  0.00    -0.047 C 
ATOM      6  C   LIG d   1       4.521  88.306 116.865  0.00  0.00     0.091 C 
ENDROOT
BRANCH   1   7
ATOM      7  O   LIG d   1       4.008  86.731 115.059  0.00  0.00    -0.368 OA
BRANCH   7   8
ATOM      8  C   LIG d   1       3.042  86.842 113.985  0.00  0.00     0.119 C 
BRANCH   8   9
ATOM      9  C   LIG d   1       2.830  85.430 113.405  0.00  0.00     0.028 C 
ATOM     10  C   LIG d   1       2.768  85.430 111.869  0.00  0.00     0.006 C 
ENDBRANCH   8   9
BRANCH   8  11
ATOM     11  C   LIG d   1       3.592  87.678 112.826  0.00  0.00     0.028 C 
ATOM     12  C   LIG d   1       4.655  88.693 113.275  0.00  0.00     0.006 C 
ENDBRANCH   8  11
ENDBRANCH   7   8
ENDBRANCH   1   7
BRANCH   6  13
ATOM     13  N   LIG d   1       5.774  87.650 117.322  0.00  0.00    -0.311 N 
ATOM     14  C   LIG d   1       6.983  88.183 117.157  0.00  0.00     0.210 C 
ATOM     15  C   LIG d   1       8.143  87.331 117.683  0.00  0.00     0.109 C 
ATOM     16  O   LIG d   1       7.203  89.294 116.653  0.00  0.00    -0.276 OA
ATOM     17  H   LIG d   1       5.685  86.758 117.769  0.00  0.00     0.149 HD
ENDBRANCH   6  13
BRANCH   5  18
ATOM     18  N   LIG d   1       4.691  90.291 118.409  0.00  0.00     0.381 N 
ATOM     19  H   LIG d   1       4.745  90.968 117.675  0.00  0.00    -0.090 HD
ATOM     20  H   LIG d   1       5.620  89.961 118.602  0.00  0.00    -0.090 HD
ATOM     21  H   LIG d   1       4.301  90.707 119.226  0.00  0.00    -0.090 HD
ENDBRANCH   5  18
BRANCH   3  22
ATOM     22  C   LIG d   1       0.333  88.930 116.960  0.00  0.00     0.382 C 
ATOM     23  O   LIG d   1      -0.166  90.026 116.607  0.00  0.00    -0.241 OA
ATOM     24  O   LIG d   1      -0.407  88.037 117.413  0.00  0.00    -0.241 OA
ENDBRANCH   3  22
TORSDOF 7
ENDMDL
MODEL 8
REMARK VINA RESULT:      -3.7      2.515      3.820
REMARK  7 active torsions:
REMARK  status: ('A' for Active; 'I' for Inactive)
REMARK    1  A    between atoms: C_2  and  C_3 
REMARK    2  A    between atoms: C_3  and  O_6 
REMARK    3  A    between atoms: C_3  and  C_4 
REMARK    4  A    between atoms: C_7  and  O_6 
REMARK    5  A    between atoms: C_9  and  C_10 
REMARK    6  A    between atoms: N_15  and  C_14 
REMARK    7  A    between atoms: N_20  and  C_19 
REMARK       I    between atoms: C_22  and  N_20 
ROOT
ATOM      1  C   LIG d   1       3.839  88.477 117.410  0.00  0.00     0.161 C 
ATOM      2  C   LIG d   1       2.627  89.174 117.278  0.00  0.00     0.016 C 
ATOM      3  C   LIG d   1       2.515  90.575 117.428  0.00  0.00     0.038 C 
ATOM      4  C   LIG d   1       3.641  91.398 117.573  0.00  0.00     0.028 C 
ATOM      5  C   LIG d   1       4.829  90.690 118.216  0.00  0.00    -0.047 C 
ATOM      6  C   LIG d   1       5.097  89.370 117.458  0.00  0.00     0.091 C 
ENDROOT
BRANCH   1   7
ATOM      7  O   LIG d   1       3.958  87.500 116.357  0.00  0.00    -0.368 OA
BRANCH   7   8
ATOM      8  C   LIG d   1       3.150  87.732 115.178  0.00  0.00     0.119 C 
BRANCH   8   9
ATOM      9  C   LIG d   1       2.470  86.398 114.813  0.00  0.00     0.028 C 
ATOM     10  C   LIG d   1       1.151  86.184 115.575  0.00  0.00     0.006 C 
ENDBRANCH   8   9
BRANCH   8  11
ATOM     11  C   LIG d   1       4.019  88.089 113.968  0.00  0.00     0.028 C 
ATOM     12  C   LIG d   1       3.475  87.509 112.652  0.00  0.00     0.006 C 
ENDBRANCH   8  11
ENDBRANCH   7   8
ENDBRANCH   1   7
BRANCH   6  13
ATOM     13  N   LIG d   1       6.190  88.574 118.074  0.00  0.00    -0.311 N 
ATOM     14  C   LIG d   1       7.138  87.960 117.368  0.00  0.00     0.210 C 
ATOM     15  C   LIG d   1       8.159  87.177 118.199  0.00  0.00     0.109 C 
ATOM     16  O   LIG d   1       7.249  88.017 116.134  0.00  0.00    -0.276 OA
ATOM     17  H   LIG d   1       6.194  88.501 119.073  0.00  0.00     0.149 HD
ENDBRANCH   6  13
BRANCH   5  18
ATOM     18  N   LIG d   1       5.975  91.619 118.180  0.00  0.00     0.381 N 
ATOM     19  H   LIG d   1       6.818  91.126 118.396  0.00  0.00    -0.090 HD
ATOM     20  H   LIG d   1       5.838  92.330 118.877  0.00  0.00    -0.090 HD
ATOM     21  H   LIG d   1       6.047  92.037 117.279  0.00  0.00    -0.090 HD
ENDBRANCH   5  18
BRANCH   3  22
ATOM     22  C   LIG d   1       1.260  91.163 117.474  0.00  0.00     0.382 C 
ATOM     23  O   LIG d   1       0.234  90.470 117.268  0.00  0.00    -0.241 OA
ATOM     24  O   LIG d   1       1.142  92.387 117.676  0.00  0.00    -0.241 OA
ENDBRANCH   3  22
TORSDOF 7
ENDMDL
MODEL 9
REMARK VINA RESULT:      -3.7      1.780      4.864
REMARK  7 active torsions:
REMARK  status: ('A' for Active; 'I' for Inactive)
REMARK    1  A    between atoms: C_2  and  C_3 
REMARK    2  A    between atoms: C_3  and  O_6 
REMARK    3  A    between atoms: C_3  and  C_4 
REMARK    4  A    between atoms: C_7  and  O_6 
REMARK    5  A    between atoms: C_9  and  C_10 
REMARK    6  A    between atoms: N_15  and  C_14 
REMARK    7  A    between atoms: N_20  and  C_19 
REMARK       I    between atoms: C_22  and  N_20 
ROOT
ATOM      1  C   LIG d   1       1.135  89.439 116.756  0.00  0.00     0.161 C 
ATOM      2  C   LIG d   1       2.485  89.815 116.865  0.00  0.00     0.016 C 
ATOM      3  C   LIG d   1       2.910  91.024 117.462  0.00  0.00     0.038 C 
ATOM      4  C   LIG d   1       2.017  91.874 118.132  0.00  0.00     0.028 C 
ATOM      5  C   LIG d   1       0.587  91.784 117.608  0.00  0.00    -0.047 C 
ATOM      6  C   LIG d   1       0.155  90.301 117.579  0.00  0.00     0.091 C 
ENDROOT
BRANCH   1   7
ATOM      7  O   LIG d   1       0.987  88.046 117.098  0.00  0.00    -0.368 OA
BRANCH   7   8
ATOM      8  C   LIG d   1       1.996  87.150 116.572  0.00  0.00     0.119 C 
BRANCH   8   9
ATOM      9  C   LIG d   1       1.298  86.194 115.585  0.00  0.00     0.028 C 
ATOM     10  C   LIG d   1       2.247  85.692 114.484  0.00  0.00     0.006 C 
ENDBRANCH   8   9
BRANCH   8  11
ATOM     11  C   LIG d   1       2.570  86.250 117.671  0.00  0.00     0.028 C 
ATOM     12  C   LIG d   1       4.092  86.073 117.562  0.00  0.00     0.006 C 
ENDBRANCH   8  11
ENDBRANCH   7   8
ENDBRANCH   1   7
BRANCH   6  13
ATOM     13  N   LIG d   1      -1.201  90.116 117.000  0.00  0.00    -0.311 N 
ATOM     14  C   LIG d   1      -2.320  90.184 117.719  0.00  0.00     0.210 C 
ATOM     15  C   LIG d   1      -3.611  89.944 116.929  0.00  0.00     0.109 C 
ATOM     16  O   LIG d   1      -2.369  90.451 118.929  0.00  0.00    -0.276 OA
ATOM     17  H   LIG d   1      -1.256  89.926 116.018  0.00  0.00     0.149 HD
ENDBRANCH   6  13
BRANCH   5  18
ATOM     18  N   LIG d   1      -0.261  92.617 118.482  0.00  0.00     0.381 N 
ATOM     19  H   LIG d   1      -0.093  92.381 119.440  0.00  0.00    -0.090 HD
ATOM     20  H   LIG d   1      -1.225  92.427 118.275  0.00  0.00    -0.090 HD
ATOM     21  H   LIG d   1      -0.064  93.581 118.330  0.00  0.00    -0.090 HD
ENDBRANCH   5  18
BRANCH   3  22
ATOM     22  C   LIG d   1       4.237  91.412 117.359  0.00  0.00     0.382 C 
ATOM     23  O   LIG d   1       4.962  90.932 116.455  0.00  0.00    -0.241 OA
ATOM     24  O   LIG d   1       4.730  92.202 118.186  0.00  0.00    -0.241 OA
ENDBRANCH   3  22
TORSDOF 7
ENDMDL
