MODEL 1
REMARK VINA RESULT:      -4.9      0.000      0.000
REMARK  7 active torsions:
REMARK  status: ('A' for Active; 'I' for Inactive)
REMARK    1  A    between atoms: C_2  and  C_3 
REMARK    2  A    between atoms: C_3  and  O_6 
REMARK    3  A    between atoms: C_3  and  C_4 
REMARK    4  A    between atoms: C_7  and  O_6 
REMARK    5  A    between atoms: C_9  and  C_10 
REMARK    6  A    between atoms: N_15  and  C_14 
REMARK    7  A    between atoms: N_20  and  C_19 
REMARK       I    between atoms: C_22  and  N_20 
ROOT
ATOM      1  C   LIG d   1       3.420  88.413 115.678  0.00  0.00     0.161 C 
ATOM      2  C   LIG d   1       2.673  87.768 114.679  0.00  0.00     0.016 C 
ATOM      3  C   LIG d   1       3.124  87.614 113.348  0.00  0.00     0.038 C 
ATOM      4  C   LIG d   1       4.426  87.964 112.961  0.00  0.00     0.028 C 
ATOM      5  C   LIG d   1       5.032  89.076 113.810  0.00  0.00    -0.047 C 
ATOM      6  C   LIG d   1       4.889  88.703 115.303  0.00  0.00     0.091 C 
ENDROOT
BRANCH   1   7
ATOM      7  O   LIG d   1       3.357  87.655 116.902  0.00  0.00    -0.368 OA
BRANCH   7   8
ATOM      8  C   LIG d   1       2.527  88.209 117.953  0.00  0.00     0.119 C 
BRANCH   8   9
ATOM      9  C   LIG d   1       1.166  87.489 117.897  0.00  0.00     0.028 C 
ATOM     10  C   LIG d   1       0.010  88.447 117.561  0.00  0.00     0.006 C 
ENDBRANCH   8   9
BRANCH   8  11
ATOM     11  C   LIG d   1       2.216  89.686 117.697  0.00  0.00     0.028 C 
ATOM     12  C   LIG d   1       2.902  90.623 118.704  0.00  0.00     0.006 C 
ENDBRANCH   8  11
ENDBRANCH   7   8
ENDBRANCH   1   7
BRANCH   6  13
ATOM     13  N   LIG d   1       5.381  89.776 116.206  0.00  0.00    -0.311 N 
ATOM     14  C   LIG d   1       6.363  89.599 117.087  0.00  0.00     0.210 C 
ATOM     15  C   LIG d   1       6.702  90.830 117.934  0.00  0.00     0.109 C 
ATOM     16  O   LIG d   1       7.008  88.549 117.227  0.00  0.00    -0.276 OA
ATOM     17  H   LIG d   1       4.934  90.669 116.137  0.00  0.00     0.149 HD
ENDBRANCH   6  13
BRANCH   5  18
ATOM     18  N   LIG d   1       6.435  89.245 113.388  0.00  0.00     0.381 N 
ATOM     19  H   LIG d   1       6.713  90.198 113.507  0.00  0.00    -0.090 HD
ATOM     20  H   LIG d   1       6.512  89.014 112.413  0.00  0.00    -0.090 HD
ATOM     21  H   LIG d   1       7.027  88.650 113.925  0.00  0.00    -0.090 HD
ENDBRANCH   5  18
BRANCH   3  22
ATOM     22  C   LIG d   1       2.253  87.141 112.378  0.00  0.00     0.382 C 
ATOM     23  O   LIG d   1       2.545  86.112 111.722  0.00  0.00    -0.241 OA
ATOM     24  O   LIG d   1       1.200  87.755 112.120  0.00  0.00    -0.241 OA
ENDBRANCH   3  22
TORSDOF 7
ENDMDL
MODEL 2
REMARK VINA RESULT:      -4.8      1.725      4.789
REMARK  7 active torsions:
REMARK  status: ('A' for Active; 'I' for Inactive)
REMARK    1  A    between atoms: C_2  and  C_3 
REMARK    2  A    between atoms: C_3  and  O_6 
REMARK    3  A    between atoms: C_3  and  C_4 
REMARK    4  A    between atoms: C_7  and  O_6 
REMARK    5  A    between atoms: C_9  and  C_10 
REMARK    6  A    between atoms: N_15  and  C_14 
REMARK    7  A    between atoms: N_20  and  C_19 
REMARK       I    between atoms: C_22  and  N_20 
ROOT
ATOM      1  C   LIG d   1       3.131  88.462 115.953  0.00  0.00     0.161 C 
ATOM      2  C   LIG d   1       4.024  89.247 116.701  0.00  0.00     0.016 C 
ATOM      3  C   LIG d   1       5.329  89.570 116.265  0.00  0.00     0.038 C 
ATOM      4  C   LIG d   1       5.780  89.254 114.975  0.00  0.00     0.028 C 
ATOM      5  C   LIG d   1       5.096  88.028 114.378  0.00  0.00    -0.047 C 
ATOM      6  C   LIG d   1       3.564  88.201 114.495  0.00  0.00     0.091 C 
ENDROOT
BRANCH   1   7
ATOM      7  O   LIG d   1       1.816  89.051 115.986  0.00  0.00    -0.368 OA
BRANCH   7   8
ATOM      8  C   LIG d   1       1.263  89.302 117.302  0.00  0.00     0.119 C 
BRANCH   8   9
ATOM      9  C   LIG d   1       0.176  88.240 117.557  0.00  0.00     0.028 C 
ATOM     10  C   LIG d   1       0.685  87.075 118.423  0.00  0.00     0.006 C 
ENDBRANCH   8   9
BRANCH   8  11
ATOM     11  C   LIG d   1       0.535  90.648 117.354  0.00  0.00     0.028 C 
ATOM     12  C   LIG d   1      -0.958  90.505 117.691  0.00  0.00     0.006 C 
ENDBRANCH   8  11
ENDBRANCH   7   8
ENDBRANCH   1   7
BRANCH   6  13
ATOM     13  N   LIG d   1       2.821  87.009 114.011  0.00  0.00    -0.311 N 
ATOM     14  C   LIG d   1       2.064  87.012 112.915  0.00  0.00     0.210 C 
ATOM     15  C   LIG d   1       1.368  85.682 112.606  0.00  0.00     0.109 C 
ATOM     16  O   LIG d   1       1.929  87.979 112.152  0.00  0.00    -0.276 OA
ATOM     17  H   LIG d   1       2.899  86.171 114.554  0.00  0.00     0.149 HD
ENDBRANCH   6  13
BRANCH   5  18
ATOM     18  N   LIG d   1       5.558  87.894 112.984  0.00  0.00     0.381 N 
ATOM     19  H   LIG d   1       6.319  87.246 112.940  0.00  0.00    -0.090 HD
ATOM     20  H   LIG d   1       5.887  88.788 112.663  0.00  0.00    -0.090 HD
ATOM     21  H   LIG d   1       4.810  87.580 112.405  0.00  0.00    -0.090 HD
ENDBRANCH   5  18
BRANCH   3  22
ATOM     22  C   LIG d   1       6.214  90.183 117.139  0.00  0.00     0.382 C 
ATOM     23  O   LIG d   1       5.777  90.852 118.107  0.00  0.00    -0.241 OA
ATOM     24  O   LIG d   1       7.443  90.113 116.947  0.00  0.00    -0.241 OA
ENDBRANCH   3  22
TORSDOF 7
ENDMDL
MODEL 3
REMARK VINA RESULT:      -4.5      1.916      4.680
REMARK  7 active torsions:
REMARK  status: ('A' for Active; 'I' for Inactive)
REMARK    1  A    between atoms: C_2  and  C_3 
REMARK    2  A    between atoms: C_3  and  O_6 
REMARK    3  A    between atoms: C_3  and  C_4 
REMARK    4  A    between atoms: C_7  and  O_6 
REMARK    5  A    between atoms: C_9  and  C_10 
REMARK    6  A    between atoms: N_15  and  C_14 
REMARK    7  A    between atoms: N_20  and  C_19 
REMARK       I    between atoms: C_22  and  N_20 
ROOT
ATOM      1  C   LIG d   1       2.957  87.337 115.769  0.00  0.00     0.161 C 
ATOM      2  C   LIG d   1       4.141  87.601 116.477  0.00  0.00     0.016 C 
ATOM      3  C   LIG d   1       5.420  87.617 115.875  0.00  0.00     0.038 C 
ATOM      4  C   LIG d   1       5.587  87.518 114.486  0.00  0.00     0.028 C 
ATOM      5  C   LIG d   1       4.467  86.747 113.795  0.00  0.00    -0.047 C 
ATOM      6  C   LIG d   1       3.108  87.337 114.234  0.00  0.00     0.091 C 
ENDROOT
BRANCH   1   7
ATOM      7  O   LIG d   1       1.930  88.264 116.172  0.00  0.00    -0.368 OA
BRANCH   7   8
ATOM      8  C   LIG d   1       2.125  88.915 117.452  0.00  0.00     0.119 C 
BRANCH   8   9
ATOM      9  C   LIG d   1       0.938  88.527 118.354  0.00  0.00     0.028 C 
ATOM     10  C   LIG d   1      -0.421  88.831 117.700  0.00  0.00     0.006 C 
ENDBRANCH   8   9
BRANCH   8  11
ATOM     11  C   LIG d   1       2.052  90.439 117.318  0.00  0.00     0.028 C 
ATOM     12  C   LIG d   1       3.425  91.082 117.065  0.00  0.00     0.006 C 
ENDBRANCH   8  11
ENDBRANCH   7   8
ENDBRANCH   1   7
BRANCH   6  13
ATOM     13  N   LIG d   1       1.956  86.586 113.669  0.00  0.00    -0.311 N 
ATOM     14  C   LIG d   1       1.328  86.940 112.549  0.00  0.00     0.210 C 
ATOM     15  C   LIG d   1       0.153  86.041 112.154  0.00  0.00     0.109 C 
ATOM     16  O   LIG d   1       1.653  87.896 111.828  0.00  0.00    -0.276 OA
ATOM     17  H   LIG d   1       1.646  85.779 114.174  0.00  0.00     0.149 HD
ENDBRANCH   6  13
BRANCH   5  18
ATOM     18  N   LIG d   1       4.695  86.840 112.340  0.00  0.00     0.381 N 
ATOM     19  H   LIG d   1       4.745  87.800 112.065  0.00  0.00    -0.090 HD
ATOM     20  H   LIG d   1       3.920  86.415 111.862  0.00  0.00    -0.090 HD
ATOM     21  H   LIG d   1       5.541  86.373 112.097  0.00  0.00    -0.090 HD
ENDBRANCH   5  18
BRANCH   3  22
ATOM     22  C   LIG d   1       6.553  87.694 116.671  0.00  0.00     0.382 C 
ATOM     23  O   LIG d   1       7.174  86.648 116.980  0.00  0.00    -0.241 OA
ATOM     24  O   LIG d   1       6.938  88.790 117.119  0.00  0.00    -0.241 OA
ENDBRANCH   3  22
TORSDOF 7
ENDMDL
MODEL 4
REMARK VINA RESULT:      -4.5      2.332      5.186
REMARK  7 active torsions:
REMARK  status: ('A' for Active; 'I' for Inactive)
REMARK    1  A    between atoms: C_2  and  C_3 
REMARK    2  A    between atoms: C_3  and  O_6 
REMARK    3  A    between atoms: C_3  and  C_4 
REMARK    4  A    between atoms: C_7  and  O_6 
REMARK    5  A    between atoms: C_9  and  C_10 
REMARK    6  A    between atoms: N_15  and  C_14 
REMARK    7  A    between atoms: N_20  and  C_19 
REMARK       I    between atoms: C_22  and  N_20 
ROOT
ATOM      1  C   LIG d   1       2.333  87.900 115.822  0.00  0.00     0.161 C 
ATOM      2  C   LIG d   1       1.209  87.941 116.664  0.00  0.00     0.016 C 
ATOM      3  C   LIG d   1       0.942  89.006 117.555  0.00  0.00     0.038 C 
ATOM      4  C   LIG d   1       1.707  90.182 117.555  0.00  0.00     0.028 C 
ATOM      5  C   LIG d   1       3.141  89.972 117.081  0.00  0.00    -0.047 C 
ATOM      6  C   LIG d   1       3.118  89.225 115.728  0.00  0.00     0.091 C 
ENDROOT
BRANCH   1   7
ATOM      7  O   LIG d   1       1.943  87.454 114.508  0.00  0.00    -0.368 OA
BRANCH   7   8
ATOM      8  C   LIG d   1       1.892  86.020 114.311  0.00  0.00     0.119 C 
BRANCH   8   9
ATOM      9  C   LIG d   1       3.257  85.445 114.737  0.00  0.00     0.028 C 
ATOM     10  C   LIG d   1       4.273  85.432 113.583  0.00  0.00     0.006 C 
ENDBRANCH   8   9
BRANCH   8  11
ATOM     11  C   LIG d   1       1.747  85.666 112.828  0.00  0.00     0.028 C 
ATOM     12  C   LIG d   1       0.610  86.438 112.140  0.00  0.00     0.006 C 
ENDBRANCH   8  11
ENDBRANCH   7   8
ENDBRANCH   1   7
BRANCH   6  13
ATOM     13  N   LIG d   1       4.483  88.905 115.235  0.00  0.00    -0.311 N 
ATOM     14  C   LIG d   1       4.856  89.047 113.964  0.00  0.00     0.210 C 
ATOM     15  C   LIG d   1       6.302  88.640 113.664  0.00  0.00     0.109 C 
ATOM     16  O   LIG d   1       4.135  89.501 113.062  0.00  0.00    -0.276 OA
ATOM     17  H   LIG d   1       5.141  88.559 115.906  0.00  0.00     0.149 HD
ENDBRANCH   6  13
BRANCH   5  18
ATOM     18  N   LIG d   1       3.782  91.298 116.999  0.00  0.00     0.381 N 
ATOM     19  H   LIG d   1       4.769  91.206 117.134  0.00  0.00    -0.090 HD
ATOM     20  H   LIG d   1       3.417  91.881 117.731  0.00  0.00    -0.090 HD
ATOM     21  H   LIG d   1       3.598  91.711 116.112  0.00  0.00    -0.090 HD
ENDBRANCH   5  18
BRANCH   3  22
ATOM     22  C   LIG d   1      -0.077  88.883 118.487  0.00  0.00     0.382 C 
ATOM     23  O   LIG d   1      -0.654  89.908 118.923  0.00  0.00    -0.241 OA
ATOM     24  O   LIG d   1      -0.397  87.764 118.929  0.00  0.00    -0.241 OA
ENDBRANCH   3  22
TORSDOF 7
ENDMDL
MODEL 5
REMARK VINA RESULT:      -4.4      1.493      1.945
REMARK  7 active torsions:
REMARK  status: ('A' for Active; 'I' for Inactive)
REMARK    1  A    between atoms: C_2  and  C_3 
REMARK    2  A    between atoms: C_3  and  O_6 
REMARK    3  A    between atoms: C_3  and  C_4 
REMARK    4  A    between atoms: C_7  and  O_6 
REMARK    5  A    between atoms: C_9  and  C_10 
REMARK    6  A    between atoms: N_15  and  C_14 
REMARK    7  A    between atoms: N_20  and  C_19 
REMARK       I    between atoms: C_22  and  N_20 
ROOT
ATOM      1  C   LIG d   1       3.032  88.273 116.353  0.00  0.00     0.161 C 
ATOM      2  C   LIG d   1       2.450  87.689 115.216  0.00  0.00     0.016 C 
ATOM      3  C   LIG d   1       3.068  87.677 113.945  0.00  0.00     0.038 C 
ATOM      4  C   LIG d   1       4.386  88.118 113.757  0.00  0.00     0.028 C 
ATOM      5  C   LIG d   1       4.822  89.174 114.767  0.00  0.00    -0.047 C 
ATOM      6  C   LIG d   1       4.518  88.660 116.193  0.00  0.00     0.091 C 
ENDROOT
BRANCH   1   7
ATOM      7  O   LIG d   1       2.861  87.404 117.491  0.00  0.00    -0.368 OA
BRANCH   7   8
ATOM      8  C   LIG d   1       1.934  87.859 118.506  0.00  0.00     0.119 C 
BRANCH   8   9
ATOM      9  C   LIG d   1       0.821  86.800 118.625  0.00  0.00     0.028 C 
ATOM     10  C   LIG d   1       1.254  85.430 118.078  0.00  0.00     0.006 C 
ENDBRANCH   8   9
BRANCH   8  11
ATOM     11  C   LIG d   1       1.225  89.147 118.077  0.00  0.00     0.028 C 
ATOM     12  C   LIG d   1      -0.275  88.941 117.811  0.00  0.00     0.006 C 
ENDBRANCH   8  11
ENDBRANCH   7   8
ENDBRANCH   1   7
BRANCH   6  13
ATOM     13  N   LIG d   1       4.836  89.667 117.238  0.00  0.00    -0.311 N 
ATOM     14  C   LIG d   1       4.342  90.904 117.238  0.00  0.00     0.210 C 
ATOM     15  C   LIG d   1       4.814  91.788 118.397  0.00  0.00     0.109 C 
ATOM     16  O   LIG d   1       3.533  91.343 116.407  0.00  0.00    -0.276 OA
ATOM     17  H   LIG d   1       5.460  89.385 117.968  0.00  0.00     0.149 HD
ENDBRANCH   6  13
BRANCH   5  18
ATOM     18  N   LIG d   1       6.255  89.441 114.542  0.00  0.00     0.381 N 
ATOM     19  H   LIG d   1       6.407  90.427 114.464  0.00  0.00    -0.090 HD
ATOM     20  H   LIG d   1       6.534  89.010 113.679  0.00  0.00    -0.090 HD
ATOM     21  H   LIG d   1       6.793  89.074 115.295  0.00  0.00    -0.090 HD
ENDBRANCH   5  18
BRANCH   3  22
ATOM     22  C   LIG d   1       2.349  87.256 112.836  0.00  0.00     0.382 C 
ATOM     23  O   LIG d   1       1.714  88.090 112.146  0.00  0.00    -0.241 OA
ATOM     24  O   LIG d   1       2.292  86.047 112.541  0.00  0.00    -0.241 OA
ENDBRANCH   3  22
TORSDOF 7
ENDMDL
MODEL 6
REMARK VINA RESULT:      -4.3      2.264      4.480
REMARK  7 active torsions:
REMARK  status: ('A' for Active; 'I' for Inactive)
REMARK    1  A    between atoms: C_2  and  C_3 
REMARK    2  A    between atoms: C_3  and  O_6 
REMARK    3  A    between atoms: C_3  and  C_4 
REMARK    4  A    between atoms: C_7  and  O_6 
REMARK    5  A    between atoms: C_9  and  C_10 
REMARK    6  A    between atoms: N_15  and  C_14 
REMARK    7  A    between atoms: N_20  and  C_19 
REMARK       I    between atoms: C_22  and  N_20 
ROOT
ATOM      1  C   LIG d   1       3.746  88.560 116.919  0.00  0.00     0.161 C 
ATOM      2  C   LIG d   1       2.462  89.116 116.793  0.00  0.00     0.016 C 
ATOM      3  C   LIG d   1       2.148  90.440 117.174  0.00  0.00     0.038 C 
ATOM      4  C   LIG d   1       3.137  91.354 117.568  0.00  0.00     0.028 C 
ATOM      5  C   LIG d   1       4.361  90.690 118.189  0.00  0.00    -0.047 C 
ATOM      6  C   LIG d   1       4.862  89.575 117.242  0.00  0.00     0.091 C 
ENDROOT
BRANCH   1   7
ATOM      7  O   LIG d   1       4.075  87.816 115.728  0.00  0.00    -0.368 OA
BRANCH   7   8
ATOM      8  C   LIG d   1       3.530  88.327 114.487  0.00  0.00     0.119 C 
BRANCH   8   9
ATOM      9  C   LIG d   1       3.040  87.119 113.665  0.00  0.00     0.028 C 
ATOM     10  C   LIG d   1       1.944  86.321 114.390  0.00  0.00     0.006 C 
ENDBRANCH   8   9
BRANCH   8  11
ATOM     11  C   LIG d   1       4.615  88.987 113.631  0.00  0.00     0.028 C 
ATOM     12  C   LIG d   1       5.733  88.012 113.231  0.00  0.00     0.006 C 
ENDBRANCH   8  11
ENDBRANCH   7   8
ENDBRANCH   1   7
BRANCH   6  13
ATOM     13  N   LIG d   1       6.007  88.818 117.813  0.00  0.00    -0.311 N 
ATOM     14  C   LIG d   1       7.279  89.167 117.631  0.00  0.00     0.210 C 
ATOM     15  C   LIG d   1       8.305  88.239 118.290  0.00  0.00     0.109 C 
ATOM     16  O   LIG d   1       7.656  90.175 117.015  0.00  0.00    -0.276 OA
ATOM     17  H   LIG d   1       5.791  88.004 118.354  0.00  0.00     0.149 HD
ENDBRANCH   6  13
BRANCH   5  18
ATOM     18  N   LIG d   1       5.367  91.742 118.426  0.00  0.00     0.381 N 
ATOM     19  H   LIG d   1       5.238  92.136 119.336  0.00  0.00    -0.090 HD
ATOM     20  H   LIG d   1       5.241  92.472 117.746  0.00  0.00    -0.090 HD
ATOM     21  H   LIG d   1       6.284  91.361 118.348  0.00  0.00    -0.090 HD
ENDBRANCH   5  18
BRANCH   3  22
ATOM     22  C   LIG d   1       0.824  90.852 117.200  0.00  0.00     0.382 C 
ATOM     23  O   LIG d   1      -0.097  90.012 117.053  0.00  0.00    -0.241 OA
ATOM     24  O   LIG d   1       0.539  92.058 117.326  0.00  0.00    -0.241 OA
ENDBRANCH   3  22
TORSDOF 7
ENDMDL
MODEL 7
REMARK VINA RESULT:      -4.0      2.327      5.414
REMARK  7 active torsions:
REMARK  status: ('A' for Active; 'I' for Inactive)
REMARK    1  A    between atoms: C_2  and  C_3 
REMARK    2  A    between atoms: C_3  and  O_6 
REMARK    3  A    between atoms: C_3  and  C_4 
REMARK    4  A    between atoms: C_7  and  O_6 
REMARK    5  A    between atoms: C_9  and  C_10 
REMARK    6  A    between atoms: N_15  and  C_14 
REMARK    7  A    between atoms: N_20  and  C_19 
REMARK       I    between atoms: C_22  and  N_20 
ROOT
ATOM      1  C   LIG d   1       4.631  89.291 115.741  0.00  0.00     0.161 C 
ATOM      2  C   LIG d   1       3.986  90.244 116.545  0.00  0.00     0.016 C 
ATOM      3  C   LIG d   1       2.718  90.035 117.136  0.00  0.00     0.038 C 
ATOM      4  C   LIG d   1       2.074  88.790 117.086  0.00  0.00     0.028 C 
ATOM      5  C   LIG d   1       2.452  87.961 115.863  0.00  0.00    -0.047 C 
ATOM      6  C   LIG d   1       3.993  87.886 115.766  0.00  0.00     0.091 C 
ENDROOT
BRANCH   1   7
ATOM      7  O   LIG d   1       6.026  89.214 116.096  0.00  0.00    -0.368 OA
BRANCH   7   8
ATOM      8  C   LIG d   1       6.330  89.321 117.509  0.00  0.00     0.119 C 
BRANCH   8   9
ATOM      9  C   LIG d   1       7.454  90.363 117.663  0.00  0.00     0.028 C 
ATOM     10  C   LIG d   1       7.049  91.533 118.576  0.00  0.00     0.006 C 
ENDBRANCH   8   9
BRANCH   8  11
ATOM     11  C   LIG d   1       6.912  88.013 118.053  0.00  0.00     0.028 C 
ATOM     12  C   LIG d   1       7.407  87.073 116.943  0.00  0.00     0.006 C 
ENDBRANCH   8  11
ENDBRANCH   7   8
ENDBRANCH   1   7
BRANCH   6  13
ATOM     13  N   LIG d   1       4.450  87.163 114.550  0.00  0.00    -0.311 N 
ATOM     14  C   LIG d   1       4.094  87.510 113.314  0.00  0.00     0.210 C 
ATOM     15  C   LIG d   1       4.661  86.619 112.204  0.00  0.00     0.109 C 
ATOM     16  O   LIG d   1       3.389  88.490 113.030  0.00  0.00    -0.276 OA
ATOM     17  H   LIG d   1       5.050  86.374 114.687  0.00  0.00     0.149 HD
ENDBRANCH   6  13
BRANCH   5  18
ATOM     18  N   LIG d   1       1.817  86.637 116.008  0.00  0.00     0.381 N 
ATOM     19  H   LIG d   1       2.478  85.983 116.377  0.00  0.00    -0.090 HD
ATOM     20  H   LIG d   1       1.527  86.315 115.102  0.00  0.00    -0.090 HD
ATOM     21  H   LIG d   1       1.029  86.702 116.614  0.00  0.00    -0.090 HD
ENDBRANCH   5  18
BRANCH   3  22
ATOM     22  C   LIG d   1       2.065  91.090 117.753  0.00  0.00     0.382 C 
ATOM     23  O   LIG d   1       2.362  91.410 118.930  0.00  0.00    -0.241 OA
ATOM     24  O   LIG d   1       1.151  91.699 117.165  0.00  0.00    -0.241 OA
ENDBRANCH   3  22
TORSDOF 7
ENDMDL
MODEL 8
REMARK VINA RESULT:      -3.8      6.346      8.846
REMARK  7 active torsions:
REMARK  status: ('A' for Active; 'I' for Inactive)
REMARK    1  A    between atoms: C_2  and  C_3 
REMARK    2  A    between atoms: C_3  and  O_6 
REMARK    3  A    between atoms: C_3  and  C_4 
REMARK    4  A    between atoms: C_7  and  O_6 
REMARK    5  A    between atoms: C_9  and  C_10 
REMARK    6  A    between atoms: N_15  and  C_14 
REMARK    7  A    between atoms: N_20  and  C_19 
REMARK       I    between atoms: C_22  and  N_20 
ROOT
ATOM      1  C   LIG d   1      -3.113  91.285 118.819  0.00  0.00     0.161 C 
ATOM      2  C   LIG d   1      -3.468  92.644 118.845  0.00  0.00     0.016 C 
ATOM      3  C   LIG d   1      -2.573  93.689 118.518  0.00  0.00     0.038 C 
ATOM      4  C   LIG d   1      -1.297  93.435 117.993  0.00  0.00     0.028 C 
ATOM      5  C   LIG d   1      -0.720  92.092 118.427  0.00  0.00    -0.047 C 
ATOM      6  C   LIG d   1      -1.759  90.983 118.142  0.00  0.00     0.091 C 
ENDROOT
BRANCH   1   7
ATOM      7  O   LIG d   1      -4.164  90.517 118.200  0.00  0.00    -0.368 OA
BRANCH   7   8
ATOM      8  C   LIG d   1      -4.952  91.206 117.199  0.00  0.00     0.119 C 
BRANCH   8   9
ATOM      9  C   LIG d   1      -6.354  91.443 117.795  0.00  0.00     0.028 C 
ATOM     10  C   LIG d   1      -6.838  92.890 117.600  0.00  0.00     0.006 C 
ENDBRANCH   8   9
BRANCH   8  11
ATOM     11  C   LIG d   1      -5.180  90.326 115.966  0.00  0.00     0.028 C 
ATOM     12  C   LIG d   1      -6.409  90.753 115.148  0.00  0.00     0.006 C 
ENDBRANCH   8  11
ENDBRANCH   7   8
ENDBRANCH   1   7
BRANCH   6  13
ATOM     13  N   LIG d   1      -1.308  89.648 118.613  0.00  0.00    -0.311 N 
ATOM     14  C   LIG d   1      -0.425  88.898 117.956  0.00  0.00     0.210 C 
ATOM     15  C   LIG d   1      -0.114  87.547 118.606  0.00  0.00     0.109 C 
ATOM     16  O   LIG d   1       0.153  89.238 116.913  0.00  0.00    -0.276 OA
ATOM     17  H   LIG d   1      -1.704  89.309 119.468  0.00  0.00     0.149 HD
ENDBRANCH   6  13
BRANCH   5  18
ATOM     18  N   LIG d   1       0.548  91.896 117.699  0.00  0.00     0.381 N 
ATOM     19  H   LIG d   1       0.802  92.741 117.227  0.00  0.00    -0.090 HD
ATOM     20  H   LIG d   1       0.420  91.176 117.010  0.00  0.00    -0.090 HD
ATOM     21  H   LIG d   1       1.269  91.633 118.335  0.00  0.00    -0.090 HD
ENDBRANCH   5  18
BRANCH   3  22
ATOM     22  C   LIG d   1      -2.939  95.005 118.754  0.00  0.00     0.382 C 
ATOM     23  O   LIG d   1      -2.058  95.895 118.836  0.00  0.00    -0.241 OA
ATOM     24  O   LIG d   1      -4.134  95.307 118.930  0.00  0.00    -0.241 OA
ENDBRANCH   3  22
TORSDOF 7
ENDMDL
MODEL 9
REMARK VINA RESULT:      -3.7      1.748      2.345
REMARK  7 active torsions:
REMARK  status: ('A' for Active; 'I' for Inactive)
REMARK    1  A    between atoms: C_2  and  C_3 
REMARK    2  A    between atoms: C_3  and  O_6 
REMARK    3  A    between atoms: C_3  and  C_4 
REMARK    4  A    between atoms: C_7  and  O_6 
REMARK    5  A    between atoms: C_9  and  C_10 
REMARK    6  A    between atoms: N_15  and  C_14 
REMARK    7  A    between atoms: N_20  and  C_19 
REMARK       I    between atoms: C_22  and  N_20 
ROOT
ATOM      1  C   LIG d   1       4.056  89.225 116.385  0.00  0.00     0.161 C 
ATOM      2  C   LIG d   1       3.505  88.872 115.142  0.00  0.00     0.016 C 
ATOM      3  C   LIG d   1       3.864  87.701 114.436  0.00  0.00     0.038 C 
ATOM      4  C   LIG d   1       4.693  86.720 115.000  0.00  0.00     0.028 C 
ATOM      5  C   LIG d   1       5.666  87.272 116.036  0.00  0.00    -0.047 C 
ATOM      6  C   LIG d   1       4.879  88.112 117.067  0.00  0.00     0.091 C 
ENDROOT
BRANCH   1   7
ATOM      7  O   LIG d   1       3.015  89.691 117.266  0.00  0.00    -0.368 OA
BRANCH   7   8
ATOM      8  C   LIG d   1       1.694  89.140 117.039  0.00  0.00     0.119 C 
BRANCH   8   9
ATOM      9  C   LIG d   1       0.670  90.247 117.358  0.00  0.00     0.028 C 
ATOM     10  C   LIG d   1      -0.683  89.679 117.818  0.00  0.00     0.006 C 
ENDBRANCH   8   9
BRANCH   8  11
ATOM     11  C   LIG d   1       1.386  88.007 118.023  0.00  0.00     0.028 C 
ATOM     12  C   LIG d   1       1.528  86.614 117.390  0.00  0.00     0.006 C 
ENDBRANCH   8  11
ENDBRANCH   7   8
ENDBRANCH   1   7
BRANCH   6  13
ATOM     13  N   LIG d   1       5.766  88.758 118.069  0.00  0.00    -0.311 N 
ATOM     14  C   LIG d   1       6.741  89.607 117.745  0.00  0.00     0.210 C 
ATOM     15  C   LIG d   1       7.551  90.143 118.930  0.00  0.00     0.109 C 
ATOM     16  O   LIG d   1       6.990  89.991 116.593  0.00  0.00    -0.276 OA
ATOM     17  H   LIG d   1       5.613  88.527 119.031  0.00  0.00     0.149 HD
ENDBRANCH   6  13
BRANCH   5  18
ATOM     18  N   LIG d   1       6.371  86.126 116.641  0.00  0.00     0.381 N 
ATOM     19  H   LIG d   1       6.296  86.170 117.638  0.00  0.00    -0.090 HD
ATOM     20  H   LIG d   1       7.344  86.176 116.395  0.00  0.00    -0.090 HD
ATOM     21  H   LIG d   1       5.980  85.272 116.309  0.00  0.00    -0.090 HD
ENDBRANCH   5  18
BRANCH   3  22
ATOM     22  C   LIG d   1       3.423  87.521 113.134  0.00  0.00     0.382 C 
ATOM     23  O   LIG d   1       2.387  88.105 112.736  0.00  0.00    -0.241 OA
ATOM     24  O   LIG d   1       4.025  86.748 112.364  0.00  0.00    -0.241 OA
ENDBRANCH   3  22
TORSDOF 7
ENDMDL
