MODEL 1
REMARK VINA RESULT:      -4.6      0.000      0.000
REMARK  7 active torsions:
REMARK  status: ('A' for Active; 'I' for Inactive)
REMARK    1  A    between atoms: C_2  and  C_3 
REMARK    2  A    between atoms: C_3  and  O_6 
REMARK    3  A    between atoms: C_3  and  C_4 
REMARK    4  A    between atoms: C_7  and  O_6 
REMARK    5  A    between atoms: C_9  and  C_10 
REMARK    6  A    between atoms: N_15  and  C_14 
REMARK    7  A    between atoms: N_20  and  C_19 
REMARK       I    between atoms: C_22  and  N_20 
ROOT
ATOM      1  C   LIG d   1       3.156  88.753 115.734  0.00  0.00     0.161 C 
ATOM      2  C   LIG d   1       3.556  89.497 116.856  0.00  0.00     0.016 C 
ATOM      3  C   LIG d   1       4.567  90.484 116.816  0.00  0.00     0.038 C 
ATOM      4  C   LIG d   1       5.147  90.903 115.609  0.00  0.00     0.028 C 
ATOM      5  C   LIG d   1       5.135  89.828 114.527  0.00  0.00    -0.047 C 
ATOM      6  C   LIG d   1       3.699  89.273 114.386  0.00  0.00     0.091 C 
ENDROOT
BRANCH   1   7
ATOM      7  O   LIG d   1       1.718  88.663 115.694  0.00  0.00    -0.368 OA
BRANCH   7   8
ATOM      8  C   LIG d   1       1.145  87.413 116.148  0.00  0.00     0.119 C 
BRANCH   8   9
ATOM      9  C   LIG d   1       0.659  86.647 114.903  0.00  0.00     0.028 C 
ATOM     10  C   LIG d   1       1.544  85.431 114.580  0.00  0.00     0.006 C 
ENDBRANCH   8   9
BRANCH   8  11
ATOM     11  C   LIG d   1      -0.110  87.651 116.994  0.00  0.00     0.028 C 
ATOM     12  C   LIG d   1      -0.312  89.130 117.358  0.00  0.00     0.006 C 
ENDBRANCH   8  11
ENDBRANCH   7   8
ENDBRANCH   1   7
BRANCH   6  13
ATOM     13  N   LIG d   1       3.616  88.158 113.407  0.00  0.00    -0.311 N 
ATOM     14  C   LIG d   1       2.890  88.215 112.292  0.00  0.00     0.210 C 
ATOM     15  C   LIG d   1       2.927  86.948 111.431  0.00  0.00     0.109 C 
ATOM     16  O   LIG d   1       2.245  89.206 111.918  0.00  0.00    -0.276 OA
ATOM     17  H   LIG d   1       4.133  87.327 113.617  0.00  0.00     0.149 HD
ENDBRANCH   6  13
BRANCH   5  18
ATOM     18  N   LIG d   1       5.642  90.442 113.284  0.00  0.00     0.381 N 
ATOM     19  H   LIG d   1       6.333  91.131 113.504  0.00  0.00    -0.090 HD
ATOM     20  H   LIG d   1       4.881  90.898 112.813  0.00  0.00    -0.090 HD
ATOM     21  H   LIG d   1       6.036  89.742 112.695  0.00  0.00    -0.090 HD
ENDBRANCH   5  18
BRANCH   3  22
ATOM     22  C   LIG d   1       5.037  91.035 117.998  0.00  0.00     0.382 C 
ATOM     23  O   LIG d   1       4.568  92.122 118.413  0.00  0.00    -0.241 OA
ATOM     24  O   LIG d   1       5.956  90.482 118.632  0.00  0.00    -0.241 OA
ENDBRANCH   3  22
TORSDOF 7
ENDMDL
MODEL 2
REMARK VINA RESULT:      -4.6      0.938      1.039
REMARK  7 active torsions:
REMARK  status: ('A' for Active; 'I' for Inactive)
REMARK    1  A    between atoms: C_2  and  C_3 
REMARK    2  A    between atoms: C_3  and  O_6 
REMARK    3  A    between atoms: C_3  and  C_4 
REMARK    4  A    between atoms: C_7  and  O_6 
REMARK    5  A    between atoms: C_9  and  C_10 
REMARK    6  A    between atoms: N_15  and  C_14 
REMARK    7  A    between atoms: N_20  and  C_19 
REMARK       I    between atoms: C_22  and  N_20 
ROOT
ATOM      1  C   LIG d   1       3.368  88.454 115.366  0.00  0.00     0.161 C 
ATOM      2  C   LIG d   1       3.447  89.441 116.363  0.00  0.00     0.016 C 
ATOM      3  C   LIG d   1       4.189  90.636 116.218  0.00  0.00     0.038 C 
ATOM      4  C   LIG d   1       4.783  90.996 114.999  0.00  0.00     0.028 C 
ATOM      5  C   LIG d   1       5.153  89.800 114.128  0.00  0.00    -0.047 C 
ATOM      6  C   LIG d   1       3.918  88.880 113.989  0.00  0.00     0.091 C 
ENDROOT
BRANCH   1   7
ATOM      7  O   LIG d   1       2.008  87.993 115.242  0.00  0.00    -0.368 OA
BRANCH   7   8
ATOM      8  C   LIG d   1       1.714  86.707 115.840  0.00  0.00     0.119 C 
BRANCH   8   9
ATOM      9  C   LIG d   1       1.201  85.782 114.719  0.00  0.00     0.028 C 
ATOM     10  C   LIG d   1       0.430  86.549 113.632  0.00  0.00     0.006 C 
ENDBRANCH   8   9
BRANCH   8  11
ATOM     11  C   LIG d   1       0.560  86.809 116.842  0.00  0.00     0.028 C 
ATOM     12  C   LIG d   1      -0.045  88.220 116.912  0.00  0.00     0.006 C 
ENDBRANCH   8  11
ENDBRANCH   7   8
ENDBRANCH   1   7
BRANCH   6  13
ATOM     13  N   LIG d   1       4.217  87.643 113.222  0.00  0.00    -0.311 N 
ATOM     14  C   LIG d   1       3.663  87.359 112.044  0.00  0.00     0.210 C 
ATOM     15  C   LIG d   1       4.094  86.022 111.433  0.00  0.00     0.109 C 
ATOM     16  O   LIG d   1       2.880  88.102 111.433  0.00  0.00    -0.276 OA
ATOM     17  H   LIG d   1       4.866  86.998 113.630  0.00  0.00     0.149 HD
ENDBRANCH   6  13
BRANCH   5  18
ATOM     18  N   LIG d   1       5.634  90.322 112.835  0.00  0.00     0.381 N 
ATOM     19  H   LIG d   1       5.593  89.601 112.143  0.00  0.00    -0.090 HD
ATOM     20  H   LIG d   1       6.591  90.608 112.936  0.00  0.00    -0.090 HD
ATOM     21  H   LIG d   1       5.076  91.097 112.551  0.00  0.00    -0.090 HD
ENDBRANCH   5  18
BRANCH   3  22
ATOM     22  C   LIG d   1       4.376  91.466 117.312  0.00  0.00     0.382 C 
ATOM     23  O   LIG d   1       4.192  92.702 117.200  0.00  0.00    -0.241 OA
ATOM     24  O   LIG d   1       4.768  91.000 118.399  0.00  0.00    -0.241 OA
ENDBRANCH   3  22
TORSDOF 7
ENDMDL
MODEL 3
REMARK VINA RESULT:      -4.4      2.690      4.503
REMARK  7 active torsions:
REMARK  status: ('A' for Active; 'I' for Inactive)
REMARK    1  A    between atoms: C_2  and  C_3 
REMARK    2  A    between atoms: C_3  and  O_6 
REMARK    3  A    between atoms: C_3  and  C_4 
REMARK    4  A    between atoms: C_7  and  O_6 
REMARK    5  A    between atoms: C_9  and  C_10 
REMARK    6  A    between atoms: N_15  and  C_14 
REMARK    7  A    between atoms: N_20  and  C_19 
REMARK       I    between atoms: C_22  and  N_20 
ROOT
ATOM      1  C   LIG d   1       2.382  86.593 115.097  0.00  0.00     0.161 C 
ATOM      2  C   LIG d   1       1.371  86.364 116.046  0.00  0.00     0.016 C 
ATOM      3  C   LIG d   1       0.922  87.348 116.956  0.00  0.00     0.038 C 
ATOM      4  C   LIG d   1       1.349  88.682 116.877  0.00  0.00     0.028 C 
ATOM      5  C   LIG d   1       2.737  88.838 116.264  0.00  0.00    -0.047 C 
ATOM      6  C   LIG d   1       2.781  88.073 114.922  0.00  0.00     0.091 C 
ENDROOT
BRANCH   1   7
ATOM      7  O   LIG d   1       1.999  86.024 113.829  0.00  0.00    -0.368 OA
BRANCH   7   8
ATOM      8  C   LIG d   1       1.303  86.909 112.917  0.00  0.00     0.119 C 
BRANCH   8   9
ATOM      9  C   LIG d   1      -0.084  86.296 112.645  0.00  0.00     0.028 C 
ATOM     10  C   LIG d   1      -0.780  86.933 111.430  0.00  0.00     0.006 C 
ENDBRANCH   8   9
BRANCH   8  11
ATOM     11  C   LIG d   1       1.997  86.964 111.554  0.00  0.00     0.028 C 
ATOM     12  C   LIG d   1       3.163  85.968 111.439  0.00  0.00     0.006 C 
ENDBRANCH   8  11
ENDBRANCH   7   8
ENDBRANCH   1   7
BRANCH   6  13
ATOM     13  N   LIG d   1       4.129  88.104 114.296  0.00  0.00    -0.311 N 
ATOM     14  C   LIG d   1       4.486  88.989 113.367  0.00  0.00     0.210 C 
ATOM     15  C   LIG d   1       5.916  88.832 112.840  0.00  0.00     0.109 C 
ATOM     16  O   LIG d   1       3.765  89.909 112.953  0.00  0.00    -0.276 OA
ATOM     17  H   LIG d   1       4.787  87.412 114.597  0.00  0.00     0.149 HD
ENDBRANCH   6  13
BRANCH   5  18
ATOM     18  N   LIG d   1       2.999  90.282 116.116  0.00  0.00     0.381 N 
ATOM     19  H   LIG d   1       2.244  90.806 116.512  0.00  0.00    -0.090 HD
ATOM     20  H   LIG d   1       3.056  90.503 115.138  0.00  0.00    -0.090 HD
ATOM     21  H   LIG d   1       3.853  90.522 116.569  0.00  0.00    -0.090 HD
ENDBRANCH   5  18
BRANCH   3  22
ATOM     22  C   LIG d   1       0.063  86.991 117.985  0.00  0.00     0.382 C 
ATOM     23  O   LIG d   1       0.160  85.860 118.518  0.00  0.00    -0.241 OA
ATOM     24  O   LIG d   1      -0.836  87.770 118.356  0.00  0.00    -0.241 OA
ENDBRANCH   3  22
TORSDOF 7
ENDMDL
MODEL 4
REMARK VINA RESULT:      -4.4      1.164      1.930
REMARK  7 active torsions:
REMARK  status: ('A' for Active; 'I' for Inactive)
REMARK    1  A    between atoms: C_2  and  C_3 
REMARK    2  A    between atoms: C_3  and  O_6 
REMARK    3  A    between atoms: C_3  and  C_4 
REMARK    4  A    between atoms: C_7  and  O_6 
REMARK    5  A    between atoms: C_9  and  C_10 
REMARK    6  A    between atoms: N_15  and  C_14 
REMARK    7  A    between atoms: N_20  and  C_19 
REMARK       I    between atoms: C_22  and  N_20 
ROOT
ATOM      1  C   LIG d   1       3.062  88.546 115.300  0.00  0.00     0.161 C 
ATOM      2  C   LIG d   1       3.130  89.587 116.242  0.00  0.00     0.016 C 
ATOM      3  C   LIG d   1       3.961  90.720 116.090  0.00  0.00     0.038 C 
ATOM      4  C   LIG d   1       4.673  90.965 114.906  0.00  0.00     0.028 C 
ATOM      5  C   LIG d   1       5.026  89.695 114.138  0.00  0.00    -0.047 C 
ATOM      6  C   LIG d   1       3.747  88.849 113.951  0.00  0.00     0.091 C 
ENDROOT
BRANCH   1   7
ATOM      7  O   LIG d   1       1.687  88.167 115.090  0.00  0.00    -0.368 OA
BRANCH   7   8
ATOM      8  C   LIG d   1       1.260  86.940 115.732  0.00  0.00     0.119 C 
BRANCH   8   9
ATOM      9  C   LIG d   1       0.820  87.296 117.165  0.00  0.00     0.028 C 
ATOM     10  C   LIG d   1      -0.434  88.186 117.189  0.00  0.00     0.006 C 
ENDBRANCH   8   9
BRANCH   8  11
ATOM     11  C   LIG d   1       2.427  85.962 115.897  0.00  0.00     0.028 C 
ATOM     12  C   LIG d   1       2.613  85.496 117.350  0.00  0.00     0.006 C 
ENDBRANCH   8  11
ENDBRANCH   7   8
ENDBRANCH   1   7
BRANCH   6  13
ATOM     13  N   LIG d   1       4.019  87.550 113.283  0.00  0.00    -0.311 N 
ATOM     14  C   LIG d   1       3.483  87.199 112.115  0.00  0.00     0.210 C 
ATOM     15  C   LIG d   1       3.880  85.807 111.614  0.00  0.00     0.109 C 
ATOM     16  O   LIG d   1       2.742  87.921 111.432  0.00  0.00    -0.276 OA
ATOM     17  H   LIG d   1       4.635  86.915 113.753  0.00  0.00     0.149 HD
ENDBRANCH   6  13
BRANCH   5  18
ATOM     18  N   LIG d   1       5.642  90.103 112.862  0.00  0.00     0.381 N 
ATOM     19  H   LIG d   1       6.630  90.213 112.982  0.00  0.00    -0.090 HD
ATOM     20  H   LIG d   1       5.258  90.989 112.584  0.00  0.00    -0.090 HD
ATOM     21  H   LIG d   1       5.460  89.419 112.161  0.00  0.00    -0.090 HD
ENDBRANCH   5  18
BRANCH   3  22
ATOM     22  C   LIG d   1       4.118  91.604 117.146  0.00  0.00     0.382 C 
ATOM     23  O   LIG d   1       3.928  92.832 116.970  0.00  0.00    -0.241 OA
ATOM     24  O   LIG d   1       4.490  91.195 118.263  0.00  0.00    -0.241 OA
ENDBRANCH   3  22
TORSDOF 7
ENDMDL
MODEL 5
REMARK VINA RESULT:      -4.3      2.113      5.203
REMARK  7 active torsions:
REMARK  status: ('A' for Active; 'I' for Inactive)
REMARK    1  A    between atoms: C_2  and  C_3 
REMARK    2  A    between atoms: C_3  and  O_6 
REMARK    3  A    between atoms: C_3  and  C_4 
REMARK    4  A    between atoms: C_7  and  O_6 
REMARK    5  A    between atoms: C_9  and  C_10 
REMARK    6  A    between atoms: N_15  and  C_14 
REMARK    7  A    between atoms: N_20  and  C_19 
REMARK       I    between atoms: C_22  and  N_20 
ROOT
ATOM      1  C   LIG d   1       3.048  88.522 115.011  0.00  0.00     0.161 C 
ATOM      2  C   LIG d   1       2.823  87.507 114.066  0.00  0.00     0.016 C 
ATOM      3  C   LIG d   1       3.525  87.414 112.842  0.00  0.00     0.038 C 
ATOM      4  C   LIG d   1       4.612  88.248 112.545  0.00  0.00     0.028 C 
ATOM      5  C   LIG d   1       4.545  89.602 113.243  0.00  0.00    -0.047 C 
ATOM      6  C   LIG d   1       4.307  89.377 114.754  0.00  0.00     0.091 C 
ENDROOT
BRANCH   1   7
ATOM      7  O   LIG d   1       3.088  87.957 116.336  0.00  0.00    -0.368 OA
BRANCH   7   8
ATOM      8  C   LIG d   1       3.325  86.529 116.413  0.00  0.00     0.119 C 
BRANCH   8   9
ATOM      9  C   LIG d   1       2.328  85.949 117.434  0.00  0.00     0.028 C 
ATOM     10  C   LIG d   1       1.005  86.731 117.472  0.00  0.00     0.006 C 
ENDBRANCH   8   9
BRANCH   8  11
ATOM     11  C   LIG d   1       4.714  86.225 116.983  0.00  0.00     0.028 C 
ATOM     12  C   LIG d   1       5.796  86.127 115.896  0.00  0.00     0.006 C 
ENDBRANCH   8  11
ENDBRANCH   7   8
ENDBRANCH   1   7
BRANCH   6  13
ATOM     13  N   LIG d   1       4.145  90.652 115.499  0.00  0.00    -0.311 N 
ATOM     14  C   LIG d   1       5.015  91.086 116.410  0.00  0.00     0.210 C 
ATOM     15  C   LIG d   1       4.647  92.416 117.074  0.00  0.00     0.109 C 
ATOM     16  O   LIG d   1       6.073  90.511 116.707  0.00  0.00    -0.276 OA
ATOM     17  H   LIG d   1       3.330  91.197 115.298  0.00  0.00     0.149 HD
ENDBRANCH   6  13
BRANCH   5  18
ATOM     18  N   LIG d   1       5.804  90.315 112.956  0.00  0.00     0.381 N 
ATOM     19  H   LIG d   1       5.865  90.514 111.978  0.00  0.00    -0.090 HD
ATOM     20  H   LIG d   1       6.577  89.724 113.206  0.00  0.00    -0.090 HD
ATOM     21  H   LIG d   1       5.843  91.163 113.478  0.00  0.00    -0.090 HD
ENDBRANCH   5  18
BRANCH   3  22
ATOM     22  C   LIG d   1       3.113  86.502 111.882  0.00  0.00     0.382 C 
ATOM     23  O   LIG d   1       3.925  85.658 111.430  0.00  0.00    -0.241 OA
ATOM     24  O   LIG d   1       1.953  86.540 111.430  0.00  0.00    -0.241 OA
ENDBRANCH   3  22
TORSDOF 7
ENDMDL
MODEL 6
REMARK VINA RESULT:      -4.1      3.465      5.249
REMARK  7 active torsions:
REMARK  status: ('A' for Active; 'I' for Inactive)
REMARK    1  A    between atoms: C_2  and  C_3 
REMARK    2  A    between atoms: C_3  and  O_6 
REMARK    3  A    between atoms: C_3  and  C_4 
REMARK    4  A    between atoms: C_7  and  O_6 
REMARK    5  A    between atoms: C_9  and  C_10 
REMARK    6  A    between atoms: N_15  and  C_14 
REMARK    7  A    between atoms: N_20  and  C_19 
REMARK       I    between atoms: C_22  and  N_20 
ROOT
ATOM      1  C   LIG d   1       5.720  88.115 116.370  0.00  0.00     0.161 C 
ATOM      2  C   LIG d   1       4.764  89.128 116.188  0.00  0.00     0.016 C 
ATOM      3  C   LIG d   1       4.941  90.456 116.638  0.00  0.00     0.038 C 
ATOM      4  C   LIG d   1       6.160  90.902 117.170  0.00  0.00     0.028 C 
ATOM      5  C   LIG d   1       6.973  89.795 117.833  0.00  0.00    -0.047 C 
ATOM      6  C   LIG d   1       7.102  88.609 116.849  0.00  0.00     0.091 C 
ENDROOT
BRANCH   1   7
ATOM      7  O   LIG d   1       5.856  87.348 115.158  0.00  0.00    -0.368 OA
BRANCH   7   8
ATOM      8  C   LIG d   1       5.042  87.775 114.038  0.00  0.00     0.119 C 
BRANCH   8   9
ATOM      9  C   LIG d   1       4.662  86.516 113.234  0.00  0.00     0.028 C 
ATOM     10  C   LIG d   1       4.127  86.854 111.833  0.00  0.00     0.006 C 
ENDBRANCH   8   9
BRANCH   8  11
ATOM     11  C   LIG d   1       5.842  88.649 113.069  0.00  0.00     0.028 C 
ATOM     12  C   LIG d   1       5.338  90.100 113.019  0.00  0.00     0.006 C 
ENDBRANCH   8  11
ENDBRANCH   7   8
ENDBRANCH   1   7
BRANCH   6  13
ATOM     13  N   LIG d   1       7.811  87.449 117.449  0.00  0.00    -0.311 N 
ATOM     14  C   LIG d   1       9.131  87.283 117.383  0.00  0.00     0.210 C 
ATOM     15  C   LIG d   1       9.656  86.008 118.051  0.00  0.00     0.109 C 
ATOM     16  O   LIG d   1       9.920  88.086 116.863  0.00  0.00    -0.276 OA
ATOM     17  H   LIG d   1       7.250  86.765 117.918  0.00  0.00     0.149 HD
ENDBRANCH   6  13
BRANCH   5  18
ATOM     18  N   LIG d   1       8.275  90.369 118.220  0.00  0.00     0.381 N 
ATOM     19  H   LIG d   1       8.268  91.358 118.070  0.00  0.00    -0.090 HD
ATOM     20  H   LIG d   1       8.992  89.967 117.642  0.00  0.00    -0.090 HD
ATOM     21  H   LIG d   1       8.463  90.173 119.179  0.00  0.00    -0.090 HD
ENDBRANCH   5  18
BRANCH   3  22
ATOM     22  C   LIG d   1       3.878  91.345 116.594  0.00  0.00     0.382 C 
ATOM     23  O   LIG d   1       4.094  92.580 116.553  0.00  0.00    -0.241 OA
ATOM     24  O   LIG d   1       2.705  90.929 116.638  0.00  0.00    -0.241 OA
ENDBRANCH   3  22
TORSDOF 7
ENDMDL
MODEL 7
REMARK VINA RESULT:      -4.1      3.003      5.729
REMARK  7 active torsions:
REMARK  status: ('A' for Active; 'I' for Inactive)
REMARK    1  A    between atoms: C_2  and  C_3 
REMARK    2  A    between atoms: C_3  and  O_6 
REMARK    3  A    between atoms: C_3  and  C_4 
REMARK    4  A    between atoms: C_7  and  O_6 
REMARK    5  A    between atoms: C_9  and  C_10 
REMARK    6  A    between atoms: N_15  and  C_14 
REMARK    7  A    between atoms: N_20  and  C_19 
REMARK       I    between atoms: C_22  and  N_20 
ROOT
ATOM      1  C   LIG d   1       1.081  89.184 117.087  0.00  0.00     0.161 C 
ATOM      2  C   LIG d   1      -0.300  88.931 117.129  0.00  0.00     0.016 C 
ATOM      3  C   LIG d   1      -1.243  89.847 117.649  0.00  0.00     0.038 C 
ATOM      4  C   LIG d   1      -0.882  91.149 118.026  0.00  0.00     0.028 C 
ATOM      5  C   LIG d   1       0.571  91.269 118.473  0.00  0.00    -0.047 C 
ATOM      6  C   LIG d   1       1.481  90.642 117.392  0.00  0.00     0.091 C 
ENDROOT
BRANCH   1   7
ATOM      7  O   LIG d   1       1.615  88.774 115.812  0.00  0.00    -0.368 OA
BRANCH   7   8
ATOM      8  C   LIG d   1       2.557  87.674 115.839  0.00  0.00     0.119 C 
BRANCH   8   9
ATOM      9  C   LIG d   1       3.608  87.937 114.744  0.00  0.00     0.028 C 
ATOM     10  C   LIG d   1       3.727  89.429 114.391  0.00  0.00     0.006 C 
ENDBRANCH   8   9
BRANCH   8  11
ATOM     11  C   LIG d   1       1.885  86.355 115.448  0.00  0.00     0.028 C 
ATOM     12  C   LIG d   1       0.853  86.523 114.321  0.00  0.00     0.006 C 
ENDBRANCH   8  11
ENDBRANCH   7   8
ENDBRANCH   1   7
BRANCH   6  13
ATOM     13  N   LIG d   1       2.914  90.643 117.788  0.00  0.00    -0.311 N 
ATOM     14  C   LIG d   1       3.773  91.597 117.433  0.00  0.00     0.210 C 
ATOM     15  C   LIG d   1       5.207  91.394 117.931  0.00  0.00     0.109 C 
ATOM     16  O   LIG d   1       3.475  92.608 116.780  0.00  0.00    -0.276 OA
ATOM     17  H   LIG d   1       3.233  89.874 118.345  0.00  0.00     0.149 HD
ENDBRANCH   6  13
BRANCH   5  18
ATOM     18  N   LIG d   1       0.849  92.699 118.705  0.00  0.00     0.381 N 
ATOM     19  H   LIG d   1       0.968  93.167 117.829  0.00  0.00    -0.090 HD
ATOM     20  H   LIG d   1       1.704  92.783 119.227  0.00  0.00    -0.090 HD
ATOM     21  H   LIG d   1       0.099  93.114 119.213  0.00  0.00    -0.090 HD
ENDBRANCH   5  18
BRANCH   3  22
ATOM     22  C   LIG d   1      -2.559  89.449 117.832  0.00  0.00     0.382 C 
ATOM     23  O   LIG d   1      -2.849  88.652 118.757  0.00  0.00    -0.241 OA
ATOM     24  O   LIG d   1      -3.451  89.841 117.058  0.00  0.00    -0.241 OA
ENDBRANCH   3  22
TORSDOF 7
ENDMDL
MODEL 8
REMARK VINA RESULT:      -4.1      0.963      1.941
REMARK  7 active torsions:
REMARK  status: ('A' for Active; 'I' for Inactive)
REMARK    1  A    between atoms: C_2  and  C_3 
REMARK    2  A    between atoms: C_3  and  O_6 
REMARK    3  A    between atoms: C_3  and  C_4 
REMARK    4  A    between atoms: C_7  and  O_6 
REMARK    5  A    between atoms: C_9  and  C_10 
REMARK    6  A    between atoms: N_15  and  C_14 
REMARK    7  A    between atoms: N_20  and  C_19 
REMARK       I    between atoms: C_22  and  N_20 
ROOT
ATOM      1  C   LIG d   1       4.264  87.957 115.876  0.00  0.00     0.161 C 
ATOM      2  C   LIG d   1       4.675  88.813 116.911  0.00  0.00     0.016 C 
ATOM      3  C   LIG d   1       5.055  90.159 116.703  0.00  0.00     0.038 C 
ATOM      4  C   LIG d   1       4.904  90.788 115.458  0.00  0.00     0.028 C 
ATOM      5  C   LIG d   1       4.970  89.823 114.280  0.00  0.00    -0.047 C 
ATOM      6  C   LIG d   1       3.986  88.657 114.529  0.00  0.00     0.091 C 
ENDROOT
BRANCH   1   7
ATOM      7  O   LIG d   1       3.110  87.203 116.296  0.00  0.00    -0.368 OA
BRANCH   7   8
ATOM      8  C   LIG d   1       1.821  87.802 116.017  0.00  0.00     0.119 C 
BRANCH   8   9
ATOM      9  C   LIG d   1       1.117  88.036 117.368  0.00  0.00     0.028 C 
ATOM     10  C   LIG d   1      -0.414  88.089 117.231  0.00  0.00     0.006 C 
ENDBRANCH   8   9
BRANCH   8  11
ATOM     11  C   LIG d   1       0.912  86.838 115.248  0.00  0.00     0.028 C 
ATOM     12  C   LIG d   1       1.572  85.474 114.992  0.00  0.00     0.006 C 
ENDBRANCH   8  11
ENDBRANCH   7   8
ENDBRANCH   1   7
BRANCH   6  13
ATOM     13  N   LIG d   1       4.050  87.623 113.464  0.00  0.00    -0.311 N 
ATOM     14  C   LIG d   1       3.251  87.618 112.398  0.00  0.00     0.210 C 
ATOM     15  C   LIG d   1       3.470  86.451 111.431  0.00  0.00     0.109 C 
ATOM     16  O   LIG d   1       2.403  88.488 112.146  0.00  0.00    -0.276 OA
ATOM     17  H   LIG d   1       4.731  86.897 113.573  0.00  0.00     0.149 HD
ENDBRANCH   6  13
BRANCH   5  18
ATOM     18  N   LIG d   1       4.661  90.589 113.058  0.00  0.00     0.381 N 
ATOM     19  H   LIG d   1       3.671  90.707 112.974  0.00  0.00    -0.090 HD
ATOM     20  H   LIG d   1       4.986  90.073 112.259  0.00  0.00    -0.090 HD
ATOM     21  H   LIG d   1       5.107  91.479 113.091  0.00  0.00    -0.090 HD
ENDBRANCH   5  18
BRANCH   3  22
ATOM     22  C   LIG d   1       5.630  90.879 117.739  0.00  0.00     0.382 C 
ATOM     23  O   LIG d   1       6.873  91.051 117.768  0.00  0.00    -0.241 OA
ATOM     24  O   LIG d   1       4.928  91.320 118.668  0.00  0.00    -0.241 OA
ENDBRANCH   3  22
TORSDOF 7
ENDMDL
MODEL 9
REMARK VINA RESULT:      -4.0      1.992      2.657
REMARK  7 active torsions:
REMARK  status: ('A' for Active; 'I' for Inactive)
REMARK    1  A    between atoms: C_2  and  C_3 
REMARK    2  A    between atoms: C_3  and  O_6 
REMARK    3  A    between atoms: C_3  and  C_4 
REMARK    4  A    between atoms: C_7  and  O_6 
REMARK    5  A    between atoms: C_9  and  C_10 
REMARK    6  A    between atoms: N_15  and  C_14 
REMARK    7  A    between atoms: N_20  and  C_19 
REMARK       I    between atoms: C_22  and  N_20 
ROOT
ATOM      1  C   LIG d   1       3.819  87.581 115.799  0.00  0.00     0.161 C 
ATOM      2  C   LIG d   1       4.741  87.816 116.833  0.00  0.00     0.016 C 
ATOM      3  C   LIG d   1       6.025  88.369 116.620  0.00  0.00     0.038 C 
ATOM      4  C   LIG d   1       6.420  88.867 115.369  0.00  0.00     0.028 C 
ATOM      5  C   LIG d   1       5.716  88.190 114.198  0.00  0.00    -0.047 C 
ATOM      6  C   LIG d   1       4.190  88.220 114.444  0.00  0.00     0.091 C 
ENDROOT
BRANCH   1   7
ATOM      7  O   LIG d   1       2.505  88.005 116.210  0.00  0.00    -0.368 OA
BRANCH   7   8
ATOM      8  C   LIG d   1       2.456  88.988 117.273  0.00  0.00     0.119 C 
BRANCH   8   9
ATOM      9  C   LIG d   1       1.221  88.672 118.140  0.00  0.00     0.028 C 
ATOM     10  C   LIG d   1      -0.028  88.373 117.294  0.00  0.00     0.006 C 
ENDBRANCH   8   9
BRANCH   8  11
ATOM     11  C   LIG d   1       2.213  90.395 116.720  0.00  0.00     0.028 C 
ATOM     12  C   LIG d   1       3.331  91.383 117.093  0.00  0.00     0.006 C 
ENDBRANCH   8  11
ENDBRANCH   7   8
ENDBRANCH   1   7
BRANCH   6  13
ATOM     13  N   LIG d   1       3.431  87.504 113.386  0.00  0.00    -0.311 N 
ATOM     14  C   LIG d   1       2.778  88.125 112.405  0.00  0.00     0.210 C 
ATOM     15  C   LIG d   1       2.043  87.199 111.430  0.00  0.00     0.109 C 
ATOM     16  O   LIG d   1       2.765  89.353 112.230  0.00  0.00    -0.276 OA
ATOM     17  H   LIG d   1       3.415  86.504 113.434  0.00  0.00     0.149 HD
ENDBRANCH   6  13
BRANCH   5  18
ATOM     18  N   LIG d   1       6.117  88.898 112.968  0.00  0.00     0.381 N 
ATOM     19  H   LIG d   1       6.149  89.883 113.139  0.00  0.00    -0.090 HD
ATOM     20  H   LIG d   1       5.431  88.724 112.254  0.00  0.00    -0.090 HD
ATOM     21  H   LIG d   1       7.010  88.577 112.665  0.00  0.00    -0.090 HD
ENDBRANCH   5  18
BRANCH   3  22
ATOM     22  C   LIG d   1       6.944  88.391 117.658  0.00  0.00     0.382 C 
ATOM     23  O   LIG d   1       8.117  88.785 117.448  0.00  0.00    -0.241 OA
ATOM     24  O   LIG d   1       6.629  87.979 118.790  0.00  0.00    -0.241 OA
ENDBRANCH   3  22
TORSDOF 7
ENDMDL
