MODEL 1
REMARK VINA RESULT:      -4.9      0.000      0.000
REMARK  7 active torsions:
REMARK  status: ('A' for Active; 'I' for Inactive)
REMARK    1  A    between atoms: C_2  and  C_3 
REMARK    2  A    between atoms: C_3  and  O_6 
REMARK    3  A    between atoms: C_3  and  C_4 
REMARK    4  A    between atoms: C_7  and  O_6 
REMARK    5  A    between atoms: C_9  and  C_10 
REMARK    6  A    between atoms: N_15  and  C_14 
REMARK    7  A    between atoms: N_20  and  C_19 
REMARK       I    between atoms: C_22  and  N_20 
ROOT
ATOM      1  C   LIG d   1       3.551  88.480 115.688  0.00  0.00     0.161 C 
ATOM      2  C   LIG d   1       4.146  89.055 116.824  0.00  0.00     0.016 C 
ATOM      3  C   LIG d   1       5.341  89.808 116.779  0.00  0.00     0.038 C 
ATOM      4  C   LIG d   1       5.946  90.168 115.565  0.00  0.00     0.028 C 
ATOM      5  C   LIG d   1       5.661  89.188 114.432  0.00  0.00    -0.047 C 
ATOM      6  C   LIG d   1       4.135  88.956 114.341  0.00  0.00     0.091 C 
ENDROOT
BRANCH   1   7
ATOM      7  O   LIG d   1       2.126  88.697 115.720  0.00  0.00    -0.368 OA
BRANCH   7   8
ATOM      8  C   LIG d   1       1.540  88.887 117.032  0.00  0.00     0.119 C 
BRANCH   8   9
ATOM      9  C   LIG d   1       0.615  87.685 117.304  0.00  0.00     0.028 C 
ATOM     10  C   LIG d   1      -0.776  88.115 117.800  0.00  0.00     0.006 C 
ENDBRANCH   8   9
BRANCH   8  11
ATOM     11  C   LIG d   1       0.627  90.116 117.061  0.00  0.00     0.028 C 
ATOM     12  C   LIG d   1       1.390  91.419 117.348  0.00  0.00     0.006 C 
ENDBRANCH   8  11
ENDBRANCH   7   8
ENDBRANCH   1   7
BRANCH   6  13
ATOM     13  N   LIG d   1       3.776  87.945 113.313  0.00  0.00    -0.311 N 
ATOM     14  C   LIG d   1       2.847  88.146 112.380  0.00  0.00     0.210 C 
ATOM     15  C   LIG d   1       2.618  86.966 111.430  0.00  0.00     0.109 C 
ATOM     16  O   LIG d   1       2.214  89.202 112.229  0.00  0.00    -0.276 OA
ATOM     17  H   LIG d   1       4.263  87.071 113.343  0.00  0.00     0.149 HD
ENDBRANCH   6  13
BRANCH   5  18
ATOM     18  N   LIG d   1       6.234  89.755 113.197  0.00  0.00     0.381 N 
ATOM     19  H   LIG d   1       6.001  90.726 113.130  0.00  0.00    -0.090 HD
ATOM     20  H   LIG d   1       5.836  89.280 112.406  0.00  0.00    -0.090 HD
ATOM     21  H   LIG d   1       7.224  89.643 113.198  0.00  0.00    -0.090 HD
ENDBRANCH   5  18
BRANCH   3  22
ATOM     22  C   LIG d   1       5.966  90.176 117.961  0.00  0.00     0.382 C 
ATOM     23  O   LIG d   1       6.118  91.390 118.238  0.00  0.00    -0.241 OA
ATOM     24  O   LIG d   1       6.420  89.309 118.731  0.00  0.00    -0.241 OA
ENDBRANCH   3  22
TORSDOF 7
ENDMDL
MODEL 2
REMARK VINA RESULT:      -4.6      2.464      5.301
REMARK  7 active torsions:
REMARK  status: ('A' for Active; 'I' for Inactive)
REMARK    1  A    between atoms: C_2  and  C_3 
REMARK    2  A    between atoms: C_3  and  O_6 
REMARK    3  A    between atoms: C_3  and  C_4 
REMARK    4  A    between atoms: C_7  and  O_6 
REMARK    5  A    between atoms: C_9  and  C_10 
REMARK    6  A    between atoms: N_15  and  C_14 
REMARK    7  A    between atoms: N_20  and  C_19 
REMARK       I    between atoms: C_22  and  N_20 
ROOT
ATOM      1  C   LIG d   1       5.400  90.240 115.232  0.00  0.00     0.161 C 
ATOM      2  C   LIG d   1       4.409  89.853 114.314  0.00  0.00     0.016 C 
ATOM      3  C   LIG d   1       4.162  88.507 113.957  0.00  0.00     0.038 C 
ATOM      4  C   LIG d   1       4.793  87.439 114.612  0.00  0.00     0.028 C 
ATOM      5  C   LIG d   1       6.159  87.801 115.185  0.00  0.00    -0.047 C 
ATOM      6  C   LIG d   1       6.022  89.082 116.039  0.00  0.00     0.091 C 
ENDROOT
BRANCH   1   7
ATOM      7  O   LIG d   1       4.875  91.246 116.121  0.00  0.00    -0.368 OA
BRANCH   7   8
ATOM      8  C   LIG d   1       4.121  90.759 117.259  0.00  0.00     0.119 C 
BRANCH   8   9
ATOM      9  C   LIG d   1       2.690  91.319 117.139  0.00  0.00     0.028 C 
ATOM     10  C   LIG d   1       2.175  91.900 118.466  0.00  0.00     0.006 C 
ENDBRANCH   8   9
BRANCH   8  11
ATOM     11  C   LIG d   1       4.669  91.324 118.573  0.00  0.00     0.028 C 
ATOM     12  C   LIG d   1       5.856  92.278 118.363  0.00  0.00     0.006 C 
ENDBRANCH   8  11
ENDBRANCH   7   8
ENDBRANCH   1   7
BRANCH   6  13
ATOM     13  N   LIG d   1       7.328  89.553 116.568  0.00  0.00    -0.311 N 
ATOM     14  C   LIG d   1       7.790  89.231 117.775  0.00  0.00     0.210 C 
ATOM     15  C   LIG d   1       9.149  89.840 118.132  0.00  0.00     0.109 C 
ATOM     16  O   LIG d   1       7.216  88.473 118.573  0.00  0.00    -0.276 OA
ATOM     17  H   LIG d   1       7.873  90.147 115.974  0.00  0.00     0.149 HD
ENDBRANCH   6  13
BRANCH   5  18
ATOM     18  N   LIG d   1       6.641  86.640 115.956  0.00  0.00     0.381 N 
ATOM     19  H   LIG d   1       7.374  86.180 115.454  0.00  0.00    -0.090 HD
ATOM     20  H   LIG d   1       5.883  85.990 116.074  0.00  0.00    -0.090 HD
ATOM     21  H   LIG d   1       6.974  86.937 116.847  0.00  0.00    -0.090 HD
ENDBRANCH   5  18
BRANCH   3  22
ATOM     22  C   LIG d   1       3.304  88.221 112.906  0.00  0.00     0.382 C 
ATOM     23  O   LIG d   1       3.355  87.101 112.343  0.00  0.00    -0.241 OA
ATOM     24  O   LIG d   1       2.511  89.084 112.485  0.00  0.00    -0.241 OA
ENDBRANCH   3  22
TORSDOF 7
ENDMDL
MODEL 3
REMARK VINA RESULT:      -4.6      1.479      4.658
REMARK  7 active torsions:
REMARK  status: ('A' for Active; 'I' for Inactive)
REMARK    1  A    between atoms: C_2  and  C_3 
REMARK    2  A    between atoms: C_3  and  O_6 
REMARK    3  A    between atoms: C_3  and  C_4 
REMARK    4  A    between atoms: C_7  and  O_6 
REMARK    5  A    between atoms: C_9  and  C_10 
REMARK    6  A    between atoms: N_15  and  C_14 
REMARK    7  A    between atoms: N_20  and  C_19 
REMARK       I    between atoms: C_22  and  N_20 
ROOT
ATOM      1  C   LIG d   1       3.314  88.884 115.260  0.00  0.00     0.161 C 
ATOM      2  C   LIG d   1       2.779  88.073 114.245  0.00  0.00     0.016 C 
ATOM      3  C   LIG d   1       3.397  87.893 112.986  0.00  0.00     0.038 C 
ATOM      4  C   LIG d   1       4.678  88.395 112.710  0.00  0.00     0.028 C 
ATOM      5  C   LIG d   1       5.029  89.637 113.522  0.00  0.00    -0.047 C 
ATOM      6  C   LIG d   1       4.765  89.351 115.018  0.00  0.00     0.091 C 
ENDROOT
BRANCH   1   7
ATOM      7  O   LIG d   1       3.210  88.211 116.530  0.00  0.00    -0.368 OA
BRANCH   7   8
ATOM      8  C   LIG d   1       2.374  88.852 117.524  0.00  0.00     0.119 C 
BRANCH   8   9
ATOM      9  C   LIG d   1       1.344  87.810 118.005  0.00  0.00     0.028 C 
ATOM     10  C   LIG d   1      -0.076  88.113 117.499  0.00  0.00     0.006 C 
ENDBRANCH   8   9
BRANCH   8  11
ATOM     11  C   LIG d   1       1.548  89.986 116.911  0.00  0.00     0.028 C 
ATOM     12  C   LIG d   1       1.868  91.357 117.527  0.00  0.00     0.006 C 
ENDBRANCH   8  11
ENDBRANCH   7   8
ENDBRANCH   1   7
BRANCH   6  13
ATOM     13  N   LIG d   1       5.003  90.542 115.873  0.00  0.00    -0.311 N 
ATOM     14  C   LIG d   1       5.677  90.498 117.021  0.00  0.00     0.210 C 
ATOM     15  C   LIG d   1       5.790  91.836 117.757  0.00  0.00     0.109 C 
ATOM     16  O   LIG d   1       6.220  89.483 117.483  0.00  0.00    -0.276 OA
ATOM     17  H   LIG d   1       4.624  91.414 115.558  0.00  0.00     0.149 HD
ENDBRANCH   6  13
BRANCH   5  18
ATOM     18  N   LIG d   1       6.437  89.972 113.237  0.00  0.00     0.381 N 
ATOM     19  H   LIG d   1       7.031  89.552 113.925  0.00  0.00    -0.090 HD
ATOM     20  H   LIG d   1       6.551  90.969 113.288  0.00  0.00    -0.090 HD
ATOM     21  H   LIG d   1       6.688  89.648 112.329  0.00  0.00    -0.090 HD
ENDBRANCH   5  18
BRANCH   3  22
ATOM     22  C   LIG d   1       2.715  87.236 111.974  0.00  0.00     0.382 C 
ATOM     23  O   LIG d   1       3.221  86.224 111.431  0.00  0.00    -0.241 OA
ATOM     24  O   LIG d   1       1.620  87.668 111.566  0.00  0.00    -0.241 OA
ENDBRANCH   3  22
TORSDOF 7
ENDMDL
MODEL 4
REMARK VINA RESULT:      -4.5      1.808      4.674
REMARK  7 active torsions:
REMARK  status: ('A' for Active; 'I' for Inactive)
REMARK    1  A    between atoms: C_2  and  C_3 
REMARK    2  A    between atoms: C_3  and  O_6 
REMARK    3  A    between atoms: C_3  and  C_4 
REMARK    4  A    between atoms: C_7  and  O_6 
REMARK    5  A    between atoms: C_9  and  C_10 
REMARK    6  A    between atoms: N_15  and  C_14 
REMARK    7  A    between atoms: N_20  and  C_19 
REMARK       I    between atoms: C_22  and  N_20 
ROOT
ATOM      1  C   LIG d   1       3.254  89.578 116.145  0.00  0.00     0.161 C 
ATOM      2  C   LIG d   1       2.885  89.143 114.861  0.00  0.00     0.016 C 
ATOM      3  C   LIG d   1       3.800  88.604 113.929  0.00  0.00     0.038 C 
ATOM      4  C   LIG d   1       5.130  88.321 114.274  0.00  0.00     0.028 C 
ATOM      5  C   LIG d   1       5.668  89.209 115.391  0.00  0.00    -0.047 C 
ATOM      6  C   LIG d   1       4.679  89.175 116.579  0.00  0.00     0.091 C 
ENDROOT
BRANCH   1   7
ATOM      7  O   LIG d   1       2.288  89.122 117.112  0.00  0.00    -0.368 OA
BRANCH   7   8
ATOM      8  C   LIG d   1       1.137  89.978 117.316  0.00  0.00     0.119 C 
BRANCH   8   9
ATOM      9  C   LIG d   1       1.409  90.830 118.571  0.00  0.00     0.028 C 
ATOM     10  C   LIG d   1       1.365  92.339 118.277  0.00  0.00     0.006 C 
ENDBRANCH   8   9
BRANCH   8  11
ATOM     11  C   LIG d   1      -0.115  89.159 117.645  0.00  0.00     0.028 C 
ATOM     12  C   LIG d   1       0.061  87.660 117.356  0.00  0.00     0.006 C 
ENDBRANCH   8  11
ENDBRANCH   7   8
ENDBRANCH   1   7
BRANCH   6  13
ATOM     13  N   LIG d   1       5.087  90.083 117.682  0.00  0.00    -0.311 N 
ATOM     14  C   LIG d   1       4.983  91.409 117.617  0.00  0.00     0.210 C 
ATOM     15  C   LIG d   1       5.479  92.159 118.857  0.00  0.00     0.109 C 
ATOM     16  O   LIG d   1       4.497  92.034 116.662  0.00  0.00    -0.276 OA
ATOM     17  H   LIG d   1       5.463  89.658 118.507  0.00  0.00     0.149 HD
ENDBRANCH   6  13
BRANCH   5  18
ATOM     18  N   LIG d   1       7.013  88.717 115.744  0.00  0.00     0.381 N 
ATOM     19  H   LIG d   1       6.940  88.001 116.440  0.00  0.00    -0.090 HD
ATOM     20  H   LIG d   1       7.547  89.476 116.128  0.00  0.00    -0.090 HD
ATOM     21  H   LIG d   1       7.468  88.357 114.934  0.00  0.00    -0.090 HD
ENDBRANCH   5  18
BRANCH   3  22
ATOM     22  C   LIG d   1       3.397  88.378 112.621  0.00  0.00     0.382 C 
ATOM     23  O   LIG d   1       2.368  88.941 112.177  0.00  0.00    -0.241 OA
ATOM     24  O   LIG d   1       4.025  87.585 111.894  0.00  0.00    -0.241 OA
ENDBRANCH   3  22
TORSDOF 7
ENDMDL
MODEL 5
REMARK VINA RESULT:      -4.4      1.771      4.401
REMARK  7 active torsions:
REMARK  status: ('A' for Active; 'I' for Inactive)
REMARK    1  A    between atoms: C_2  and  C_3 
REMARK    2  A    between atoms: C_3  and  O_6 
REMARK    3  A    between atoms: C_3  and  C_4 
REMARK    4  A    between atoms: C_7  and  O_6 
REMARK    5  A    between atoms: C_9  and  C_10 
REMARK    6  A    between atoms: N_15  and  C_14 
REMARK    7  A    between atoms: N_20  and  C_19 
REMARK       I    between atoms: C_22  and  N_20 
ROOT
ATOM      1  C   LIG d   1       3.120  89.367 116.184  0.00  0.00     0.161 C 
ATOM      2  C   LIG d   1       2.767  88.955 114.888  0.00  0.00     0.016 C 
ATOM      3  C   LIG d   1       3.712  88.577 113.907  0.00  0.00     0.038 C 
ATOM      4  C   LIG d   1       5.076  88.440 114.206  0.00  0.00     0.028 C 
ATOM      5  C   LIG d   1       5.537  89.329 115.355  0.00  0.00    -0.047 C 
ATOM      6  C   LIG d   1       4.595  89.117 116.563  0.00  0.00     0.091 C 
ENDROOT
BRANCH   1   7
ATOM      7  O   LIG d   1       2.244  88.750 117.148  0.00  0.00    -0.368 OA
BRANCH   7   8
ATOM      8  C   LIG d   1       1.437  89.653 117.944  0.00  0.00     0.119 C 
BRANCH   8   9
ATOM      9  C   LIG d   1       0.190  88.873 118.406  0.00  0.00     0.028 C 
ATOM     10  C   LIG d   1      -0.244  87.804 117.389  0.00  0.00     0.006 C 
ENDBRANCH   8   9
BRANCH   8  11
ATOM     11  C   LIG d   1       0.900  90.812 117.100  0.00  0.00     0.028 C 
ATOM     12  C   LIG d   1       1.025  92.171 117.807  0.00  0.00     0.006 C 
ENDBRANCH   8  11
ENDBRANCH   7   8
ENDBRANCH   1   7
BRANCH   6  13
ATOM     13  N   LIG d   1       4.924  90.012 117.702  0.00  0.00    -0.311 N 
ATOM     14  C   LIG d   1       4.817  91.339 117.648  0.00  0.00     0.210 C 
ATOM     15  C   LIG d   1       5.227  92.074 118.928  0.00  0.00     0.109 C 
ATOM     16  O   LIG d   1       4.391  91.974 116.672  0.00  0.00    -0.276 OA
ATOM     17  H   LIG d   1       5.248  89.578 118.545  0.00  0.00     0.149 HD
ENDBRANCH   6  13
BRANCH   5  18
ATOM     18  N   LIG d   1       6.941  88.985 115.650  0.00  0.00     0.381 N 
ATOM     19  H   LIG d   1       7.515  89.799 115.557  0.00  0.00    -0.090 HD
ATOM     20  H   LIG d   1       7.254  88.300 114.985  0.00  0.00    -0.090 HD
ATOM     21  H   LIG d   1       7.016  88.620 116.574  0.00  0.00    -0.090 HD
ENDBRANCH   5  18
BRANCH   3  22
ATOM     22  C   LIG d   1       3.300  88.370 112.600  0.00  0.00     0.382 C 
ATOM     23  O   LIG d   1       2.312  88.996 112.147  0.00  0.00    -0.241 OA
ATOM     24  O   LIG d   1       3.877  87.531 111.881  0.00  0.00    -0.241 OA
ENDBRANCH   3  22
TORSDOF 7
ENDMDL
MODEL 6
REMARK VINA RESULT:      -4.2      2.397      5.239
REMARK  7 active torsions:
REMARK  status: ('A' for Active; 'I' for Inactive)
REMARK    1  A    between atoms: C_2  and  C_3 
REMARK    2  A    between atoms: C_3  and  O_6 
REMARK    3  A    between atoms: C_3  and  C_4 
REMARK    4  A    between atoms: C_7  and  O_6 
REMARK    5  A    between atoms: C_9  and  C_10 
REMARK    6  A    between atoms: N_15  and  C_14 
REMARK    7  A    between atoms: N_20  and  C_19 
REMARK       I    between atoms: C_22  and  N_20 
ROOT
ATOM      1  C   LIG d   1       3.737  88.855 116.379  0.00  0.00     0.161 C 
ATOM      2  C   LIG d   1       2.445  89.404 116.339  0.00  0.00     0.016 C 
ATOM      3  C   LIG d   1       2.104  90.636 116.943  0.00  0.00     0.038 C 
ATOM      4  C   LIG d   1       3.074  91.481 117.502  0.00  0.00     0.028 C 
ATOM      5  C   LIG d   1       4.305  90.738 118.011  0.00  0.00    -0.047 C 
ATOM      6  C   LIG d   1       4.832  89.815 116.888  0.00  0.00     0.091 C 
ENDROOT
BRANCH   1   7
ATOM      7  O   LIG d   1       4.089  88.338 115.080  0.00  0.00    -0.368 OA
BRANCH   7   8
ATOM      8  C   LIG d   1       3.816  89.207 113.953  0.00  0.00     0.119 C 
BRANCH   8   9
ATOM      9  C   LIG d   1       3.178  88.345 112.847  0.00  0.00     0.028 C 
ATOM     10  C   LIG d   1       2.820  86.932 113.337  0.00  0.00     0.006 C 
ENDBRANCH   8   9
BRANCH   8  11
ATOM     11  C   LIG d   1       5.111  89.754 113.345  0.00  0.00     0.028 C 
ATOM     12  C   LIG d   1       6.152  88.657 113.075  0.00  0.00     0.006 C 
ENDBRANCH   8  11
ENDBRANCH   7   8
ENDBRANCH   1   7
BRANCH   6  13
ATOM     13  N   LIG d   1       5.986  88.988 117.329  0.00  0.00    -0.311 N 
ATOM     14  C   LIG d   1       7.254  89.375 117.207  0.00  0.00     0.210 C 
ATOM     15  C   LIG d   1       8.290  88.363 117.707  0.00  0.00     0.109 C 
ATOM     16  O   LIG d   1       7.619  90.473 116.762  0.00  0.00    -0.276 OA
ATOM     17  H   LIG d   1       5.779  88.095 117.731  0.00  0.00     0.149 HD
ENDBRANCH   6  13
BRANCH   5  18
ATOM     18  N   LIG d   1       5.290  91.748 118.440  0.00  0.00     0.381 N 
ATOM     19  H   LIG d   1       6.209  91.353 118.423  0.00  0.00    -0.090 HD
ATOM     20  H   LIG d   1       5.082  92.024 119.384  0.00  0.00    -0.090 HD
ATOM     21  H   LIG d   1       5.250  92.541 117.838  0.00  0.00    -0.090 HD
ENDBRANCH   5  18
BRANCH   3  22
ATOM     22  C   LIG d   1       0.773  91.016 117.027  0.00  0.00     0.382 C 
ATOM     23  O   LIG d   1       0.475  92.219 117.217  0.00  0.00    -0.241 OA
ATOM     24  O   LIG d   1      -0.133  90.163 116.959  0.00  0.00    -0.241 OA
ENDBRANCH   3  22
TORSDOF 7
ENDMDL
MODEL 7
REMARK VINA RESULT:      -4.1      2.865      5.153
REMARK  7 active torsions:
REMARK  status: ('A' for Active; 'I' for Inactive)
REMARK    1  A    between atoms: C_2  and  C_3 
REMARK    2  A    between atoms: C_3  and  O_6 
REMARK    3  A    between atoms: C_3  and  C_4 
REMARK    4  A    between atoms: C_7  and  O_6 
REMARK    5  A    between atoms: C_9  and  C_10 
REMARK    6  A    between atoms: N_15  and  C_14 
REMARK    7  A    between atoms: N_20  and  C_19 
REMARK       I    between atoms: C_22  and  N_20 
ROOT
ATOM      1  C   LIG d   1       4.655  87.558 116.221  0.00  0.00     0.161 C 
ATOM      2  C   LIG d   1       3.597  88.478 116.136  0.00  0.00     0.016 C 
ATOM      3  C   LIG d   1       3.645  89.773 116.702  0.00  0.00     0.038 C 
ATOM      4  C   LIG d   1       4.819  90.293 117.265  0.00  0.00     0.028 C 
ATOM      5  C   LIG d   1       5.751  89.221 117.821  0.00  0.00    -0.047 C 
ATOM      6  C   LIG d   1       5.985  88.147 116.735  0.00  0.00     0.091 C 
ENDROOT
BRANCH   1   7
ATOM      7  O   LIG d   1       4.850  86.918 114.944  0.00  0.00    -0.368 OA
BRANCH   7   8
ATOM      8  C   LIG d   1       4.288  87.601 113.797  0.00  0.00     0.119 C 
BRANCH   8   9
ATOM      9  C   LIG d   1       3.652  86.532 112.887  0.00  0.00     0.028 C 
ATOM     10  C   LIG d   1       4.276  86.510 111.482  0.00  0.00     0.006 C 
ENDBRANCH   8   9
BRANCH   8  11
ATOM     11  C   LIG d   1       5.380  88.257 112.948  0.00  0.00     0.028 C 
ATOM     12  C   LIG d   1       5.658  89.713 113.356  0.00  0.00     0.006 C 
ENDBRANCH   8  11
ENDBRANCH   7   8
ENDBRANCH   1   7
BRANCH   6  13
ATOM     13  N   LIG d   1       6.818  87.018 117.224  0.00  0.00    -0.311 N 
ATOM     14  C   LIG d   1       7.946  86.628 116.632  0.00  0.00     0.210 C 
ATOM     15  C   LIG d   1       8.639  85.430 117.288  0.00  0.00     0.109 C 
ATOM     16  O   LIG d   1       8.454  87.180 115.645  0.00  0.00    -0.276 OA
ATOM     17  H   LIG d   1       6.496  86.533 118.039  0.00  0.00     0.149 HD
ENDBRANCH   6  13
BRANCH   5  18
ATOM     18  N   LIG d   1       6.993  89.890 118.251  0.00  0.00     0.381 N 
ATOM     19  H   LIG d   1       7.497  90.215 117.450  0.00  0.00    -0.090 HD
ATOM     20  H   LIG d   1       7.569  89.225 118.737  0.00  0.00    -0.090 HD
ATOM     21  H   LIG d   1       6.778  90.656 118.851  0.00  0.00    -0.090 HD
ENDBRANCH   5  18
BRANCH   3  22
ATOM     22  C   LIG d   1       2.495  90.547 116.743  0.00  0.00     0.382 C 
ATOM     23  O   LIG d   1       1.405  90.073 116.343  0.00  0.00    -0.241 OA
ATOM     24  O   LIG d   1       2.543  91.729 117.133  0.00  0.00    -0.241 OA
ENDBRANCH   3  22
TORSDOF 7
ENDMDL
MODEL 8
REMARK VINA RESULT:      -4.0      3.742      5.495
REMARK  7 active torsions:
REMARK  status: ('A' for Active; 'I' for Inactive)
REMARK    1  A    between atoms: C_2  and  C_3 
REMARK    2  A    between atoms: C_3  and  O_6 
REMARK    3  A    between atoms: C_3  and  C_4 
REMARK    4  A    between atoms: C_7  and  O_6 
REMARK    5  A    between atoms: C_9  and  C_10 
REMARK    6  A    between atoms: N_15  and  C_14 
REMARK    7  A    between atoms: N_20  and  C_19 
REMARK       I    between atoms: C_22  and  N_20 
ROOT
ATOM      1  C   LIG d   1       0.457  90.133 116.757  0.00  0.00     0.161 C 
ATOM      2  C   LIG d   1       1.861  90.148 116.732  0.00  0.00     0.016 C 
ATOM      3  C   LIG d   1       2.640  91.166 117.329  0.00  0.00     0.038 C 
ATOM      4  C   LIG d   1       2.065  92.167 118.127  0.00  0.00     0.028 C 
ATOM      5  C   LIG d   1       0.618  92.478 117.760  0.00  0.00    -0.047 C 
ATOM      6  C   LIG d   1      -0.184  91.157 117.718  0.00  0.00     0.091 C 
ENDROOT
BRANCH   1   7
ATOM      7  O   LIG d   1      -0.013  88.804 117.055  0.00  0.00    -0.368 OA
BRANCH   7   8
ATOM      8  C   LIG d   1       0.978  87.878 117.566  0.00  0.00     0.119 C 
BRANCH   8   9
ATOM      9  C   LIG d   1       1.012  86.666 116.614  0.00  0.00     0.028 C 
ATOM     10  C   LIG d   1       2.411  86.425 116.021  0.00  0.00     0.006 C 
ENDBRANCH   8   9
BRANCH   8  11
ATOM     11  C   LIG d   1       0.563  87.312 118.927  0.00  0.00     0.028 C 
ATOM     12  C   LIG d   1      -0.284  86.035 118.809  0.00  0.00     0.006 C 
ENDBRANCH   8  11
ENDBRANCH   7   8
ENDBRANCH   1   7
BRANCH   6  13
ATOM     13  N   LIG d   1      -1.591  91.361 117.284  0.00  0.00    -0.311 N 
ATOM     14  C   LIG d   1      -2.635  90.806 117.897  0.00  0.00     0.210 C 
ATOM     15  C   LIG d   1      -3.997  91.131 117.276  0.00  0.00     0.109 C 
ATOM     16  O   LIG d   1      -2.565  90.102 118.916  0.00  0.00    -0.276 OA
ATOM     17  H   LIG d   1      -1.741  91.944 116.484  0.00  0.00     0.149 HD
ENDBRANCH   6  13
BRANCH   5  18
ATOM     18  N   LIG d   1       0.101  93.435 118.756  0.00  0.00     0.381 N 
ATOM     19  H   LIG d   1       0.055  92.998 119.655  0.00  0.00    -0.090 HD
ATOM     20  H   LIG d   1      -0.828  93.710 118.492  0.00  0.00    -0.090 HD
ATOM     21  H   LIG d   1       0.693  94.236 118.799  0.00  0.00    -0.090 HD
ENDBRANCH   5  18
BRANCH   3  22
ATOM     22  C   LIG d   1       4.006  91.213 117.097  0.00  0.00     0.382 C 
ATOM     23  O   LIG d   1       4.695  90.169 117.199  0.00  0.00    -0.241 OA
ATOM     24  O   LIG d   1       4.565  92.293 116.830  0.00  0.00    -0.241 OA
ENDBRANCH   3  22
TORSDOF 7
ENDMDL
MODEL 9
REMARK VINA RESULT:      -3.8      1.767      2.234
REMARK  7 active torsions:
REMARK  status: ('A' for Active; 'I' for Inactive)
REMARK    1  A    between atoms: C_2  and  C_3 
REMARK    2  A    between atoms: C_3  and  O_6 
REMARK    3  A    between atoms: C_3  and  C_4 
REMARK    4  A    between atoms: C_7  and  O_6 
REMARK    5  A    between atoms: C_9  and  C_10 
REMARK    6  A    between atoms: N_15  and  C_14 
REMARK    7  A    between atoms: N_20  and  C_19 
REMARK       I    between atoms: C_22  and  N_20 
ROOT
ATOM      1  C   LIG d   1       3.606  88.107 115.491  0.00  0.00     0.161 C 
ATOM      2  C   LIG d   1       4.483  87.678 116.501  0.00  0.00     0.016 C 
ATOM      3  C   LIG d   1       5.889  87.663 116.356  0.00  0.00     0.038 C 
ATOM      4  C   LIG d   1       6.525  88.223 115.238  0.00  0.00     0.028 C 
ATOM      5  C   LIG d   1       5.664  88.206 113.980  0.00  0.00    -0.047 C 
ATOM      6  C   LIG d   1       4.286  88.825 114.306  0.00  0.00     0.091 C 
ENDROOT
BRANCH   1   7
ATOM      7  O   LIG d   1       2.577  88.942 116.059  0.00  0.00    -0.368 OA
BRANCH   7   8
ATOM      8  C   LIG d   1       2.904  89.593 117.311  0.00  0.00     0.119 C 
BRANCH   8   9
ATOM      9  C   LIG d   1       1.656  89.519 118.212  0.00  0.00     0.028 C 
ATOM     10  C   LIG d   1       0.420  88.996 117.460  0.00  0.00     0.006 C 
ENDBRANCH   8   9
BRANCH   8  11
ATOM     11  C   LIG d   1       3.170  91.088 117.109  0.00  0.00     0.028 C 
ATOM     12  C   LIG d   1       4.667  91.416 116.988  0.00  0.00     0.006 C 
ENDBRANCH   8  11
ENDBRANCH   7   8
ENDBRANCH   1   7
BRANCH   6  13
ATOM     13  N   LIG d   1       3.351  88.770 113.152  0.00  0.00    -0.311 N 
ATOM     14  C   LIG d   1       2.894  87.633 112.632  0.00  0.00     0.210 C 
ATOM     15  C   LIG d   1       1.957  87.801 111.432  0.00  0.00     0.109 C 
ATOM     16  O   LIG d   1       3.150  86.501 113.071  0.00  0.00    -0.276 OA
ATOM     17  H   LIG d   1       3.067  89.644 112.753  0.00  0.00     0.149 HD
ENDBRANCH   6  13
BRANCH   5  18
ATOM     18  N   LIG d   1       6.394  88.941 112.930  0.00  0.00     0.381 N 
ATOM     19  H   LIG d   1       5.817  89.672 112.565  0.00  0.00    -0.090 HD
ATOM     20  H   LIG d   1       6.611  88.307 112.181  0.00  0.00    -0.090 HD
ATOM     21  H   LIG d   1       7.233  89.325 113.303  0.00  0.00    -0.090 HD
ENDBRANCH   5  18
BRANCH   3  22
ATOM     22  C   LIG d   1       6.673  87.048 117.320  0.00  0.00     0.382 C 
ATOM     23  O   LIG d   1       6.408  85.879 117.691  0.00  0.00    -0.241 OA
ATOM     24  O   LIG d   1       7.614  87.663 117.856  0.00  0.00    -0.241 OA
ENDBRANCH   3  22
TORSDOF 7
ENDMDL
