MODEL 1
REMARK VINA RESULT:      -5.1      0.000      0.000
REMARK  7 active torsions:
REMARK  status: ('A' for Active; 'I' for Inactive)
REMARK    1  A    between atoms: C_2  and  C_3 
REMARK    2  A    between atoms: C_3  and  O_6 
REMARK    3  A    between atoms: C_3  and  C_4 
REMARK    4  A    between atoms: C_7  and  O_6 
REMARK    5  A    between atoms: C_9  and  C_10 
REMARK    6  A    between atoms: N_15  and  C_14 
REMARK    7  A    between atoms: N_20  and  C_19 
REMARK       I    between atoms: C_22  and  N_20 
ROOT
ATOM      1  C   LIG d   1       3.753  89.240 115.594  0.00  0.00     0.161 C 
ATOM      2  C   LIG d   1       4.559  89.937 116.510  0.00  0.00     0.016 C 
ATOM      3  C   LIG d   1       5.896  90.310 116.242  0.00  0.00     0.038 C 
ATOM      4  C   LIG d   1       6.473  90.143 114.974  0.00  0.00     0.028 C 
ATOM      5  C   LIG d   1       5.866  88.992 114.179  0.00  0.00    -0.047 C 
ATOM      6  C   LIG d   1       4.328  89.148 114.165  0.00  0.00     0.091 C 
ENDROOT
BRANCH   1   7
ATOM      7  O   LIG d   1       2.433  89.819 115.567  0.00  0.00    -0.368 OA
BRANCH   7   8
ATOM      8  C   LIG d   1       1.763  89.939 116.845  0.00  0.00     0.119 C 
BRANCH   8   9
ATOM      9  C   LIG d   1       1.051  88.600 117.123  0.00  0.00     0.028 C 
ATOM     10  C   LIG d   1      -0.372  88.795 117.671  0.00  0.00     0.006 C 
ENDBRANCH   8   9
BRANCH   8  11
ATOM     11  C   LIG d   1       0.648  90.988 116.794  0.00  0.00     0.028 C 
ATOM     12  C   LIG d   1       1.053  92.321 117.443  0.00  0.00     0.006 C 
ENDBRANCH   8  11
ENDBRANCH   7   8
ENDBRANCH   1   7
BRANCH   6  13
ATOM     13  N   LIG d   1       3.650  88.017 113.479  0.00  0.00    -0.311 N 
ATOM     14  C   LIG d   1       2.695  88.181 112.565  0.00  0.00     0.210 C 
ATOM     15  C   LIG d   1       2.115  86.882 111.997  0.00  0.00     0.109 C 
ATOM     16  O   LIG d   1       2.297  89.278 112.147  0.00  0.00    -0.276 OA
ATOM     17  H   LIG d   1       3.934  87.092 113.736  0.00  0.00     0.149 HD
ENDBRANCH   6  13
BRANCH   5  18
ATOM     18  N   LIG d   1       6.462  89.019 112.830  0.00  0.00     0.381 N 
ATOM     19  H   LIG d   1       7.084  89.798 112.750  0.00  0.00    -0.090 HD
ATOM     20  H   LIG d   1       5.728  89.131 112.152  0.00  0.00    -0.090 HD
ATOM     21  H   LIG d   1       6.955  88.171 112.658  0.00  0.00    -0.090 HD
ENDBRANCH   5  18
BRANCH   3  22
ATOM     22  C   LIG d   1       6.685  90.821 117.262  0.00  0.00     0.382 C 
ATOM     23  O   LIG d   1       7.916  90.983 117.082  0.00  0.00    -0.241 OA
ATOM     24  O   LIG d   1       6.188  91.080 118.375  0.00  0.00    -0.241 OA
ENDBRANCH   3  22
TORSDOF 7
ENDMDL
MODEL 2
REMARK VINA RESULT:      -5.0      2.076      5.257
REMARK  7 active torsions:
REMARK  status: ('A' for Active; 'I' for Inactive)
REMARK    1  A    between atoms: C_2  and  C_3 
REMARK    2  A    between atoms: C_3  and  O_6 
REMARK    3  A    between atoms: C_3  and  C_4 
REMARK    4  A    between atoms: C_7  and  O_6 
REMARK    5  A    between atoms: C_9  and  C_10 
REMARK    6  A    between atoms: N_15  and  C_14 
REMARK    7  A    between atoms: N_20  and  C_19 
REMARK       I    between atoms: C_22  and  N_20 
ROOT
ATOM      1  C   LIG d   1       3.668  89.022 115.449  0.00  0.00     0.161 C 
ATOM      2  C   LIG d   1       2.930  88.442 114.403  0.00  0.00     0.016 C 
ATOM      3  C   LIG d   1       3.454  88.226 113.108  0.00  0.00     0.038 C 
ATOM      4  C   LIG d   1       4.808  88.438 112.811  0.00  0.00     0.028 C 
ATOM      5  C   LIG d   1       5.463  89.495 113.693  0.00  0.00    -0.047 C 
ATOM      6  C   LIG d   1       5.180  89.158 115.175  0.00  0.00     0.091 C 
ENDROOT
BRANCH   1   7
ATOM      7  O   LIG d   1       3.443  88.290 116.670  0.00  0.00    -0.368 OA
BRANCH   7   8
ATOM      8  C   LIG d   1       3.003  86.918 116.519  0.00  0.00     0.119 C 
BRANCH   8   9
ATOM      9  C   LIG d   1       1.892  86.671 117.558  0.00  0.00     0.028 C 
ATOM     10  C   LIG d   1       0.757  87.705 117.460  0.00  0.00     0.006 C 
ENDBRANCH   8   9
BRANCH   8  11
ATOM     11  C   LIG d   1       4.119  85.932 116.877  0.00  0.00     0.028 C 
ATOM     12  C   LIG d   1       4.889  85.431 115.645  0.00  0.00     0.006 C 
ENDBRANCH   8  11
ENDBRANCH   7   8
ENDBRANCH   1   7
BRANCH   6  13
ATOM     13  N   LIG d   1       5.715  90.188 116.103  0.00  0.00    -0.311 N 
ATOM     14  C   LIG d   1       6.897  90.087 116.708  0.00  0.00     0.210 C 
ATOM     15  C   LIG d   1       7.247  91.251 117.640  0.00  0.00     0.109 C 
ATOM     16  O   LIG d   1       7.703  89.161 116.536  0.00  0.00    -0.276 OA
ATOM     17  H   LIG d   1       5.139  90.989 116.275  0.00  0.00     0.149 HD
ENDBRANCH   6  13
BRANCH   5  18
ATOM     18  N   LIG d   1       6.902  89.516 113.370  0.00  0.00     0.381 N 
ATOM     19  H   LIG d   1       7.147  88.692 112.858  0.00  0.00    -0.090 HD
ATOM     20  H   LIG d   1       7.428  89.523 114.226  0.00  0.00    -0.090 HD
ATOM     21  H   LIG d   1       7.119  90.326 112.832  0.00  0.00    -0.090 HD
ENDBRANCH   5  18
BRANCH   3  22
ATOM     22  C   LIG d   1       2.609  87.829 112.082  0.00  0.00     0.382 C 
ATOM     23  O   LIG d   1       1.571  88.489 111.835  0.00  0.00    -0.241 OA
ATOM     24  O   LIG d   1       2.848  86.795 111.431  0.00  0.00    -0.241 OA
ENDBRANCH   3  22
TORSDOF 7
ENDMDL
MODEL 3
REMARK VINA RESULT:      -4.9      1.548      4.708
REMARK  7 active torsions:
REMARK  status: ('A' for Active; 'I' for Inactive)
REMARK    1  A    between atoms: C_2  and  C_3 
REMARK    2  A    between atoms: C_3  and  O_6 
REMARK    3  A    between atoms: C_3  and  C_4 
REMARK    4  A    between atoms: C_7  and  O_6 
REMARK    5  A    between atoms: C_9  and  C_10 
REMARK    6  A    between atoms: N_15  and  C_14 
REMARK    7  A    between atoms: N_20  and  C_19 
REMARK       I    between atoms: C_22  and  N_20 
ROOT
ATOM      1  C   LIG d   1       3.635  89.163 115.370  0.00  0.00     0.161 C 
ATOM      2  C   LIG d   1       2.886  88.563 114.343  0.00  0.00     0.016 C 
ATOM      3  C   LIG d   1       3.426  88.231 113.079  0.00  0.00     0.038 C 
ATOM      4  C   LIG d   1       4.798  88.339 112.807  0.00  0.00     0.028 C 
ATOM      5  C   LIG d   1       5.498  89.408 113.639  0.00  0.00    -0.047 C 
ATOM      6  C   LIG d   1       5.159  89.186 115.130  0.00  0.00     0.091 C 
ENDROOT
BRANCH   1   7
ATOM      7  O   LIG d   1       3.335  88.527 116.628  0.00  0.00    -0.368 OA
BRANCH   7   8
ATOM      8  C   LIG d   1       2.584  89.320 117.580  0.00  0.00     0.119 C 
BRANCH   8   9
ATOM      9  C   LIG d   1       1.191  88.677 117.722  0.00  0.00     0.028 C 
ATOM     10  C   LIG d   1       1.207  87.170 117.416  0.00  0.00     0.006 C 
ENDBRANCH   8   9
BRANCH   8  11
ATOM     11  C   LIG d   1       2.325  90.733 117.047  0.00  0.00     0.028 C 
ATOM     12  C   LIG d   1       0.830  91.085 116.994  0.00  0.00     0.006 C 
ENDBRANCH   8  11
ENDBRANCH   7   8
ENDBRANCH   1   7
BRANCH   6  13
ATOM     13  N   LIG d   1       5.736  90.239 116.006  0.00  0.00    -0.311 N 
ATOM     14  C   LIG d   1       6.894  90.104 116.649  0.00  0.00     0.210 C 
ATOM     15  C   LIG d   1       7.296  91.303 117.515  0.00  0.00     0.109 C 
ATOM     16  O   LIG d   1       7.642  89.120 116.560  0.00  0.00    -0.276 OA
ATOM     17  H   LIG d   1       5.209  91.084 116.110  0.00  0.00     0.149 HD
ENDBRANCH   6  13
BRANCH   5  18
ATOM     18  N   LIG d   1       6.943  89.319 113.355  0.00  0.00     0.381 N 
ATOM     19  H   LIG d   1       7.296  88.438 113.672  0.00  0.00    -0.090 HD
ATOM     20  H   LIG d   1       7.419  90.048 113.856  0.00  0.00    -0.090 HD
ATOM     21  H   LIG d   1       7.105  89.417 112.377  0.00  0.00    -0.090 HD
ENDBRANCH   5  18
BRANCH   3  22
ATOM     22  C   LIG d   1       2.582  87.822 112.057  0.00  0.00     0.382 C 
ATOM     23  O   LIG d   1       1.554  88.489 111.789  0.00  0.00    -0.241 OA
ATOM     24  O   LIG d   1       2.813  86.771 111.430  0.00  0.00    -0.241 OA
ENDBRANCH   3  22
TORSDOF 7
ENDMDL
MODEL 4
REMARK VINA RESULT:      -4.7      1.318      2.168
REMARK  7 active torsions:
REMARK  status: ('A' for Active; 'I' for Inactive)
REMARK    1  A    between atoms: C_2  and  C_3 
REMARK    2  A    between atoms: C_3  and  O_6 
REMARK    3  A    between atoms: C_3  and  C_4 
REMARK    4  A    between atoms: C_7  and  O_6 
REMARK    5  A    between atoms: C_9  and  C_10 
REMARK    6  A    between atoms: N_15  and  C_14 
REMARK    7  A    between atoms: N_20  and  C_19 
REMARK       I    between atoms: C_22  and  N_20 
ROOT
ATOM      1  C   LIG d   1       3.922  88.439 115.499  0.00  0.00     0.161 C 
ATOM      2  C   LIG d   1       4.691  88.960 116.553  0.00  0.00     0.016 C 
ATOM      3  C   LIG d   1       5.969  89.538 116.373  0.00  0.00     0.038 C 
ATOM      4  C   LIG d   1       6.503  89.772 115.097  0.00  0.00     0.028 C 
ATOM      5  C   LIG d   1       5.986  88.806 114.037  0.00  0.00    -0.047 C 
ATOM      6  C   LIG d   1       4.441  88.786 114.088  0.00  0.00     0.091 C 
ENDROOT
BRANCH   1   7
ATOM      7  O   LIG d   1       2.549  88.853 115.644  0.00  0.00    -0.368 OA
BRANCH   7   8
ATOM      8  C   LIG d   1       1.601  87.811 115.981  0.00  0.00     0.119 C 
BRANCH   8   9
ATOM      9  C   LIG d   1       1.217  87.997 117.462  0.00  0.00     0.028 C 
ATOM     10  C   LIG d   1      -0.153  88.674 117.632  0.00  0.00     0.006 C 
ENDBRANCH   8   9
BRANCH   8  11
ATOM     11  C   LIG d   1       2.246  86.424 115.901  0.00  0.00     0.028 C 
ATOM     12  C   LIG d   1       1.720  85.459 116.975  0.00  0.00     0.006 C 
ENDBRANCH   8  11
ENDBRANCH   7   8
ENDBRANCH   1   7
BRANCH   6  13
ATOM     13  N   LIG d   1       3.855  87.803 113.139  0.00  0.00    -0.311 N 
ATOM     14  C   LIG d   1       2.853  88.091 112.311  0.00  0.00     0.210 C 
ATOM     15  C   LIG d   1       2.386  86.927 111.431  0.00  0.00     0.109 C 
ATOM     16  O   LIG d   1       2.327  89.209 112.198  0.00  0.00    -0.276 OA
ATOM     17  H   LIG d   1       4.243  86.880 113.142  0.00  0.00     0.149 HD
ENDBRANCH   6  13
BRANCH   5  18
ATOM     18  N   LIG d   1       6.516  89.249 112.733  0.00  0.00     0.381 N 
ATOM     19  H   LIG d   1       6.620  90.244 112.731  0.00  0.00    -0.090 HD
ATOM     20  H   LIG d   1       5.860  88.999 112.014  0.00  0.00    -0.090 HD
ATOM     21  H   LIG d   1       7.395  88.815 112.558  0.00  0.00    -0.090 HD
ENDBRANCH   5  18
BRANCH   3  22
ATOM     22  C   LIG d   1       6.743  89.852 117.479  0.00  0.00     0.382 C 
ATOM     23  O   LIG d   1       6.373  89.497 118.624  0.00  0.00    -0.241 OA
ATOM     24  O   LIG d   1       7.784  90.524 117.352  0.00  0.00    -0.241 OA
ENDBRANCH   3  22
TORSDOF 7
ENDMDL
MODEL 5
REMARK VINA RESULT:      -4.6      2.361      5.485
REMARK  7 active torsions:
REMARK  status: ('A' for Active; 'I' for Inactive)
REMARK    1  A    between atoms: C_2  and  C_3 
REMARK    2  A    between atoms: C_3  and  O_6 
REMARK    3  A    between atoms: C_3  and  C_4 
REMARK    4  A    between atoms: C_7  and  O_6 
REMARK    5  A    between atoms: C_9  and  C_10 
REMARK    6  A    between atoms: N_15  and  C_14 
REMARK    7  A    between atoms: N_20  and  C_19 
REMARK       I    between atoms: C_22  and  N_20 
ROOT
ATOM      1  C   LIG d   1       3.511  89.126 115.568  0.00  0.00     0.161 C 
ATOM      2  C   LIG d   1       2.302  89.814 115.763  0.00  0.00     0.016 C 
ATOM      3  C   LIG d   1       2.059  90.662 116.868  0.00  0.00     0.038 C 
ATOM      4  C   LIG d   1       3.070  91.000 117.780  0.00  0.00     0.028 C 
ATOM      5  C   LIG d   1       4.153  89.934 117.905  0.00  0.00    -0.047 C 
ATOM      6  C   LIG d   1       4.664  89.569 116.493  0.00  0.00     0.091 C 
ENDROOT
BRANCH   1   7
ATOM      7  O   LIG d   1       3.911  89.223 114.187  0.00  0.00    -0.368 OA
BRANCH   7   8
ATOM      8  C   LIG d   1       3.582  88.090 113.346  0.00  0.00     0.119 C 
BRANCH   8   9
ATOM      9  C   LIG d   1       4.884  87.624 112.666  0.00  0.00     0.028 C 
ATOM     10  C   LIG d   1       6.065  88.567 112.951  0.00  0.00     0.006 C 
ENDBRANCH   8   9
BRANCH   8  11
ATOM     11  C   LIG d   1       2.650  88.498 112.201  0.00  0.00     0.028 C 
ATOM     12  C   LIG d   1       1.963  87.295 111.535  0.00  0.00     0.006 C 
ENDBRANCH   8  11
ENDBRANCH   7   8
ENDBRANCH   1   7
BRANCH   6  13
ATOM     13  N   LIG d   1       5.666  88.472 116.519  0.00  0.00    -0.311 N 
ATOM     14  C   LIG d   1       6.981  88.681 116.557  0.00  0.00     0.210 C 
ATOM     15  C   LIG d   1       7.838  87.412 116.558  0.00  0.00     0.109 C 
ATOM     16  O   LIG d   1       7.518  89.798 116.624  0.00  0.00    -0.276 OA
ATOM     17  H   LIG d   1       5.317  87.534 116.499  0.00  0.00     0.149 HD
ENDBRANCH   6  13
BRANCH   5  18
ATOM     18  N   LIG d   1       5.210  90.474 118.781  0.00  0.00     0.381 N 
ATOM     19  H   LIG d   1       4.809  91.101 119.449  0.00  0.00    -0.090 HD
ATOM     20  H   LIG d   1       5.866  90.988 118.220  0.00  0.00    -0.090 HD
ATOM     21  H   LIG d   1       5.676  89.729 119.252  0.00  0.00    -0.090 HD
ENDBRANCH   5  18
BRANCH   3  22
ATOM     22  C   LIG d   1       0.780  91.151 117.091  0.00  0.00     0.382 C 
ATOM     23  O   LIG d   1       0.617  92.348 117.429  0.00  0.00    -0.241 OA
ATOM     24  O   LIG d   1      -0.208  90.398 117.001  0.00  0.00    -0.241 OA
ENDBRANCH   3  22
TORSDOF 7
ENDMDL
MODEL 6
REMARK VINA RESULT:      -4.4      1.761      4.618
REMARK  7 active torsions:
REMARK  status: ('A' for Active; 'I' for Inactive)
REMARK    1  A    between atoms: C_2  and  C_3 
REMARK    2  A    between atoms: C_3  and  O_6 
REMARK    3  A    between atoms: C_3  and  C_4 
REMARK    4  A    between atoms: C_7  and  O_6 
REMARK    5  A    between atoms: C_9  and  C_10 
REMARK    6  A    between atoms: N_15  and  C_14 
REMARK    7  A    between atoms: N_20  and  C_19 
REMARK       I    between atoms: C_22  and  N_20 
ROOT
ATOM      1  C   LIG d   1       3.301  89.213 116.016  0.00  0.00     0.161 C 
ATOM      2  C   LIG d   1       2.840  88.882 114.731  0.00  0.00     0.016 C 
ATOM      3  C   LIG d   1       3.690  88.457 113.684  0.00  0.00     0.038 C 
ATOM      4  C   LIG d   1       5.050  88.188 113.897  0.00  0.00     0.028 C 
ATOM      5  C   LIG d   1       5.654  88.990 115.044  0.00  0.00    -0.047 C 
ATOM      6  C   LIG d   1       4.767  88.819 116.298  0.00  0.00     0.091 C 
ENDROOT
BRANCH   1   7
ATOM      7  O   LIG d   1       2.429  88.642 117.011  0.00  0.00    -0.368 OA
BRANCH   7   8
ATOM      8  C   LIG d   1       1.174  89.332 117.229  0.00  0.00     0.119 C 
BRANCH   8   9
ATOM      9  C   LIG d   1       1.331  90.189 118.500  0.00  0.00     0.028 C 
ATOM     10  C   LIG d   1       1.544  91.678 118.182  0.00  0.00     0.006 C 
ENDBRANCH   8   9
BRANCH   8  11
ATOM     11  C   LIG d   1       0.043  88.347 117.541  0.00  0.00     0.028 C 
ATOM     12  C   LIG d   1      -1.247  89.046 117.998  0.00  0.00     0.006 C 
ENDBRANCH   8  11
ENDBRANCH   7   8
ENDBRANCH   1   7
BRANCH   6  13
ATOM     13  N   LIG d   1       5.240  89.639 117.444  0.00  0.00    -0.311 N 
ATOM     14  C   LIG d   1       5.187  90.969 117.465  0.00  0.00     0.210 C 
ATOM     15  C   LIG d   1       5.746  91.619 118.734  0.00  0.00     0.109 C 
ATOM     16  O   LIG d   1       4.700  91.672 116.566  0.00  0.00    -0.276 OA
ATOM     17  H   LIG d   1       5.621  89.148 118.229  0.00  0.00     0.149 HD
ENDBRANCH   6  13
BRANCH   5  18
ATOM     18  N   LIG d   1       7.035  88.512 115.244  0.00  0.00     0.381 N 
ATOM     19  H   LIG d   1       7.070  87.519 115.124  0.00  0.00    -0.090 HD
ATOM     20  H   LIG d   1       7.321  88.726 116.183  0.00  0.00    -0.090 HD
ATOM     21  H   LIG d   1       7.647  88.954 114.593  0.00  0.00    -0.090 HD
ENDBRANCH   5  18
BRANCH   3  22
ATOM     22  C   LIG d   1       3.187  88.335 112.398  0.00  0.00     0.382 C 
ATOM     23  O   LIG d   1       2.197  89.020 112.044  0.00  0.00    -0.241 OA
ATOM     24  O   LIG d   1       3.683  87.517 111.600  0.00  0.00    -0.241 OA
ENDBRANCH   3  22
TORSDOF 7
ENDMDL
MODEL 7
REMARK VINA RESULT:      -4.2      5.408      7.410
REMARK  7 active torsions:
REMARK  status: ('A' for Active; 'I' for Inactive)
REMARK    1  A    between atoms: C_2  and  C_3 
REMARK    2  A    between atoms: C_3  and  O_6 
REMARK    3  A    between atoms: C_3  and  C_4 
REMARK    4  A    between atoms: C_7  and  O_6 
REMARK    5  A    between atoms: C_9  and  C_10 
REMARK    6  A    between atoms: N_15  and  C_14 
REMARK    7  A    between atoms: N_20  and  C_19 
REMARK       I    between atoms: C_22  and  N_20 
ROOT
ATOM      1  C   LIG d   1      -2.345  91.306 118.288  0.00  0.00     0.161 C 
ATOM      2  C   LIG d   1      -2.473  92.704 118.236  0.00  0.00     0.016 C 
ATOM      3  C   LIG d   1      -1.378  93.580 118.056  0.00  0.00     0.038 C 
ATOM      4  C   LIG d   1      -0.091  93.107 117.763  0.00  0.00     0.028 C 
ATOM      5  C   LIG d   1       0.179  91.707 118.306  0.00  0.00    -0.047 C 
ATOM      6  C   LIG d   1      -0.964  90.767 117.859  0.00  0.00     0.091 C 
ENDROOT
BRANCH   1   7
ATOM      7  O   LIG d   1      -3.388  90.690 117.507  0.00  0.00    -0.368 OA
BRANCH   7   8
ATOM      8  C   LIG d   1      -4.542  91.518 117.219  0.00  0.00     0.119 C 
BRANCH   8   9
ATOM      9  C   LIG d   1      -5.539  91.342 118.381  0.00  0.00     0.028 C 
ATOM     10  C   LIG d   1      -6.044  92.687 118.930  0.00  0.00     0.006 C 
ENDBRANCH   8   9
BRANCH   8  11
ATOM     11  C   LIG d   1      -5.283  91.027 115.972  0.00  0.00     0.028 C 
ATOM     12  C   LIG d   1      -6.115  92.131 115.301  0.00  0.00     0.006 C 
ENDBRANCH   8  11
ENDBRANCH   7   8
ENDBRANCH   1   7
BRANCH   6  13
ATOM     13  N   LIG d   1      -0.822  89.397 118.418  0.00  0.00    -0.311 N 
ATOM     14  C   LIG d   1      -0.196  88.408 117.783  0.00  0.00     0.210 C 
ATOM     15  C   LIG d   1      -0.181  87.069 118.527  0.00  0.00     0.109 C 
ATOM     16  O   LIG d   1       0.377  88.520 116.689  0.00  0.00    -0.276 OA
ATOM     17  H   LIG d   1      -1.231  89.226 119.316  0.00  0.00     0.149 HD
ENDBRANCH   6  13
BRANCH   5  18
ATOM     18  N   LIG d   1       1.502  91.284 117.811  0.00  0.00     0.381 N 
ATOM     19  H   LIG d   1       1.861  91.969 117.176  0.00  0.00    -0.090 HD
ATOM     20  H   LIG d   1       1.402  90.416 117.314  0.00  0.00    -0.090 HD
ATOM     21  H   LIG d   1       2.131  91.167 118.575  0.00  0.00    -0.090 HD
ENDBRANCH   5  18
BRANCH   3  22
ATOM     22  C   LIG d   1      -1.559  94.946 118.209  0.00  0.00     0.382 C 
ATOM     23  O   LIG d   1      -0.717  95.747 117.736  0.00  0.00    -0.241 OA
ATOM     24  O   LIG d   1      -2.530  95.387 118.853  0.00  0.00    -0.241 OA
ENDBRANCH   3  22
TORSDOF 7
ENDMDL
MODEL 8
REMARK VINA RESULT:      -4.1      2.529      4.824
REMARK  7 active torsions:
REMARK  status: ('A' for Active; 'I' for Inactive)
REMARK    1  A    between atoms: C_2  and  C_3 
REMARK    2  A    between atoms: C_3  and  O_6 
REMARK    3  A    between atoms: C_3  and  C_4 
REMARK    4  A    between atoms: C_7  and  O_6 
REMARK    5  A    between atoms: C_9  and  C_10 
REMARK    6  A    between atoms: N_15  and  C_14 
REMARK    7  A    between atoms: N_20  and  C_19 
REMARK       I    between atoms: C_22  and  N_20 
ROOT
ATOM      1  C   LIG d   1       4.312  89.742 116.473  0.00  0.00     0.161 C 
ATOM      2  C   LIG d   1       4.362  91.057 116.963  0.00  0.00     0.016 C 
ATOM      3  C   LIG d   1       3.248  91.722 117.524  0.00  0.00     0.038 C 
ATOM      4  C   LIG d   1       2.037  91.058 117.774  0.00  0.00     0.028 C 
ATOM      5  C   LIG d   1       1.787  89.882 116.836  0.00  0.00    -0.047 C 
ATOM      6  C   LIG d   1       3.031  88.964 116.839  0.00  0.00     0.091 C 
ENDROOT
BRANCH   1   7
ATOM      7  O   LIG d   1       5.480  89.015 116.905  0.00  0.00    -0.368 OA
BRANCH   7   8
ATOM      8  C   LIG d   1       6.271  88.400 115.859  0.00  0.00     0.119 C 
BRANCH   8   9
ATOM      9  C   LIG d   1       7.663  88.099 116.448  0.00  0.00     0.028 C 
ATOM     10  C   LIG d   1       7.811  86.632 116.885  0.00  0.00     0.006 C 
ENDBRANCH   8   9
BRANCH   8  11
ATOM     11  C   LIG d   1       6.521  89.374 114.704  0.00  0.00     0.028 C 
ATOM     12  C   LIG d   1       6.250  88.748 113.327  0.00  0.00     0.006 C 
ENDBRANCH   8  11
ENDBRANCH   7   8
ENDBRANCH   1   7
BRANCH   6  13
ATOM     13  N   LIG d   1       2.903  87.833 115.883  0.00  0.00    -0.311 N 
ATOM     14  C   LIG d   1       2.740  87.997 114.571  0.00  0.00     0.210 C 
ATOM     15  C   LIG d   1       2.609  86.698 113.769  0.00  0.00     0.109 C 
ATOM     16  O   LIG d   1       2.723  89.093 113.992  0.00  0.00    -0.276 OA
ATOM     17  H   LIG d   1       2.937  86.908 116.264  0.00  0.00     0.149 HD
ENDBRANCH   6  13
BRANCH   5  18
ATOM     18  N   LIG d   1       0.563  89.198 117.296  0.00  0.00     0.381 N 
ATOM     19  H   LIG d   1       0.704  88.833 118.216  0.00  0.00    -0.090 HD
ATOM     20  H   LIG d   1       0.368  88.430 116.678  0.00  0.00    -0.090 HD
ATOM     21  H   LIG d   1      -0.203  89.835 117.297  0.00  0.00    -0.090 HD
ENDBRANCH   5  18
BRANCH   3  22
ATOM     22  C   LIG d   1       3.325  93.077 117.806  0.00  0.00     0.382 C 
ATOM     23  O   LIG d   1       2.382  93.649 118.404  0.00  0.00    -0.241 OA
ATOM     24  O   LIG d   1       4.307  93.745 117.430  0.00  0.00    -0.241 OA
ENDBRANCH   3  22
TORSDOF 7
ENDMDL
MODEL 9
REMARK VINA RESULT:      -4.1      2.092      5.042
REMARK  7 active torsions:
REMARK  status: ('A' for Active; 'I' for Inactive)
REMARK    1  A    between atoms: C_2  and  C_3 
REMARK    2  A    between atoms: C_3  and  O_6 
REMARK    3  A    between atoms: C_3  and  C_4 
REMARK    4  A    between atoms: C_7  and  O_6 
REMARK    5  A    between atoms: C_9  and  C_10 
REMARK    6  A    between atoms: N_15  and  C_14 
REMARK    7  A    between atoms: N_20  and  C_19 
REMARK       I    between atoms: C_22  and  N_20 
ROOT
ATOM      1  C   LIG d   1       4.847  89.644 114.706  0.00  0.00     0.161 C 
ATOM      2  C   LIG d   1       3.886  89.209 113.778  0.00  0.00     0.016 C 
ATOM      3  C   LIG d   1       3.477  87.861 113.655  0.00  0.00     0.038 C 
ATOM      4  C   LIG d   1       3.894  86.874 114.560  0.00  0.00     0.028 C 
ATOM      5  C   LIG d   1       5.249  87.168 115.195  0.00  0.00    -0.047 C 
ATOM      6  C   LIG d   1       5.232  88.600 115.776  0.00  0.00     0.091 C 
ENDROOT
BRANCH   1   7
ATOM      7  O   LIG d   1       4.405  90.864 115.332  0.00  0.00    -0.368 OA
BRANCH   7   8
ATOM      8  C   LIG d   1       3.870  90.735 116.672  0.00  0.00     0.119 C 
BRANCH   8   9
ATOM      9  C   LIG d   1       2.334  90.808 116.566  0.00  0.00     0.028 C 
ATOM     10  C   LIG d   1       1.662  89.451 116.835  0.00  0.00     0.006 C 
ENDBRANCH   8   9
BRANCH   8  11
ATOM     11  C   LIG d   1       4.272  91.924 117.549  0.00  0.00     0.028 C 
ATOM     12  C   LIG d   1       3.092  92.856 117.869  0.00  0.00     0.006 C 
ENDBRANCH   8  11
ENDBRANCH   7   8
ENDBRANCH   1   7
BRANCH   6  13
ATOM     13  N   LIG d   1       6.547  88.999 116.341  0.00  0.00    -0.311 N 
ATOM     14  C   LIG d   1       6.865  88.860 117.626  0.00  0.00     0.210 C 
ATOM     15  C   LIG d   1       8.266  89.353 118.003  0.00  0.00     0.109 C 
ATOM     16  O   LIG d   1       6.133  88.345 118.485  0.00  0.00    -0.276 OA
ATOM     17  H   LIG d   1       7.213  89.398 115.708  0.00  0.00     0.149 HD
ENDBRANCH   6  13
BRANCH   5  18
ATOM     18  N   LIG d   1       5.498  86.133 116.216  0.00  0.00     0.381 N 
ATOM     19  H   LIG d   1       4.668  85.983 116.755  0.00  0.00    -0.090 HD
ATOM     20  H   LIG d   1       6.222  86.453 116.834  0.00  0.00    -0.090 HD
ATOM     21  H   LIG d   1       5.776  85.282 115.778  0.00  0.00    -0.090 HD
ENDBRANCH   5  18
BRANCH   3  22
ATOM     22  C   LIG d   1       2.671  87.482 112.592  0.00  0.00     0.382 C 
ATOM     23  O   LIG d   1       1.496  87.097 112.803  0.00  0.00    -0.241 OA
ATOM     24  O   LIG d   1       3.119  87.477 111.430  0.00  0.00    -0.241 OA
ENDBRANCH   3  22
TORSDOF 7
ENDMDL
