MODEL 1
REMARK VINA RESULT:      -4.7      0.000      0.000
REMARK  7 active torsions:
REMARK  status: ('A' for Active; 'I' for Inactive)
REMARK    1  A    between atoms: C_2  and  C_3 
REMARK    2  A    between atoms: C_3  and  O_6 
REMARK    3  A    between atoms: C_3  and  C_4 
REMARK    4  A    between atoms: C_7  and  O_6 
REMARK    5  A    between atoms: C_9  and  C_10 
REMARK    6  A    between atoms: N_15  and  C_14 
REMARK    7  A    between atoms: N_20  and  C_19 
REMARK       I    between atoms: C_22  and  N_20 
ROOT
ATOM      1  C   LIG d   1       3.380  88.255 115.367  0.00  0.00     0.161 C 
ATOM      2  C   LIG d   1       3.992  89.057 116.345  0.00  0.00     0.016 C 
ATOM      3  C   LIG d   1       5.279  89.623 116.194  0.00  0.00     0.038 C 
ATOM      4  C   LIG d   1       5.983  89.550 114.983  0.00  0.00     0.028 C 
ATOM      5  C   LIG d   1       5.623  88.327 114.145  0.00  0.00    -0.047 C 
ATOM      6  C   LIG d   1       4.086  88.257 113.995  0.00  0.00     0.091 C 
ENDROOT
BRANCH   1   7
ATOM      7  O   LIG d   1       1.997  88.636 115.219  0.00  0.00    -0.368 OA
BRANCH   7   8
ATOM      8  C   LIG d   1       1.226  88.723 116.442  0.00  0.00     0.119 C 
BRANCH   8   9
ATOM      9  C   LIG d   1       0.211  87.563 116.433  0.00  0.00     0.028 C 
ATOM     10  C   LIG d   1      -1.084  87.911 117.187  0.00  0.00     0.006 C 
ENDBRANCH   8   9
BRANCH   8  11
ATOM     11  C   LIG d   1       0.382  90.000 116.479  0.00  0.00     0.028 C 
ATOM     12  C   LIG d   1       1.131  91.191 117.098  0.00  0.00     0.006 C 
ENDBRANCH   8  11
ENDBRANCH   7   8
ENDBRANCH   1   7
BRANCH   6  13
ATOM     13  N   LIG d   1       3.643  87.043 113.260  0.00  0.00    -0.311 N 
ATOM     14  C   LIG d   1       2.829  87.080 112.207  0.00  0.00     0.210 C 
ATOM     15  C   LIG d   1       2.482  85.713 111.609  0.00  0.00     0.109 C 
ATOM     16  O   LIG d   1       2.388  88.118 111.690  0.00  0.00    -0.276 OA
ATOM     17  H   LIG d   1       3.979  86.160 113.593  0.00  0.00     0.149 HD
ENDBRANCH   6  13
BRANCH   5  18
ATOM     18  N   LIG d   1       6.325  88.449 112.854  0.00  0.00     0.381 N 
ATOM     19  H   LIG d   1       7.195  87.957 112.894  0.00  0.00    -0.090 HD
ATOM     20  H   LIG d   1       6.519  89.419 112.680  0.00  0.00    -0.090 HD
ATOM     21  H   LIG d   1       5.759  88.079 112.122  0.00  0.00    -0.090 HD
ENDBRANCH   5  18
BRANCH   3  22
ATOM     22  C   LIG d   1       5.891  90.237 117.276  0.00  0.00     0.382 C 
ATOM     23  O   LIG d   1       7.119  90.489 117.241  0.00  0.00    -0.241 OA
ATOM     24  O   LIG d   1       5.239  90.502 118.303  0.00  0.00    -0.241 OA
ENDBRANCH   3  22
TORSDOF 7
ENDMDL
MODEL 2
REMARK VINA RESULT:      -4.6      4.172      7.557
REMARK  7 active torsions:
REMARK  status: ('A' for Active; 'I' for Inactive)
REMARK    1  A    between atoms: C_2  and  C_3 
REMARK    2  A    between atoms: C_3  and  O_6 
REMARK    3  A    between atoms: C_3  and  C_4 
REMARK    4  A    between atoms: C_7  and  O_6 
REMARK    5  A    between atoms: C_9  and  C_10 
REMARK    6  A    between atoms: N_15  and  C_14 
REMARK    7  A    between atoms: N_20  and  C_19 
REMARK       I    between atoms: C_22  and  N_20 
ROOT
ATOM      1  C   LIG d   1      -1.441  88.869 117.562  0.00  0.00     0.161 C 
ATOM      2  C   LIG d   1      -2.816  88.794 117.289  0.00  0.00     0.016 C 
ATOM      3  C   LIG d   1      -3.634  89.930 117.089  0.00  0.00     0.038 C 
ATOM      4  C   LIG d   1      -3.096  91.223 116.999  0.00  0.00     0.028 C 
ATOM      5  C   LIG d   1      -1.791  91.392 117.770  0.00  0.00    -0.047 C 
ATOM      6  C   LIG d   1      -0.816  90.265 117.358  0.00  0.00     0.091 C 
ENDROOT
BRANCH   1   7
ATOM      7  O   LIG d   1      -0.733  87.885 116.783  0.00  0.00    -0.368 OA
BRANCH   7   8
ATOM      8  C   LIG d   1      -0.144  86.788 117.524  0.00  0.00     0.119 C 
BRANCH   8   9
ATOM      9  C   LIG d   1       1.372  86.805 117.250  0.00  0.00     0.028 C 
ATOM     10  C   LIG d   1       1.702  87.207 115.802  0.00  0.00     0.006 C 
ENDBRANCH   8   9
BRANCH   8  11
ATOM     11  C   LIG d   1      -0.635  85.435 117.001  0.00  0.00     0.028 C 
ATOM     12  C   LIG d   1      -1.680  85.572 115.882  0.00  0.00     0.006 C 
ENDBRANCH   8  11
ENDBRANCH   7   8
ENDBRANCH   1   7
BRANCH   6  13
ATOM     13  N   LIG d   1       0.455  90.306 118.127  0.00  0.00    -0.311 N 
ATOM     14  C   LIG d   1       1.646  90.504 117.565  0.00  0.00     0.210 C 
ATOM     15  C   LIG d   1       2.830  90.490 118.537  0.00  0.00     0.109 C 
ATOM     16  O   LIG d   1       1.831  90.721 116.358  0.00  0.00    -0.276 OA
ATOM     17  H   LIG d   1       0.393  90.170 119.117  0.00  0.00     0.149 HD
ENDBRANCH   6  13
BRANCH   5  18
ATOM     18  N   LIG d   1      -1.272  92.741 117.478  0.00  0.00     0.381 N 
ATOM     19  H   LIG d   1      -1.998  93.418 117.606  0.00  0.00    -0.090 HD
ATOM     20  H   LIG d   1      -0.975  92.775 116.519  0.00  0.00    -0.090 HD
ATOM     21  H   LIG d   1      -0.505  92.949 118.079  0.00  0.00    -0.090 HD
ENDBRANCH   5  18
BRANCH   3  22
ATOM     22  C   LIG d   1      -5.010  89.783 117.017  0.00  0.00     0.382 C 
ATOM     23  O   LIG d   1      -5.529  89.224 116.020  0.00  0.00    -0.241 OA
ATOM     24  O   LIG d   1      -5.743  90.241 117.914  0.00  0.00    -0.241 OA
ENDBRANCH   3  22
TORSDOF 7
ENDMDL
MODEL 3
REMARK VINA RESULT:      -4.5      3.646      6.727
REMARK  7 active torsions:
REMARK  status: ('A' for Active; 'I' for Inactive)
REMARK    1  A    between atoms: C_2  and  C_3 
REMARK    2  A    between atoms: C_3  and  O_6 
REMARK    3  A    between atoms: C_3  and  C_4 
REMARK    4  A    between atoms: C_7  and  O_6 
REMARK    5  A    between atoms: C_9  and  C_10 
REMARK    6  A    between atoms: N_15  and  C_14 
REMARK    7  A    between atoms: N_20  and  C_19 
REMARK       I    between atoms: C_22  and  N_20 
ROOT
ATOM      1  C   LIG d   1       0.407  89.883 117.198  0.00  0.00     0.161 C 
ATOM      2  C   LIG d   1      -0.994  89.976 117.155  0.00  0.00     0.016 C 
ATOM      3  C   LIG d   1      -1.707  91.144 117.510  0.00  0.00     0.038 C 
ATOM      4  C   LIG d   1      -1.056  92.354 117.791  0.00  0.00     0.028 C 
ATOM      5  C   LIG d   1       0.356  92.170 118.336  0.00  0.00    -0.047 C 
ATOM      6  C   LIG d   1       1.139  91.227 117.394  0.00  0.00     0.091 C 
ENDROOT
BRANCH   1   7
ATOM      7  O   LIG d   1       0.889  89.218 116.013  0.00  0.00    -0.368 OA
BRANCH   7   8
ATOM      8  C   LIG d   1       1.429  87.888 116.203  0.00  0.00     0.119 C 
BRANCH   8   9
ATOM      9  C   LIG d   1       2.738  87.799 115.394  0.00  0.00     0.028 C 
ATOM     10  C   LIG d   1       3.149  89.153 114.793  0.00  0.00     0.006 C 
ENDBRANCH   8   9
BRANCH   8  11
ATOM     11  C   LIG d   1       0.508  86.821 115.603  0.00  0.00     0.028 C 
ATOM     12  C   LIG d   1      -0.534  86.301 116.606  0.00  0.00     0.006 C 
ENDBRANCH   8  11
ENDBRANCH   7   8
ENDBRANCH   1   7
BRANCH   6  13
ATOM     13  N   LIG d   1       2.504  90.926 117.899  0.00  0.00    -0.311 N 
ATOM     14  C   LIG d   1       3.587  91.613 117.539  0.00  0.00     0.210 C 
ATOM     15  C   LIG d   1       4.899  91.125 118.162  0.00  0.00     0.109 C 
ATOM     16  O   LIG d   1       3.581  92.600 116.789  0.00  0.00    -0.276 OA
ATOM     17  H   LIG d   1       2.596  90.160 118.537  0.00  0.00     0.149 HD
ENDBRANCH   6  13
BRANCH   5  18
ATOM     18  N   LIG d   1       0.967  93.507 118.454  0.00  0.00     0.381 N 
ATOM     19  H   LIG d   1       1.136  93.884 117.542  0.00  0.00    -0.090 HD
ATOM     20  H   LIG d   1       1.848  93.422 118.928  0.00  0.00    -0.090 HD
ATOM     21  H   LIG d   1       0.364  94.114 118.965  0.00  0.00    -0.090 HD
ENDBRANCH   5  18
BRANCH   3  22
ATOM     22  C   LIG d   1      -3.088  91.097 117.627  0.00  0.00     0.382 C 
ATOM     23  O   LIG d   1      -3.633  91.349 118.729  0.00  0.00    -0.241 OA
ATOM     24  O   LIG d   1      -3.793  90.762 116.656  0.00  0.00    -0.241 OA
ENDBRANCH   3  22
TORSDOF 7
ENDMDL
MODEL 4
REMARK VINA RESULT:      -4.4      0.737      1.725
REMARK  7 active torsions:
REMARK  status: ('A' for Active; 'I' for Inactive)
REMARK    1  A    between atoms: C_2  and  C_3 
REMARK    2  A    between atoms: C_3  and  O_6 
REMARK    3  A    between atoms: C_3  and  C_4 
REMARK    4  A    between atoms: C_7  and  O_6 
REMARK    5  A    between atoms: C_9  and  C_10 
REMARK    6  A    between atoms: N_15  and  C_14 
REMARK    7  A    between atoms: N_20  and  C_19 
REMARK       I    between atoms: C_22  and  N_20 
ROOT
ATOM      1  C   LIG d   1       3.397  88.212 115.432  0.00  0.00     0.161 C 
ATOM      2  C   LIG d   1       3.987  89.058 116.386  0.00  0.00     0.016 C 
ATOM      3  C   LIG d   1       5.245  89.676 116.205  0.00  0.00     0.038 C 
ATOM      4  C   LIG d   1       5.935  89.611 114.985  0.00  0.00     0.028 C 
ATOM      5  C   LIG d   1       5.618  88.358 114.176  0.00  0.00    -0.047 C 
ATOM      6  C   LIG d   1       4.083  88.218 114.050  0.00  0.00     0.091 C 
ENDROOT
BRANCH   1   7
ATOM      7  O   LIG d   1       1.997  88.529 115.297  0.00  0.00    -0.368 OA
BRANCH   7   8
ATOM      8  C   LIG d   1       1.067  87.503 115.723  0.00  0.00     0.119 C 
BRANCH   8   9
ATOM      9  C   LIG d   1       0.076  88.156 116.706  0.00  0.00     0.028 C 
ATOM     10  C   LIG d   1       0.129  89.692 116.659  0.00  0.00     0.006 C 
ENDBRANCH   8   9
BRANCH   8  11
ATOM     11  C   LIG d   1       1.775  86.409 116.527  0.00  0.00     0.028 C 
ATOM     12  C   LIG d   1       0.977  85.968 117.764  0.00  0.00     0.006 C 
ENDBRANCH   8  11
ENDBRANCH   7   8
ENDBRANCH   1   7
BRANCH   6  13
ATOM     13  N   LIG d   1       3.684  86.972 113.344  0.00  0.00    -0.311 N 
ATOM     14  C   LIG d   1       2.889  86.958 112.276  0.00  0.00     0.210 C 
ATOM     15  C   LIG d   1       2.586  85.565 111.714  0.00  0.00     0.109 C 
ATOM     16  O   LIG d   1       2.431  87.968 111.721  0.00  0.00    -0.276 OA
ATOM     17  H   LIG d   1       4.035  86.109 113.709  0.00  0.00     0.149 HD
ENDBRANCH   6  13
BRANCH   5  18
ATOM     18  N   LIG d   1       6.296  88.485 112.873  0.00  0.00     0.381 N 
ATOM     19  H   LIG d   1       7.202  88.063 112.920  0.00  0.00    -0.090 HD
ATOM     20  H   LIG d   1       6.413  89.460 112.661  0.00  0.00    -0.090 HD
ATOM     21  H   LIG d   1       5.754  88.046 112.162  0.00  0.00    -0.090 HD
ENDBRANCH   5  18
BRANCH   3  22
ATOM     22  C   LIG d   1       5.845  90.337 117.266  0.00  0.00     0.382 C 
ATOM     23  O   LIG d   1       5.139  90.810 118.190  0.00  0.00    -0.241 OA
ATOM     24  O   LIG d   1       7.079  90.506 117.289  0.00  0.00    -0.241 OA
ENDBRANCH   3  22
TORSDOF 7
ENDMDL
MODEL 5
REMARK VINA RESULT:      -4.4      2.047      5.087
REMARK  7 active torsions:
REMARK  status: ('A' for Active; 'I' for Inactive)
REMARK    1  A    between atoms: C_2  and  C_3 
REMARK    2  A    between atoms: C_3  and  O_6 
REMARK    3  A    between atoms: C_3  and  C_4 
REMARK    4  A    between atoms: C_7  and  O_6 
REMARK    5  A    between atoms: C_9  and  C_10 
REMARK    6  A    between atoms: N_15  and  C_14 
REMARK    7  A    between atoms: N_20  and  C_19 
REMARK       I    between atoms: C_22  and  N_20 
ROOT
ATOM      1  C   LIG d   1       4.554  89.952 114.981  0.00  0.00     0.161 C 
ATOM      2  C   LIG d   1       3.717  89.306 114.056  0.00  0.00     0.016 C 
ATOM      3  C   LIG d   1       3.902  87.966 113.643  0.00  0.00     0.038 C 
ATOM      4  C   LIG d   1       4.853  87.129 114.245  0.00  0.00     0.028 C 
ATOM      5  C   LIG d   1       6.047  87.884 114.820  0.00  0.00    -0.047 C 
ATOM      6  C   LIG d   1       5.530  89.021 115.731  0.00  0.00     0.091 C 
ENDROOT
BRANCH   1   7
ATOM      7  O   LIG d   1       3.759  90.704 115.918  0.00  0.00    -0.368 OA
BRANCH   7   8
ATOM      8  C   LIG d   1       2.510  90.093 116.328  0.00  0.00     0.119 C 
BRANCH   8   9
ATOM      9  C   LIG d   1       1.604  91.214 116.874  0.00  0.00     0.028 C 
ATOM     10  C   LIG d   1       2.374  92.215 117.753  0.00  0.00     0.006 C 
ENDBRANCH   8   9
BRANCH   8  11
ATOM     11  C   LIG d   1       2.719  89.132 117.502  0.00  0.00     0.028 C 
ATOM     12  C   LIG d   1       2.321  87.686 117.166  0.00  0.00     0.006 C 
ENDBRANCH   8  11
ENDBRANCH   7   8
ENDBRANCH   1   7
BRANCH   6  13
ATOM     13  N   LIG d   1       6.631  89.862 116.268  0.00  0.00    -0.311 N 
ATOM     14  C   LIG d   1       7.199  89.656 117.455  0.00  0.00     0.210 C 
ATOM     15  C   LIG d   1       8.303  90.651 117.825  0.00  0.00     0.109 C 
ATOM     16  O   LIG d   1       6.915  88.724 118.222  0.00  0.00    -0.276 OA
ATOM     17  H   LIG d   1       6.945  90.622 115.696  0.00  0.00     0.149 HD
ENDBRANCH   6  13
BRANCH   5  18
ATOM     18  N   LIG d   1       6.889  86.907 115.536  0.00  0.00     0.381 N 
ATOM     19  H   LIG d   1       6.427  86.020 115.566  0.00  0.00    -0.090 HD
ATOM     20  H   LIG d   1       7.025  87.225 116.479  0.00  0.00    -0.090 HD
ATOM     21  H   LIG d   1       7.769  86.816 115.078  0.00  0.00    -0.090 HD
ENDBRANCH   5  18
BRANCH   3  22
ATOM     22  C   LIG d   1       3.155  87.463 112.589  0.00  0.00     0.382 C 
ATOM     23  O   LIG d   1       2.028  86.955 112.804  0.00  0.00    -0.241 OA
ATOM     24  O   LIG d   1       3.612  87.471 111.430  0.00  0.00    -0.241 OA
ENDBRANCH   3  22
TORSDOF 7
ENDMDL
MODEL 6
REMARK VINA RESULT:      -4.3      2.062      4.399
REMARK  7 active torsions:
REMARK  status: ('A' for Active; 'I' for Inactive)
REMARK    1  A    between atoms: C_2  and  C_3 
REMARK    2  A    between atoms: C_3  and  O_6 
REMARK    3  A    between atoms: C_3  and  C_4 
REMARK    4  A    between atoms: C_7  and  O_6 
REMARK    5  A    between atoms: C_9  and  C_10 
REMARK    6  A    between atoms: N_15  and  C_14 
REMARK    7  A    between atoms: N_20  and  C_19 
REMARK       I    between atoms: C_22  and  N_20 
ROOT
ATOM      1  C   LIG d   1       3.106  88.993 116.125  0.00  0.00     0.161 C 
ATOM      2  C   LIG d   1       3.025  88.427 114.842  0.00  0.00     0.016 C 
ATOM      3  C   LIG d   1       4.142  88.264 113.991  0.00  0.00     0.038 C 
ATOM      4  C   LIG d   1       5.451  88.519 114.428  0.00  0.00     0.028 C 
ATOM      5  C   LIG d   1       5.526  89.565 115.536  0.00  0.00    -0.047 C 
ATOM      6  C   LIG d   1       4.541  89.175 116.662  0.00  0.00     0.091 C 
ENDROOT
BRANCH   1   7
ATOM      7  O   LIG d   1       2.319  88.219 117.051  0.00  0.00    -0.368 OA
BRANCH   7   8
ATOM      8  C   LIG d   1       1.250  88.927 117.727  0.00  0.00     0.119 C 
BRANCH   8   9
ATOM      9  C   LIG d   1       0.150  87.899 118.057  0.00  0.00     0.028 C 
ATOM     10  C   LIG d   1      -0.546  87.359 116.796  0.00  0.00     0.006 C 
ENDBRANCH   8   9
BRANCH   8  11
ATOM     11  C   LIG d   1       0.586  89.949 116.800  0.00  0.00     0.028 C 
ATOM     12  C   LIG d   1       0.341  91.303 117.484  0.00  0.00     0.006 C 
ENDBRANCH   8  11
ENDBRANCH   7   8
ENDBRANCH   1   7
BRANCH   6  13
ATOM     13  N   LIG d   1       4.490  90.189 117.747  0.00  0.00    -0.311 N 
ATOM     14  C   LIG d   1       4.102  91.449 117.555  0.00  0.00     0.210 C 
ATOM     15  C   LIG d   1       4.143  92.335 118.804  0.00  0.00     0.109 C 
ATOM     16  O   LIG d   1       3.697  91.908 116.477  0.00  0.00    -0.276 OA
ATOM     17  H   LIG d   1       4.772  89.894 118.661  0.00  0.00     0.149 HD
ENDBRANCH   6  13
BRANCH   5  18
ATOM     18  N   LIG d   1       6.927  89.632 115.991  0.00  0.00     0.381 N 
ATOM     19  H   LIG d   1       7.541  89.424 115.229  0.00  0.00    -0.090 HD
ATOM     20  H   LIG d   1       7.070  88.942 116.707  0.00  0.00    -0.090 HD
ATOM     21  H   LIG d   1       7.126  90.539 116.350  0.00  0.00    -0.090 HD
ENDBRANCH   5  18
BRANCH   3  22
ATOM     22  C   LIG d   1       3.952  87.879 112.673  0.00  0.00     0.382 C 
ATOM     23  O   LIG d   1       4.913  87.422 112.008  0.00  0.00    -0.241 OA
ATOM     24  O   LIG d   1       2.842  88.023 112.126  0.00  0.00    -0.241 OA
ENDBRANCH   3  22
TORSDOF 7
ENDMDL
MODEL 7
REMARK VINA RESULT:      -4.2      1.373      2.259
REMARK  7 active torsions:
REMARK  status: ('A' for Active; 'I' for Inactive)
REMARK    1  A    between atoms: C_2  and  C_3 
REMARK    2  A    between atoms: C_3  and  O_6 
REMARK    3  A    between atoms: C_3  and  C_4 
REMARK    4  A    between atoms: C_7  and  O_6 
REMARK    5  A    between atoms: C_9  and  C_10 
REMARK    6  A    between atoms: N_15  and  C_14 
REMARK    7  A    between atoms: N_20  and  C_19 
REMARK       I    between atoms: C_22  and  N_20 
ROOT
ATOM      1  C   LIG d   1       4.598  87.922 116.269  0.00  0.00     0.161 C 
ATOM      2  C   LIG d   1       5.507  88.550 117.136  0.00  0.00     0.016 C 
ATOM      3  C   LIG d   1       6.525  89.426 116.694  0.00  0.00     0.038 C 
ATOM      4  C   LIG d   1       6.608  89.854 115.361  0.00  0.00     0.028 C 
ATOM      5  C   LIG d   1       6.027  88.854 114.367  0.00  0.00    -0.047 C 
ATOM      6  C   LIG d   1       4.603  88.463 114.824  0.00  0.00     0.091 C 
ENDROOT
BRANCH   1   7
ATOM      7  O   LIG d   1       3.269  87.987 116.823  0.00  0.00    -0.368 OA
BRANCH   7   8
ATOM      8  C   LIG d   1       2.447  89.094 116.380  0.00  0.00     0.119 C 
BRANCH   8   9
ATOM      9  C   LIG d   1       2.456  90.154 117.497  0.00  0.00     0.028 C 
ATOM     10  C   LIG d   1       3.133  91.464 117.058  0.00  0.00     0.006 C 
ENDBRANCH   8   9
BRANCH   8  11
ATOM     11  C   LIG d   1       0.981  88.675 116.231  0.00  0.00     0.028 C 
ATOM     12  C   LIG d   1       0.820  87.190 115.866  0.00  0.00     0.006 C 
ENDBRANCH   8  11
ENDBRANCH   7   8
ENDBRANCH   1   7
BRANCH   6  13
ATOM     13  N   LIG d   1       3.994  87.424 113.952  0.00  0.00    -0.311 N 
ATOM     14  C   LIG d   1       3.195  87.706 112.924  0.00  0.00     0.210 C 
ATOM     15  C   LIG d   1       2.658  86.486 112.169  0.00  0.00     0.109 C 
ATOM     16  O   LIG d   1       2.907  88.851 112.546  0.00  0.00    -0.276 OA
ATOM     17  H   LIG d   1       4.200  86.469 114.169  0.00  0.00     0.149 HD
ENDBRANCH   6  13
BRANCH   5  18
ATOM     18  N   LIG d   1       6.053  89.485 113.034  0.00  0.00     0.381 N 
ATOM     19  H   LIG d   1       6.965  89.391 112.633  0.00  0.00    -0.090 HD
ATOM     20  H   LIG d   1       5.852  90.464 113.133  0.00  0.00    -0.090 HD
ATOM     21  H   LIG d   1       5.376  89.058 112.441  0.00  0.00    -0.090 HD
ENDBRANCH   5  18
BRANCH   3  22
ATOM     22  C   LIG d   1       7.499  89.852 117.585  0.00  0.00     0.382 C 
ATOM     23  O   LIG d   1       7.404  89.565 118.802  0.00  0.00    -0.241 OA
ATOM     24  O   LIG d   1       8.447  90.558 117.193  0.00  0.00    -0.241 OA
ENDBRANCH   3  22
TORSDOF 7
ENDMDL
MODEL 8
REMARK VINA RESULT:      -4.2      3.673      6.576
REMARK  7 active torsions:
REMARK  status: ('A' for Active; 'I' for Inactive)
REMARK    1  A    between atoms: C_2  and  C_3 
REMARK    2  A    between atoms: C_3  and  O_6 
REMARK    3  A    between atoms: C_3  and  C_4 
REMARK    4  A    between atoms: C_7  and  O_6 
REMARK    5  A    between atoms: C_9  and  C_10 
REMARK    6  A    between atoms: N_15  and  C_14 
REMARK    7  A    between atoms: N_20  and  C_19 
REMARK       I    between atoms: C_22  and  N_20 
ROOT
ATOM      1  C   LIG d   1       0.344  89.847 117.159  0.00  0.00     0.161 C 
ATOM      2  C   LIG d   1      -1.056  89.962 117.147  0.00  0.00     0.016 C 
ATOM      3  C   LIG d   1      -1.743  91.138 117.525  0.00  0.00     0.038 C 
ATOM      4  C   LIG d   1      -1.067  92.336 117.799  0.00  0.00     0.028 C 
ATOM      5  C   LIG d   1       0.354  92.127 118.313  0.00  0.00    -0.047 C 
ATOM      6  C   LIG d   1       1.101  91.178 117.348  0.00  0.00     0.091 C 
ENDROOT
BRANCH   1   7
ATOM      7  O   LIG d   1       0.790  89.183 115.960  0.00  0.00    -0.368 OA
BRANCH   7   8
ATOM      8  C   LIG d   1       1.401  87.882 116.142  0.00  0.00     0.119 C 
BRANCH   8   9
ATOM      9  C   LIG d   1       1.195  87.475 117.614  0.00  0.00     0.028 C 
ATOM     10  C   LIG d   1       0.240  86.279 117.764  0.00  0.00     0.006 C 
ENDBRANCH   8   9
BRANCH   8  11
ATOM     11  C   LIG d   1       2.919  87.947 115.948  0.00  0.00     0.028 C 
ATOM     12  C   LIG d   1       3.699  87.467 117.182  0.00  0.00     0.006 C 
ENDBRANCH   8  11
ENDBRANCH   7   8
ENDBRANCH   1   7
BRANCH   6  13
ATOM     13  N   LIG d   1       2.472  90.853 117.821  0.00  0.00    -0.311 N 
ATOM     14  C   LIG d   1       3.554  91.543 117.465  0.00  0.00     0.210 C 
ATOM     15  C   LIG d   1       4.872  91.028 118.051  0.00  0.00     0.109 C 
ATOM     16  O   LIG d   1       3.543  92.553 116.745  0.00  0.00    -0.276 OA
ATOM     17  H   LIG d   1       2.568  90.067 118.434  0.00  0.00     0.149 HD
ENDBRANCH   6  13
BRANCH   5  18
ATOM     18  N   LIG d   1       0.987  93.454 118.425  0.00  0.00     0.381 N 
ATOM     19  H   LIG d   1       0.443  94.132 117.931  0.00  0.00    -0.090 HD
ATOM     20  H   LIG d   1       1.900  93.415 118.005  0.00  0.00    -0.090 HD
ATOM     21  H   LIG d   1       1.066  93.715 119.383  0.00  0.00    -0.090 HD
ENDBRANCH   5  18
BRANCH   3  22
ATOM     22  C   LIG d   1      -3.122  91.112 117.672  0.00  0.00     0.382 C 
ATOM     23  O   LIG d   1      -3.852  90.860 116.683  0.00  0.00    -0.241 OA
ATOM     24  O   LIG d   1      -3.646  91.379 118.769  0.00  0.00    -0.241 OA
ENDBRANCH   3  22
TORSDOF 7
ENDMDL
MODEL 9
REMARK VINA RESULT:      -4.2      2.147      4.807
REMARK  7 active torsions:
REMARK  status: ('A' for Active; 'I' for Inactive)
REMARK    1  A    between atoms: C_2  and  C_3 
REMARK    2  A    between atoms: C_3  and  O_6 
REMARK    3  A    between atoms: C_3  and  C_4 
REMARK    4  A    between atoms: C_7  and  O_6 
REMARK    5  A    between atoms: C_9  and  C_10 
REMARK    6  A    between atoms: N_15  and  C_14 
REMARK    7  A    between atoms: N_20  and  C_19 
REMARK       I    between atoms: C_22  and  N_20 
ROOT
ATOM      1  C   LIG d   1       4.550  90.016 115.501  0.00  0.00     0.161 C 
ATOM      2  C   LIG d   1       4.120  89.527 114.257  0.00  0.00     0.016 C 
ATOM      3  C   LIG d   1       4.167  88.159 113.899  0.00  0.00     0.038 C 
ATOM      4  C   LIG d   1       4.509  87.162 114.825  0.00  0.00     0.028 C 
ATOM      5  C   LIG d   1       5.432  87.657 115.934  0.00  0.00    -0.047 C 
ATOM      6  C   LIG d   1       4.822  88.930 116.564  0.00  0.00     0.091 C 
ENDROOT
BRANCH   1   7
ATOM      7  O   LIG d   1       3.603  90.980 116.002  0.00  0.00    -0.368 OA
BRANCH   7   8
ATOM      8  C   LIG d   1       2.725  90.521 117.060  0.00  0.00     0.119 C 
BRANCH   8   9
ATOM      9  C   LIG d   1       1.355  90.215 116.425  0.00  0.00     0.028 C 
ATOM     10  C   LIG d   1       1.030  88.712 116.429  0.00  0.00     0.006 C 
ENDBRANCH   8   9
BRANCH   8  11
ATOM     11  C   LIG d   1       2.460  91.630 118.082  0.00  0.00     0.028 C 
ATOM     12  C   LIG d   1       3.740  92.365 118.511  0.00  0.00     0.006 C 
ENDBRANCH   8  11
ENDBRANCH   7   8
ENDBRANCH   1   7
BRANCH   6  13
ATOM     13  N   LIG d   1       5.704  89.527 117.601  0.00  0.00    -0.311 N 
ATOM     14  C   LIG d   1       6.916  90.013 117.342  0.00  0.00     0.210 C 
ATOM     15  C   LIG d   1       7.666  90.564 118.558  0.00  0.00     0.109 C 
ATOM     16  O   LIG d   1       7.429  90.069 116.214  0.00  0.00    -0.276 OA
ATOM     17  H   LIG d   1       5.353  89.550 118.539  0.00  0.00     0.149 HD
ENDBRANCH   6  13
BRANCH   5  18
ATOM     18  N   LIG d   1       5.596  86.555 116.901  0.00  0.00     0.381 N 
ATOM     19  H   LIG d   1       5.543  86.912 117.834  0.00  0.00    -0.090 HD
ATOM     20  H   LIG d   1       6.503  86.142 116.772  0.00  0.00    -0.090 HD
ATOM     21  H   LIG d   1       4.887  85.869 116.760  0.00  0.00    -0.090 HD
ENDBRANCH   5  18
BRANCH   3  22
ATOM     22  C   LIG d   1       3.907  87.782 112.591  0.00  0.00     0.382 C 
ATOM     23  O   LIG d   1       4.811  87.252 111.900  0.00  0.00    -0.241 OA
ATOM     24  O   LIG d   1       2.794  88.005 112.078  0.00  0.00    -0.241 OA
ENDBRANCH   3  22
TORSDOF 7
ENDMDL
