MODEL 1
REMARK VINA RESULT:      -5.2      0.000      0.000
REMARK  7 active torsions:
REMARK  status: ('A' for Active; 'I' for Inactive)
REMARK    1  A    between atoms: C_2  and  C_3 
REMARK    2  A    between atoms: C_3  and  O_6 
REMARK    3  A    between atoms: C_3  and  C_4 
REMARK    4  A    between atoms: C_7  and  O_6 
REMARK    5  A    between atoms: C_9  and  C_10 
REMARK    6  A    between atoms: N_15  and  C_14 
REMARK    7  A    between atoms: N_20  and  C_19 
REMARK       I    between atoms: C_22  and  N_20 
ROOT
ATOM      1  C   LIG d   1       4.720  89.649 114.660  0.00  0.00     0.161 C 
ATOM      2  C   LIG d   1       3.974  88.933 113.709  0.00  0.00     0.016 C 
ATOM      3  C   LIG d   1       4.209  87.574 113.398  0.00  0.00     0.038 C 
ATOM      4  C   LIG d   1       5.113  86.792 114.132  0.00  0.00     0.028 C 
ATOM      5  C   LIG d   1       6.243  87.601 114.760  0.00  0.00    -0.047 C 
ATOM      6  C   LIG d   1       5.636  88.783 115.549  0.00  0.00     0.091 C 
ENDROOT
BRANCH   1   7
ATOM      7  O   LIG d   1       3.836  90.444 115.475  0.00  0.00    -0.368 OA
BRANCH   7   8
ATOM      8  C   LIG d   1       3.295  89.793 116.651  0.00  0.00     0.119 C 
BRANCH   8   9
ATOM      9  C   LIG d   1       1.790  89.573 116.407  0.00  0.00     0.028 C 
ATOM     10  C   LIG d   1       0.921  90.633 117.104  0.00  0.00     0.006 C 
ENDBRANCH   8   9
BRANCH   8  11
ATOM     11  C   LIG d   1       3.378  90.703 117.880  0.00  0.00     0.028 C 
ATOM     12  C   LIG d   1       4.317  91.901 117.672  0.00  0.00     0.006 C 
ENDBRANCH   8  11
ENDBRANCH   7   8
ENDBRANCH   1   7
BRANCH   6  13
ATOM     13  N   LIG d   1       6.676  89.674 116.126  0.00  0.00    -0.311 N 
ATOM     14  C   LIG d   1       7.128  89.562 117.374  0.00  0.00     0.210 C 
ATOM     15  C   LIG d   1       8.187  90.594 117.774  0.00  0.00     0.109 C 
ATOM     16  O   LIG d   1       6.775  88.685 118.178  0.00  0.00    -0.276 OA
ATOM     17  H   LIG d   1       7.040  90.394 115.533  0.00  0.00     0.149 HD
ENDBRANCH   6  13
BRANCH   5  18
ATOM     18  N   LIG d   1       7.030  86.684 115.607  0.00  0.00     0.381 N 
ATOM     19  H   LIG d   1       7.762  86.267 115.066  0.00  0.00    -0.090 HD
ATOM     20  H   LIG d   1       6.428  85.952 115.940  0.00  0.00    -0.090 HD
ATOM     21  H   LIG d   1       7.419  87.181 116.378  0.00  0.00    -0.090 HD
ENDBRANCH   5  18
BRANCH   3  22
ATOM     22  C   LIG d   1       3.564  86.995 112.317  0.00  0.00     0.382 C 
ATOM     23  O   LIG d   1       4.106  86.048 111.697  0.00  0.00    -0.241 OA
ATOM     24  O   LIG d   1       2.467  87.436 111.925  0.00  0.00    -0.241 OA
ENDBRANCH   3  22
TORSDOF 7
ENDMDL
MODEL 2
REMARK VINA RESULT:      -4.5      2.397      5.472
REMARK  7 active torsions:
REMARK  status: ('A' for Active; 'I' for Inactive)
REMARK    1  A    between atoms: C_2  and  C_3 
REMARK    2  A    between atoms: C_3  and  O_6 
REMARK    3  A    between atoms: C_3  and  C_4 
REMARK    4  A    between atoms: C_7  and  O_6 
REMARK    5  A    between atoms: C_9  and  C_10 
REMARK    6  A    between atoms: N_15  and  C_14 
REMARK    7  A    between atoms: N_20  and  C_19 
REMARK       I    between atoms: C_22  and  N_20 
ROOT
ATOM      1  C   LIG d   1       5.313  86.636 115.801  0.00  0.00     0.161 C 
ATOM      2  C   LIG d   1       5.990  87.319 116.825  0.00  0.00     0.016 C 
ATOM      3  C   LIG d   1       6.356  88.682 116.741  0.00  0.00     0.038 C 
ATOM      4  C   LIG d   1       5.933  89.500 115.682  0.00  0.00     0.028 C 
ATOM      5  C   LIG d   1       5.682  88.733 114.388  0.00  0.00    -0.047 C 
ATOM      6  C   LIG d   1       4.746  87.540 114.686  0.00  0.00     0.091 C 
ENDROOT
BRANCH   1   7
ATOM      7  O   LIG d   1       4.267  85.821 116.366  0.00  0.00    -0.368 OA
BRANCH   7   8
ATOM      8  C   LIG d   1       2.952  86.427 116.431  0.00  0.00     0.119 C 
BRANCH   8   9
ATOM      9  C   LIG d   1       2.673  86.769 117.907  0.00  0.00     0.028 C 
ATOM     10  C   LIG d   1       2.639  88.285 118.162  0.00  0.00     0.006 C 
ENDBRANCH   8   9
BRANCH   8  11
ATOM     11  C   LIG d   1       1.859  85.430 116.032  0.00  0.00     0.028 C 
ATOM     12  C   LIG d   1       0.795  86.050 115.112  0.00  0.00     0.006 C 
ENDBRANCH   8  11
ENDBRANCH   7   8
ENDBRANCH   1   7
BRANCH   6  13
ATOM     13  N   LIG d   1       4.516  86.688 113.490  0.00  0.00    -0.311 N 
ATOM     14  C   LIG d   1       3.585  86.947 112.573  0.00  0.00     0.210 C 
ATOM     15  C   LIG d   1       3.502  85.930 111.430  0.00  0.00     0.109 C 
ATOM     16  O   LIG d   1       2.842  87.940 112.580  0.00  0.00    -0.276 OA
ATOM     17  H   LIG d   1       5.095  85.878 113.388  0.00  0.00     0.149 HD
ENDBRANCH   6  13
BRANCH   5  18
ATOM     18  N   LIG d   1       5.116  89.682 113.411  0.00  0.00     0.381 N 
ATOM     19  H   LIG d   1       4.540  89.191 112.756  0.00  0.00    -0.090 HD
ATOM     20  H   LIG d   1       5.869  90.115 112.905  0.00  0.00    -0.090 HD
ATOM     21  H   LIG d   1       4.579  90.377 113.881  0.00  0.00    -0.090 HD
ENDBRANCH   5  18
BRANCH   3  22
ATOM     22  C   LIG d   1       7.188  89.230 117.705  0.00  0.00     0.382 C 
ATOM     23  O   LIG d   1       6.728  89.531 118.833  0.00  0.00    -0.241 OA
ATOM     24  O   LIG d   1       8.383  89.470 117.446  0.00  0.00    -0.241 OA
ENDBRANCH   3  22
TORSDOF 7
ENDMDL
MODEL 3
REMARK VINA RESULT:      -4.4      2.524      5.304
REMARK  7 active torsions:
REMARK  status: ('A' for Active; 'I' for Inactive)
REMARK    1  A    between atoms: C_2  and  C_3 
REMARK    2  A    between atoms: C_3  and  O_6 
REMARK    3  A    between atoms: C_3  and  C_4 
REMARK    4  A    between atoms: C_7  and  O_6 
REMARK    5  A    between atoms: C_9  and  C_10 
REMARK    6  A    between atoms: N_15  and  C_14 
REMARK    7  A    between atoms: N_20  and  C_19 
REMARK       I    between atoms: C_22  and  N_20 
ROOT
ATOM      1  C   LIG d   1       2.666  88.569 116.292  0.00  0.00     0.161 C 
ATOM      2  C   LIG d   1       1.621  89.475 116.541  0.00  0.00     0.016 C 
ATOM      3  C   LIG d   1       1.826  90.777 117.052  0.00  0.00     0.038 C 
ATOM      4  C   LIG d   1       3.111  91.319 117.208  0.00  0.00     0.028 C 
ATOM      5  C   LIG d   1       4.187  90.266 117.447  0.00  0.00    -0.047 C 
ATOM      6  C   LIG d   1       4.081  89.181 116.351  0.00  0.00     0.091 C 
ENDROOT
BRANCH   1   7
ATOM      7  O   LIG d   1       2.455  87.917 115.024  0.00  0.00    -0.368 OA
BRANCH   7   8
ATOM      8  C   LIG d   1       2.384  86.470 115.055  0.00  0.00     0.119 C 
BRANCH   8   9
ATOM      9  C   LIG d   1       2.347  85.976 113.596  0.00  0.00     0.028 C 
ATOM     10  C   LIG d   1       3.246  86.814 112.671  0.00  0.00     0.006 C 
ENDBRANCH   8   9
BRANCH   8  11
ATOM     11  C   LIG d   1       1.070  85.990 115.679  0.00  0.00     0.028 C 
ATOM     12  C   LIG d   1      -0.009  85.680 114.629  0.00  0.00     0.006 C 
ENDBRANCH   8  11
ENDBRANCH   7   8
ENDBRANCH   1   7
BRANCH   6  13
ATOM     13  N   LIG d   1       5.044  88.069 116.559  0.00  0.00    -0.311 N 
ATOM     14  C   LIG d   1       5.868  87.626 115.611  0.00  0.00     0.210 C 
ATOM     15  C   LIG d   1       6.765  86.456 116.028  0.00  0.00     0.109 C 
ATOM     16  O   LIG d   1       5.964  88.111 114.473  0.00  0.00    -0.276 OA
ATOM     17  H   LIG d   1       5.055  87.638 117.462  0.00  0.00     0.149 HD
ENDBRANCH   6  13
BRANCH   5  18
ATOM     18  N   LIG d   1       5.491  90.955 117.454  0.00  0.00     0.381 N 
ATOM     19  H   LIG d   1       6.080  90.558 118.159  0.00  0.00    -0.090 HD
ATOM     20  H   LIG d   1       5.345  91.924 117.674  0.00  0.00    -0.090 HD
ATOM     21  H   LIG d   1       5.926  90.871 116.562  0.00  0.00    -0.090 HD
ENDBRANCH   5  18
BRANCH   3  22
ATOM     22  C   LIG d   1       0.738  91.538 117.451  0.00  0.00     0.382 C 
ATOM     23  O   LIG d   1      -0.407  91.025 117.485  0.00  0.00    -0.241 OA
ATOM     24  O   LIG d   1       0.879  92.742 117.735  0.00  0.00    -0.241 OA
ENDBRANCH   3  22
TORSDOF 7
ENDMDL
MODEL 4
REMARK VINA RESULT:      -4.2      2.279      4.959
REMARK  7 active torsions:
REMARK  status: ('A' for Active; 'I' for Inactive)
REMARK    1  A    between atoms: C_2  and  C_3 
REMARK    2  A    between atoms: C_3  and  O_6 
REMARK    3  A    between atoms: C_3  and  C_4 
REMARK    4  A    between atoms: C_7  and  O_6 
REMARK    5  A    between atoms: C_9  and  C_10 
REMARK    6  A    between atoms: N_15  and  C_14 
REMARK    7  A    between atoms: N_20  and  C_19 
REMARK       I    between atoms: C_22  and  N_20 
ROOT
ATOM      1  C   LIG d   1       2.995  89.195 116.151  0.00  0.00     0.161 C 
ATOM      2  C   LIG d   1       1.842  89.983 116.308  0.00  0.00     0.016 C 
ATOM      3  C   LIG d   1       1.767  91.085 117.189  0.00  0.00     0.038 C 
ATOM      4  C   LIG d   1       2.895  91.571 117.868  0.00  0.00     0.028 C 
ATOM      5  C   LIG d   1       3.952  90.503 118.128  0.00  0.00    -0.047 C 
ATOM      6  C   LIG d   1       4.269  89.777 116.800  0.00  0.00     0.091 C 
ENDROOT
BRANCH   1   7
ATOM      7  O   LIG d   1       3.221  88.932 114.753  0.00  0.00    -0.368 OA
BRANCH   7   8
ATOM      8  C   LIG d   1       3.145  87.543 114.345  0.00  0.00     0.119 C 
BRANCH   8   9
ATOM      9  C   LIG d   1       2.598  86.739 115.541  0.00  0.00     0.028 C 
ATOM     10  C   LIG d   1       1.208  86.143 115.260  0.00  0.00     0.006 C 
ENDBRANCH   8   9
BRANCH   8  11
ATOM     11  C   LIG d   1       4.537  86.966 114.071  0.00  0.00     0.028 C 
ATOM     12  C   LIG d   1       5.468  87.965 113.365  0.00  0.00     0.006 C 
ENDBRANCH   8  11
ENDBRANCH   7   8
ENDBRANCH   1   7
BRANCH   6  13
ATOM     13  N   LIG d   1       5.232  88.660 116.981  0.00  0.00    -0.311 N 
ATOM     14  C   LIG d   1       6.552  88.807 116.882  0.00  0.00     0.210 C 
ATOM     15  C   LIG d   1       7.363  87.523 117.084  0.00  0.00     0.109 C 
ATOM     16  O   LIG d   1       7.130  89.885 116.678  0.00  0.00    -0.276 OA
ATOM     17  H   LIG d   1       4.850  87.756 117.180  0.00  0.00     0.149 HD
ENDBRANCH   6  13
BRANCH   5  18
ATOM     18  N   LIG d   1       5.127  91.172 118.716  0.00  0.00     0.381 N 
ATOM     19  H   LIG d   1       5.499  91.837 118.066  0.00  0.00    -0.090 HD
ATOM     20  H   LIG d   1       5.835  90.483 118.901  0.00  0.00    -0.090 HD
ATOM     21  H   LIG d   1       4.870  91.632 119.561  0.00  0.00    -0.090 HD
ENDBRANCH   5  18
BRANCH   3  22
ATOM     22  C   LIG d   1       0.543  91.690 117.430  0.00  0.00     0.382 C 
ATOM     23  O   LIG d   1       0.481  92.930 117.613  0.00  0.00    -0.241 OA
ATOM     24  O   LIG d   1      -0.495  91.006 117.511  0.00  0.00    -0.241 OA
ENDBRANCH   3  22
TORSDOF 7
ENDMDL
MODEL 5
REMARK VINA RESULT:      -4.2      3.780      6.722
REMARK  7 active torsions:
REMARK  status: ('A' for Active; 'I' for Inactive)
REMARK    1  A    between atoms: C_2  and  C_3 
REMARK    2  A    between atoms: C_3  and  O_6 
REMARK    3  A    between atoms: C_3  and  C_4 
REMARK    4  A    between atoms: C_7  and  O_6 
REMARK    5  A    between atoms: C_9  and  C_10 
REMARK    6  A    between atoms: N_15  and  C_14 
REMARK    7  A    between atoms: N_20  and  C_19 
REMARK       I    between atoms: C_22  and  N_20 
ROOT
ATOM      1  C   LIG d   1       1.366  89.997 116.402  0.00  0.00     0.161 C 
ATOM      2  C   LIG d   1       2.747  90.215 116.535  0.00  0.00     0.016 C 
ATOM      3  C   LIG d   1       3.301  91.193 117.393  0.00  0.00     0.038 C 
ATOM      4  C   LIG d   1       2.512  91.922 118.295  0.00  0.00     0.028 C 
ATOM      5  C   LIG d   1       1.067  92.091 117.836  0.00  0.00    -0.047 C 
ATOM      6  C   LIG d   1       0.494  90.705 117.460  0.00  0.00     0.091 C 
ENDROOT
BRANCH   1   7
ATOM      7  O   LIG d   1       1.094  88.581 116.395  0.00  0.00    -0.368 OA
BRANCH   7   8
ATOM      8  C   LIG d   1       2.247  87.710 116.492  0.00  0.00     0.119 C 
BRANCH   8   9
ATOM      9  C   LIG d   1       2.051  86.568 115.476  0.00  0.00     0.028 C 
ATOM     10  C   LIG d   1       2.984  86.697 114.260  0.00  0.00     0.006 C 
ENDBRANCH   8   9
BRANCH   8  11
ATOM     11  C   LIG d   1       2.317  87.027 117.861  0.00  0.00     0.028 C 
ATOM     12  C   LIG d   1       3.724  87.071 118.477  0.00  0.00     0.006 C 
ENDBRANCH   8  11
ENDBRANCH   7   8
ENDBRANCH   1   7
BRANCH   6  13
ATOM     13  N   LIG d   1      -0.888  90.790 116.921  0.00  0.00    -0.311 N 
ATOM     14  C   LIG d   1      -1.975  90.803 117.690  0.00  0.00     0.210 C 
ATOM     15  C   LIG d   1      -3.304  90.876 116.930  0.00  0.00     0.109 C 
ATOM     16  O   LIG d   1      -1.965  90.794 118.930  0.00  0.00    -0.276 OA
ATOM     17  H   LIG d   1      -0.987  90.833 115.925  0.00  0.00     0.149 HD
ENDBRANCH   6  13
BRANCH   5  18
ATOM     18  N   LIG d   1       0.326  92.746 118.930  0.00  0.00     0.381 N 
ATOM     19  H   LIG d   1      -0.443  92.171 119.210  0.00  0.00    -0.090 HD
ATOM     20  H   LIG d   1      -0.040  93.621 118.596  0.00  0.00    -0.090 HD
ATOM     21  H   LIG d   1       0.931  92.905 119.705  0.00  0.00    -0.090 HD
ENDBRANCH   5  18
BRANCH   3  22
ATOM     22  C   LIG d   1       4.656  91.479 117.324  0.00  0.00     0.382 C 
ATOM     23  O   LIG d   1       5.440  90.672 116.768  0.00  0.00    -0.241 OA
ATOM     24  O   LIG d   1       5.112  92.512 117.851  0.00  0.00    -0.241 OA
ENDBRANCH   3  22
TORSDOF 7
ENDMDL
MODEL 6
REMARK VINA RESULT:      -3.8      2.807      5.902
REMARK  7 active torsions:
REMARK  status: ('A' for Active; 'I' for Inactive)
REMARK    1  A    between atoms: C_2  and  C_3 
REMARK    2  A    between atoms: C_3  and  O_6 
REMARK    3  A    between atoms: C_3  and  C_4 
REMARK    4  A    between atoms: C_7  and  O_6 
REMARK    5  A    between atoms: C_9  and  C_10 
REMARK    6  A    between atoms: N_15  and  C_14 
REMARK    7  A    between atoms: N_20  and  C_19 
REMARK       I    between atoms: C_22  and  N_20 
ROOT
ATOM      1  C   LIG d   1       2.775  88.937 115.483  0.00  0.00     0.161 C 
ATOM      2  C   LIG d   1       3.606  89.947 115.996  0.00  0.00     0.016 C 
ATOM      3  C   LIG d   1       3.977  90.033 117.357  0.00  0.00     0.038 C 
ATOM      4  C   LIG d   1       3.663  89.021 118.277  0.00  0.00     0.028 C 
ATOM      5  C   LIG d   1       2.403  88.243 117.914  0.00  0.00    -0.047 C 
ATOM      6  C   LIG d   1       2.514  87.762 116.449  0.00  0.00     0.091 C 
ENDROOT
BRANCH   1   7
ATOM      7  O   LIG d   1       3.310  88.450 114.236  0.00  0.00    -0.368 OA
BRANCH   7   8
ATOM      8  C   LIG d   1       4.738  88.206 114.207  0.00  0.00     0.119 C 
BRANCH   8   9
ATOM      9  C   LIG d   1       5.113  87.820 112.763  0.00  0.00     0.028 C 
ATOM     10  C   LIG d   1       4.366  86.565 112.279  0.00  0.00     0.006 C 
ENDBRANCH   8   9
BRANCH   8  11
ATOM     11  C   LIG d   1       5.113  86.991 115.062  0.00  0.00     0.028 C 
ATOM     12  C   LIG d   1       6.399  87.209 115.875  0.00  0.00     0.006 C 
ENDBRANCH   8  11
ENDBRANCH   7   8
ENDBRANCH   1   7
BRANCH   6  13
ATOM     13  N   LIG d   1       1.286  87.064 115.987  0.00  0.00    -0.311 N 
ATOM     14  C   LIG d   1       1.305  85.996 115.192  0.00  0.00     0.210 C 
ATOM     15  C   LIG d   1      -0.074  85.443 114.819  0.00  0.00     0.109 C 
ATOM     16  O   LIG d   1       2.334  85.434 114.787  0.00  0.00    -0.276 OA
ATOM     17  H   LIG d   1       0.408  87.435 116.294  0.00  0.00     0.149 HD
ENDBRANCH   6  13
BRANCH   5  18
ATOM     18  N   LIG d   1       2.270  87.135 118.878  0.00  0.00     0.381 N 
ATOM     19  H   LIG d   1       1.582  87.365 119.567  0.00  0.00    -0.090 HD
ATOM     20  H   LIG d   1       3.150  87.003 119.344  0.00  0.00    -0.090 HD
ATOM     21  H   LIG d   1       2.009  86.299 118.403  0.00  0.00    -0.090 HD
ENDBRANCH   5  18
BRANCH   3  22
ATOM     22  C   LIG d   1       4.637  91.162 117.819  0.00  0.00     0.382 C 
ATOM     23  O   LIG d   1       4.633  92.214 117.137  0.00  0.00    -0.241 OA
ATOM     24  O   LIG d   1       5.274  91.127 118.889  0.00  0.00    -0.241 OA
ENDBRANCH   3  22
TORSDOF 7
ENDMDL
MODEL 7
REMARK VINA RESULT:      -3.8      2.703      5.829
REMARK  7 active torsions:
REMARK  status: ('A' for Active; 'I' for Inactive)
REMARK    1  A    between atoms: C_2  and  C_3 
REMARK    2  A    between atoms: C_3  and  O_6 
REMARK    3  A    between atoms: C_3  and  C_4 
REMARK    4  A    between atoms: C_7  and  O_6 
REMARK    5  A    between atoms: C_9  and  C_10 
REMARK    6  A    between atoms: N_15  and  C_14 
REMARK    7  A    between atoms: N_20  and  C_19 
REMARK       I    between atoms: C_22  and  N_20 
ROOT
ATOM      1  C   LIG d   1       5.298  89.067 116.777  0.00  0.00     0.161 C 
ATOM      2  C   LIG d   1       6.685  89.079 116.999  0.00  0.00     0.016 C 
ATOM      3  C   LIG d   1       7.337  90.046 117.798  0.00  0.00     0.038 C 
ATOM      4  C   LIG d   1       6.622  90.984 118.558  0.00  0.00     0.028 C 
ATOM      5  C   LIG d   1       5.258  91.327 117.969  0.00  0.00    -0.047 C 
ATOM      6  C   LIG d   1       4.489  90.016 117.687  0.00  0.00     0.091 C 
ENDROOT
BRANCH   1   7
ATOM      7  O   LIG d   1       4.796  87.720 116.887  0.00  0.00    -0.368 OA
BRANCH   7   8
ATOM      8  C   LIG d   1       4.693  86.976 115.649  0.00  0.00     0.119 C 
BRANCH   8   9
ATOM      9  C   LIG d   1       4.452  87.992 114.516  0.00  0.00     0.028 C 
ATOM     10  C   LIG d   1       5.423  87.800 113.339  0.00  0.00     0.006 C 
ENDBRANCH   8   9
BRANCH   8  11
ATOM     11  C   LIG d   1       3.461  86.066 115.646  0.00  0.00     0.028 C 
ATOM     12  C   LIG d   1       2.141  86.852 115.637  0.00  0.00     0.006 C 
ENDBRANCH   8  11
ENDBRANCH   7   8
ENDBRANCH   1   7
BRANCH   6  13
ATOM     13  N   LIG d   1       3.178  90.258 117.031  0.00  0.00    -0.311 N 
ATOM     14  C   LIG d   1       2.008  89.997 117.613  0.00  0.00     0.210 C 
ATOM     15  C   LIG d   1       0.777  90.302 116.754  0.00  0.00     0.109 C 
ATOM     16  O   LIG d   1       1.873  89.573 118.770  0.00  0.00    -0.276 OA
ATOM     17  H   LIG d   1       3.194  90.631 116.102  0.00  0.00     0.149 HD
ENDBRANCH   6  13
BRANCH   5  18
ATOM     18  N   LIG d   1       4.567  92.207 118.930  0.00  0.00     0.381 N 
ATOM     19  H   LIG d   1       4.655  93.161 118.640  0.00  0.00    -0.090 HD
ATOM     20  H   LIG d   1       5.002  92.111 119.831  0.00  0.00    -0.090 HD
ATOM     21  H   LIG d   1       3.604  91.958 118.989  0.00  0.00    -0.090 HD
ENDBRANCH   5  18
BRANCH   3  22
ATOM     22  C   LIG d   1       8.722  90.105 117.812  0.00  0.00     0.382 C 
ATOM     23  O   LIG d   1       9.303  91.216 117.765  0.00  0.00    -0.241 OA
ATOM     24  O   LIG d   1       9.399  89.059 117.826  0.00  0.00    -0.241 OA
ENDBRANCH   3  22
TORSDOF 7
ENDMDL
MODEL 8
REMARK VINA RESULT:      -3.7      2.689      4.739
REMARK  7 active torsions:
REMARK  status: ('A' for Active; 'I' for Inactive)
REMARK    1  A    between atoms: C_2  and  C_3 
REMARK    2  A    between atoms: C_3  and  O_6 
REMARK    3  A    between atoms: C_3  and  C_4 
REMARK    4  A    between atoms: C_7  and  O_6 
REMARK    5  A    between atoms: C_9  and  C_10 
REMARK    6  A    between atoms: N_15  and  C_14 
REMARK    7  A    between atoms: N_20  and  C_19 
REMARK       I    between atoms: C_22  and  N_20 
ROOT
ATOM      1  C   LIG d   1       3.541  87.738 117.453  0.00  0.00     0.161 C 
ATOM      2  C   LIG d   1       2.509  88.680 117.310  0.00  0.00     0.016 C 
ATOM      3  C   LIG d   1       2.737  90.049 117.039  0.00  0.00     0.038 C 
ATOM      4  C   LIG d   1       4.016  90.543 116.742  0.00  0.00     0.028 C 
ATOM      5  C   LIG d   1       5.141  89.729 117.372  0.00  0.00    -0.047 C 
ATOM      6  C   LIG d   1       4.936  88.237 117.023  0.00  0.00     0.091 C 
ENDROOT
BRANCH   1   7
ATOM      7  O   LIG d   1       3.201  86.529 116.746  0.00  0.00    -0.368 OA
BRANCH   7   8
ATOM      8  C   LIG d   1       2.312  86.683 115.612  0.00  0.00     0.119 C 
BRANCH   8   9
ATOM      9  C   LIG d   1       1.231  85.590 115.720  0.00  0.00     0.028 C 
ATOM     10  C   LIG d   1       0.094  85.787 114.703  0.00  0.00     0.006 C 
ENDBRANCH   8   9
BRANCH   8  11
ATOM     11  C   LIG d   1       3.039  86.405 114.293  0.00  0.00     0.028 C 
ATOM     12  C   LIG d   1       3.620  87.676 113.654  0.00  0.00     0.006 C 
ENDBRANCH   8  11
ENDBRANCH   7   8
ENDBRANCH   1   7
BRANCH   6  13
ATOM     13  N   LIG d   1       5.947  87.360 117.670  0.00  0.00    -0.311 N 
ATOM     14  C   LIG d   1       6.793  86.590 116.988  0.00  0.00     0.210 C 
ATOM     15  C   LIG d   1       7.739  85.748 117.850  0.00  0.00     0.109 C 
ATOM     16  O   LIG d   1       6.872  86.548 115.751  0.00  0.00    -0.276 OA
ATOM     17  H   LIG d   1       5.973  87.356 118.671  0.00  0.00     0.149 HD
ENDBRANCH   6  13
BRANCH   5  18
ATOM     18  N   LIG d   1       6.418  90.270 116.869  0.00  0.00     0.381 N 
ATOM     19  H   LIG d   1       7.179  89.728 117.226  0.00  0.00    -0.090 HD
ATOM     20  H   LIG d   1       6.522  91.214 117.197  0.00  0.00    -0.090 HD
ATOM     21  H   LIG d   1       6.427  90.254 115.873  0.00  0.00    -0.090 HD
ENDBRANCH   5  18
BRANCH   3  22
ATOM     22  C   LIG d   1       1.683  90.947 117.103  0.00  0.00     0.382 C 
ATOM     23  O   LIG d   1       0.539  90.600 116.722  0.00  0.00    -0.241 OA
ATOM     24  O   LIG d   1       1.870  92.115 117.495  0.00  0.00    -0.241 OA
ENDBRANCH   3  22
TORSDOF 7
ENDMDL
MODEL 9
REMARK VINA RESULT:      -3.6      1.680      4.786
REMARK  7 active torsions:
REMARK  status: ('A' for Active; 'I' for Inactive)
REMARK    1  A    between atoms: C_2  and  C_3 
REMARK    2  A    between atoms: C_3  and  O_6 
REMARK    3  A    between atoms: C_3  and  C_4 
REMARK    4  A    between atoms: C_7  and  O_6 
REMARK    5  A    between atoms: C_9  and  C_10 
REMARK    6  A    between atoms: N_15  and  C_14 
REMARK    7  A    between atoms: N_20  and  C_19 
REMARK       I    between atoms: C_22  and  N_20 
ROOT
ATOM      1  C   LIG d   1       3.967  87.888 116.797  0.00  0.00     0.161 C 
ATOM      2  C   LIG d   1       4.899  88.347 117.742  0.00  0.00     0.016 C 
ATOM      3  C   LIG d   1       6.248  88.631 117.430  0.00  0.00     0.038 C 
ATOM      4  C   LIG d   1       6.722  88.619 116.110  0.00  0.00     0.028 C 
ATOM      5  C   LIG d   1       5.947  87.675 115.196  0.00  0.00    -0.047 C 
ATOM      6  C   LIG d   1       4.437  87.976 115.330  0.00  0.00     0.091 C 
ENDROOT
BRANCH   1   7
ATOM      7  O   LIG d   1       2.717  88.586 116.964  0.00  0.00    -0.368 OA
BRANCH   7   8
ATOM      8  C   LIG d   1       2.770  89.814 117.732  0.00  0.00     0.119 C 
BRANCH   8   9
ATOM      9  C   LIG d   1       1.335  90.137 118.189  0.00  0.00     0.028 C 
ATOM     10  C   LIG d   1       0.470  90.705 117.051  0.00  0.00     0.006 C 
ENDBRANCH   8   9
BRANCH   8  11
ATOM     11  C   LIG d   1       3.194  90.999 116.858  0.00  0.00     0.028 C 
ATOM     12  C   LIG d   1       4.329  91.824 117.484  0.00  0.00     0.006 C 
ENDBRANCH   8  11
ENDBRANCH   7   8
ENDBRANCH   1   7
BRANCH   6  13
ATOM     13  N   LIG d   1       3.600  87.041 114.533  0.00  0.00    -0.311 N 
ATOM     14  C   LIG d   1       3.199  87.295 113.289  0.00  0.00     0.210 C 
ATOM     15  C   LIG d   1       2.327  86.207 112.655  0.00  0.00     0.109 C 
ATOM     16  O   LIG d   1       3.508  88.305 112.638  0.00  0.00    -0.276 OA
ATOM     17  H   LIG d   1       3.329  86.183 114.973  0.00  0.00     0.149 HD
ENDBRANCH   6  13
BRANCH   5  18
ATOM     18  N   LIG d   1       6.456  87.865 113.825  0.00  0.00     0.381 N 
ATOM     19  H   LIG d   1       7.192  88.542 113.827  0.00  0.00    -0.090 HD
ATOM     20  H   LIG d   1       5.711  88.211 113.247  0.00  0.00    -0.090 HD
ATOM     21  H   LIG d   1       6.792  86.999 113.463  0.00  0.00    -0.090 HD
ENDBRANCH   5  18
BRANCH   3  22
ATOM     22  C   LIG d   1       7.149  88.892 118.451  0.00  0.00     0.382 C 
ATOM     23  O   LIG d   1       7.842  87.962 118.929  0.00  0.00    -0.241 OA
ATOM     24  O   LIG d   1       7.247  90.038 118.930  0.00  0.00    -0.241 OA
ENDBRANCH   3  22
TORSDOF 7
ENDMDL
