MODEL 1
REMARK VINA RESULT:      -4.7      0.000      0.000
REMARK  7 active torsions:
REMARK  status: ('A' for Active; 'I' for Inactive)
REMARK    1  A    between atoms: C_2  and  C_3 
REMARK    2  A    between atoms: C_3  and  O_6 
REMARK    3  A    between atoms: C_3  and  C_4 
REMARK    4  A    between atoms: C_7  and  O_6 
REMARK    5  A    between atoms: C_9  and  C_10 
REMARK    6  A    between atoms: N_15  and  C_14 
REMARK    7  A    between atoms: N_20  and  C_19 
REMARK       I    between atoms: C_22  and  N_20 
ROOT
ATOM      1  C   LIG d   1       3.765  88.749 115.832  0.00  0.00     0.161 C 
ATOM      2  C   LIG d   1       2.917  88.297 114.808  0.00  0.00     0.016 C 
ATOM      3  C   LIG d   1       3.274  88.310 113.440  0.00  0.00     0.038 C 
ATOM      4  C   LIG d   1       4.570  88.637 113.015  0.00  0.00     0.028 C 
ATOM      5  C   LIG d   1       5.299  89.580 113.966  0.00  0.00    -0.047 C 
ATOM      6  C   LIG d   1       5.223  89.005 115.399  0.00  0.00     0.091 C 
ENDROOT
BRANCH   1   7
ATOM      7  O   LIG d   1       3.726  87.828 116.940  0.00  0.00    -0.368 OA
BRANCH   7   8
ATOM      8  C   LIG d   1       3.428  86.448 116.612  0.00  0.00     0.119 C 
BRANCH   8   9
ATOM      9  C   LIG d   1       2.496  85.902 117.711  0.00  0.00     0.028 C 
ATOM     10  C   LIG d   1       2.059  86.991 118.705  0.00  0.00     0.006 C 
ENDBRANCH   8   9
BRANCH   8  11
ATOM     11  C   LIG d   1       4.685  85.576 116.676  0.00  0.00     0.028 C 
ATOM     12  C   LIG d   1       5.717  86.092 117.692  0.00  0.00     0.006 C 
ENDBRANCH   8  11
ENDBRANCH   7   8
ENDBRANCH   1   7
BRANCH   6  13
ATOM     13  N   LIG d   1       5.840  89.908 116.405  0.00  0.00    -0.311 N 
ATOM     14  C   LIG d   1       7.091  89.774 116.842  0.00  0.00     0.210 C 
ATOM     15  C   LIG d   1       7.521  90.800 117.895  0.00  0.00     0.109 C 
ATOM     16  O   LIG d   1       7.895  88.923 116.433  0.00  0.00    -0.276 OA
ATOM     17  H   LIG d   1       5.267  90.646 116.767  0.00  0.00     0.149 HD
ENDBRANCH   6  13
BRANCH   5  18
ATOM     18  N   LIG d   1       6.682  89.727 113.474  0.00  0.00     0.381 N 
ATOM     19  H   LIG d   1       6.790  90.616 113.029  0.00  0.00    -0.090 HD
ATOM     20  H   LIG d   1       6.864  89.010 112.795  0.00  0.00    -0.090 HD
ATOM     21  H   LIG d   1       7.324  89.647 114.232  0.00  0.00    -0.090 HD
ENDBRANCH   5  18
BRANCH   3  22
ATOM     22  C   LIG d   1       2.316  88.031 112.477  0.00  0.00     0.382 C 
ATOM     23  O   LIG d   1       2.497  87.090 111.667  0.00  0.00    -0.241 OA
ATOM     24  O   LIG d   1       1.294  88.736 112.379  0.00  0.00    -0.241 OA
ENDBRANCH   3  22
TORSDOF 7
ENDMDL
MODEL 2
REMARK VINA RESULT:      -4.6     10.658     12.389
REMARK  7 active torsions:
REMARK  status: ('A' for Active; 'I' for Inactive)
REMARK    1  A    between atoms: C_2  and  C_3 
REMARK    2  A    between atoms: C_3  and  O_6 
REMARK    3  A    between atoms: C_3  and  C_4 
REMARK    4  A    between atoms: C_7  and  O_6 
REMARK    5  A    between atoms: C_9  and  C_10 
REMARK    6  A    between atoms: N_15  and  C_14 
REMARK    7  A    between atoms: N_20  and  C_19 
REMARK       I    between atoms: C_22  and  N_20 
ROOT
ATOM      1  C   LIG d   1      -6.806  91.407 117.728  0.00  0.00     0.161 C 
ATOM      2  C   LIG d   1      -7.843  92.351 117.649  0.00  0.00     0.016 C 
ATOM      3  C   LIG d   1      -7.670  93.724 117.939  0.00  0.00     0.038 C 
ATOM      4  C   LIG d   1      -6.403  94.276 118.183  0.00  0.00     0.028 C 
ATOM      5  C   LIG d   1      -5.410  93.278 118.768  0.00  0.00    -0.047 C 
ATOM      6  C   LIG d   1      -5.394  92.010 117.884  0.00  0.00     0.091 C 
ENDROOT
BRANCH   1   7
ATOM      7  O   LIG d   1      -6.853  90.532 116.583  0.00  0.00    -0.368 OA
BRANCH   7   8
ATOM      8  C   LIG d   1      -8.037  90.632 115.753  0.00  0.00     0.119 C 
BRANCH   8   9
ATOM      9  C   LIG d   1      -8.777  89.283 115.839  0.00  0.00     0.028 C 
ATOM     10  C   LIG d   1      -9.688  89.191 117.075  0.00  0.00     0.006 C 
ENDBRANCH   8   9
BRANCH   8  11
ATOM     11  C   LIG d   1      -7.669  90.800 114.276  0.00  0.00     0.028 C 
ATOM     12  C   LIG d   1      -6.888  92.095 114.000  0.00  0.00     0.006 C 
ENDBRANCH   8  11
ENDBRANCH   7   8
ENDBRANCH   1   7
BRANCH   6  13
ATOM     13  N   LIG d   1      -4.510  90.948 118.432  0.00  0.00    -0.311 N 
ATOM     14  C   LIG d   1      -3.184  90.962 118.309  0.00  0.00     0.210 C 
ATOM     15  C   LIG d   1      -2.464  89.760 118.930  0.00  0.00     0.109 C 
ATOM     16  O   LIG d   1      -2.533  91.871 117.773  0.00  0.00    -0.276 OA
ATOM     17  H   LIG d   1      -4.953  90.187 118.910  0.00  0.00     0.149 HD
ENDBRANCH   6  13
BRANCH   5  18
ATOM     18  N   LIG d   1      -4.097  93.947 118.843  0.00  0.00     0.381 N 
ATOM     19  H   LIG d   1      -3.381  93.270 119.014  0.00  0.00    -0.090 HD
ATOM     20  H   LIG d   1      -4.107  94.597 119.609  0.00  0.00    -0.090 HD
ATOM     21  H   LIG d   1      -3.911  94.429 117.991  0.00  0.00    -0.090 HD
ENDBRANCH   5  18
BRANCH   3  22
ATOM     22  C   LIG d   1      -8.777  94.553 118.026  0.00  0.00     0.382 C 
ATOM     23  O   LIG d   1      -8.722  95.723 117.575  0.00  0.00    -0.241 OA
ATOM     24  O   LIG d   1      -9.817  94.162 118.590  0.00  0.00    -0.241 OA
ENDBRANCH   3  22
TORSDOF 7
ENDMDL
MODEL 3
REMARK VINA RESULT:      -4.5      2.274      4.324
REMARK  7 active torsions:
REMARK  status: ('A' for Active; 'I' for Inactive)
REMARK    1  A    between atoms: C_2  and  C_3 
REMARK    2  A    between atoms: C_3  and  O_6 
REMARK    3  A    between atoms: C_3  and  C_4 
REMARK    4  A    between atoms: C_7  and  O_6 
REMARK    5  A    between atoms: C_9  and  C_10 
REMARK    6  A    between atoms: N_15  and  C_14 
REMARK    7  A    between atoms: N_20  and  C_19 
REMARK       I    between atoms: C_22  and  N_20 
ROOT
ATOM      1  C   LIG d   1       3.718  88.247 116.261  0.00  0.00     0.161 C 
ATOM      2  C   LIG d   1       2.416  88.762 116.368  0.00  0.00     0.016 C 
ATOM      3  C   LIG d   1       2.106  89.956 117.059  0.00  0.00     0.038 C 
ATOM      4  C   LIG d   1       3.106  90.801 117.565  0.00  0.00     0.028 C 
ATOM      5  C   LIG d   1       4.396  90.068 117.919  0.00  0.00    -0.047 C 
ATOM      6  C   LIG d   1       4.835  89.212 116.710  0.00  0.00     0.091 C 
ENDROOT
BRANCH   1   7
ATOM      7  O   LIG d   1       3.956  87.798 114.912  0.00  0.00    -0.368 OA
BRANCH   7   8
ATOM      8  C   LIG d   1       3.318  88.568 113.862  0.00  0.00     0.119 C 
BRANCH   8   9
ATOM      9  C   LIG d   1       3.212  87.660 112.622  0.00  0.00     0.028 C 
ATOM     10  C   LIG d   1       1.790  87.630 112.037  0.00  0.00     0.006 C 
ENDBRANCH   8   9
BRANCH   8  11
ATOM     11  C   LIG d   1       4.192  89.748 113.428  0.00  0.00     0.028 C 
ATOM     12  C   LIG d   1       5.633  89.331 113.093  0.00  0.00     0.006 C 
ENDBRANCH   8  11
ENDBRANCH   7   8
ENDBRANCH   1   7
BRANCH   6  13
ATOM     13  N   LIG d   1       6.043  88.397 117.002  0.00  0.00    -0.311 N 
ATOM     14  C   LIG d   1       7.284  88.809 116.748  0.00  0.00     0.210 C 
ATOM     15  C   LIG d   1       8.384  87.805 117.107  0.00  0.00     0.109 C 
ATOM     16  O   LIG d   1       7.580  89.922 116.290  0.00  0.00    -0.276 OA
ATOM     17  H   LIG d   1       5.896  87.491 117.403  0.00  0.00     0.149 HD
ENDBRANCH   6  13
BRANCH   5  18
ATOM     18  N   LIG d   1       5.394  91.084 118.302  0.00  0.00     0.381 N 
ATOM     19  H   LIG d   1       6.313  90.758 118.075  0.00  0.00    -0.090 HD
ATOM     20  H   LIG d   1       5.347  91.229 119.295  0.00  0.00    -0.090 HD
ATOM     21  H   LIG d   1       5.211  91.939 117.825  0.00  0.00    -0.090 HD
ENDBRANCH   5  18
BRANCH   3  22
ATOM     22  C   LIG d   1       0.781  90.296 117.286  0.00  0.00     0.382 C 
ATOM     23  O   LIG d   1       0.456  91.500 117.419  0.00  0.00    -0.241 OA
ATOM     24  O   LIG d   1      -0.087  89.410 117.402  0.00  0.00    -0.241 OA
ENDBRANCH   3  22
TORSDOF 7
ENDMDL
MODEL 4
REMARK VINA RESULT:      -4.2      2.343      5.245
REMARK  7 active torsions:
REMARK  status: ('A' for Active; 'I' for Inactive)
REMARK    1  A    between atoms: C_2  and  C_3 
REMARK    2  A    between atoms: C_3  and  O_6 
REMARK    3  A    between atoms: C_3  and  C_4 
REMARK    4  A    between atoms: C_7  and  O_6 
REMARK    5  A    between atoms: C_9  and  C_10 
REMARK    6  A    between atoms: N_15  and  C_14 
REMARK    7  A    between atoms: N_20  and  C_19 
REMARK       I    between atoms: C_22  and  N_20 
ROOT
ATOM      1  C   LIG d   1       3.103  87.998 116.247  0.00  0.00     0.161 C 
ATOM      2  C   LIG d   1       3.989  88.517 117.205  0.00  0.00     0.016 C 
ATOM      3  C   LIG d   1       5.140  89.268 116.873  0.00  0.00     0.038 C 
ATOM      4  C   LIG d   1       5.402  89.682 115.559  0.00  0.00     0.028 C 
ATOM      5  C   LIG d   1       4.808  88.756 114.502  0.00  0.00    -0.047 C 
ATOM      6  C   LIG d   1       3.311  88.533 114.815  0.00  0.00     0.091 C 
ENDROOT
BRANCH   1   7
ATOM      7  O   LIG d   1       1.743  88.217 116.671  0.00  0.00    -0.368 OA
BRANCH   7   8
ATOM      8  C   LIG d   1       1.548  89.224 117.695  0.00  0.00     0.119 C 
BRANCH   8   9
ATOM      9  C   LIG d   1       0.282  88.842 118.485  0.00  0.00     0.028 C 
ATOM     10  C   LIG d   1      -0.925  89.723 118.121  0.00  0.00     0.006 C 
ENDBRANCH   8   9
BRANCH   8  11
ATOM     11  C   LIG d   1       1.245  90.593 117.079  0.00  0.00     0.028 C 
ATOM     12  C   LIG d   1       2.243  91.677 117.515  0.00  0.00     0.006 C 
ENDBRANCH   8  11
ENDBRANCH   7   8
ENDBRANCH   1   7
BRANCH   6  13
ATOM     13  N   LIG d   1       2.673  87.572 113.878  0.00  0.00    -0.311 N 
ATOM     14  C   LIG d   1       2.015  87.944 112.782  0.00  0.00     0.210 C 
ATOM     15  C   LIG d   1       1.417  86.794 111.965  0.00  0.00     0.109 C 
ATOM     16  O   LIG d   1       1.897  89.115 112.391  0.00  0.00    -0.276 OA
ATOM     17  H   LIG d   1       2.747  86.599 114.103  0.00  0.00     0.149 HD
ENDBRANCH   6  13
BRANCH   5  18
ATOM     18  N   LIG d   1       5.037  89.378 113.185  0.00  0.00     0.381 N 
ATOM     19  H   LIG d   1       5.728  90.097 113.265  0.00  0.00    -0.090 HD
ATOM     20  H   LIG d   1       4.180  89.798 112.870  0.00  0.00    -0.090 HD
ATOM     21  H   LIG d   1       5.338  88.690 112.530  0.00  0.00    -0.090 HD
ENDBRANCH   5  18
BRANCH   3  22
ATOM     22  C   LIG d   1       6.066  89.579 117.858  0.00  0.00     0.382 C 
ATOM     23  O   LIG d   1       7.133  88.925 117.944  0.00  0.00    -0.241 OA
ATOM     24  O   LIG d   1       5.826  90.475 118.689  0.00  0.00    -0.241 OA
ENDBRANCH   3  22
TORSDOF 7
ENDMDL
MODEL 5
REMARK VINA RESULT:      -4.0      2.383      3.354
REMARK  7 active torsions:
REMARK  status: ('A' for Active; 'I' for Inactive)
REMARK    1  A    between atoms: C_2  and  C_3 
REMARK    2  A    between atoms: C_3  and  O_6 
REMARK    3  A    between atoms: C_3  and  C_4 
REMARK    4  A    between atoms: C_7  and  O_6 
REMARK    5  A    between atoms: C_9  and  C_10 
REMARK    6  A    between atoms: N_15  and  C_14 
REMARK    7  A    between atoms: N_20  and  C_19 
REMARK       I    between atoms: C_22  and  N_20 
ROOT
ATOM      1  C   LIG d   1       4.296  89.962 115.656  0.00  0.00     0.161 C 
ATOM      2  C   LIG d   1       3.578  89.683 114.481  0.00  0.00     0.016 C 
ATOM      3  C   LIG d   1       3.239  88.373 114.070  0.00  0.00     0.038 C 
ATOM      4  C   LIG d   1       3.464  87.257 114.889  0.00  0.00     0.028 C 
ATOM      5  C   LIG d   1       4.635  87.437 115.849  0.00  0.00    -0.047 C 
ATOM      6  C   LIG d   1       4.453  88.766 116.618  0.00  0.00     0.091 C 
ENDROOT
BRANCH   1   7
ATOM      7  O   LIG d   1       3.696  91.080 116.341  0.00  0.00    -0.368 OA
BRANCH   7   8
ATOM      8  C   LIG d   1       2.899  90.759 117.508  0.00  0.00     0.119 C 
BRANCH   8   9
ATOM      9  C   LIG d   1       1.420  90.975 117.131  0.00  0.00     0.028 C 
ATOM     10  C   LIG d   1       0.497  89.908 117.745  0.00  0.00     0.006 C 
ENDBRANCH   8   9
BRANCH   8  11
ATOM     11  C   LIG d   1       3.172  91.737 118.655  0.00  0.00     0.028 C 
ATOM     12  C   LIG d   1       3.363  93.183 118.172  0.00  0.00     0.006 C 
ENDBRANCH   8  11
ENDBRANCH   7   8
ENDBRANCH   1   7
BRANCH   6  13
ATOM     13  N   LIG d   1       5.598  89.060 117.519  0.00  0.00    -0.311 N 
ATOM     14  C   LIG d   1       6.819  89.358 117.079  0.00  0.00     0.210 C 
ATOM     15  C   LIG d   1       7.859  89.608 118.176  0.00  0.00     0.109 C 
ATOM     16  O   LIG d   1       7.133  89.470 115.884  0.00  0.00    -0.276 OA
ATOM     17  H   LIG d   1       5.425  89.022 118.504  0.00  0.00     0.149 HD
ENDBRANCH   6  13
BRANCH   5  18
ATOM     18  N   LIG d   1       4.670  86.257 116.735  0.00  0.00     0.381 N 
ATOM     19  H   LIG d   1       4.480  86.535 117.677  0.00  0.00    -0.090 HD
ATOM     20  H   LIG d   1       5.591  85.856 116.704  0.00  0.00    -0.090 HD
ATOM     21  H   LIG d   1       3.997  85.586 116.436  0.00  0.00    -0.090 HD
ENDBRANCH   5  18
BRANCH   3  22
ATOM     22  C   LIG d   1       2.702  88.167 112.808  0.00  0.00     0.382 C 
ATOM     23  O   LIG d   1       3.233  87.338 112.029  0.00  0.00    -0.241 OA
ATOM     24  O   LIG d   1       1.722  88.831 112.422  0.00  0.00    -0.241 OA
ENDBRANCH   3  22
TORSDOF 7
ENDMDL
MODEL 6
REMARK VINA RESULT:      -3.8      2.561      4.123
REMARK  7 active torsions:
REMARK  status: ('A' for Active; 'I' for Inactive)
REMARK    1  A    between atoms: C_2  and  C_3 
REMARK    2  A    between atoms: C_3  and  O_6 
REMARK    3  A    between atoms: C_3  and  C_4 
REMARK    4  A    between atoms: C_7  and  O_6 
REMARK    5  A    between atoms: C_9  and  C_10 
REMARK    6  A    between atoms: N_15  and  C_14 
REMARK    7  A    between atoms: N_20  and  C_19 
REMARK       I    between atoms: C_22  and  N_20 
ROOT
ATOM      1  C   LIG d   1       3.741  88.915 116.991  0.00  0.00     0.161 C 
ATOM      2  C   LIG d   1       2.363  89.186 116.971  0.00  0.00     0.016 C 
ATOM      3  C   LIG d   1       1.815  90.456 117.263  0.00  0.00     0.038 C 
ATOM      4  C   LIG d   1       2.623  91.587 117.448  0.00  0.00     0.028 C 
ATOM      5  C   LIG d   1       4.015  91.257 117.976  0.00  0.00    -0.047 C 
ATOM      6  C   LIG d   1       4.644  90.163 117.082  0.00  0.00     0.091 C 
ENDROOT
BRANCH   1   7
ATOM      7  O   LIG d   1       4.100  88.120 115.843  0.00  0.00    -0.368 OA
BRANCH   7   8
ATOM      8  C   LIG d   1       3.039  87.862 114.890  0.00  0.00     0.119 C 
BRANCH   8   9
ATOM      9  C   LIG d   1       3.113  86.371 114.509  0.00  0.00     0.028 C 
ATOM     10  C   LIG d   1       3.726  85.509 115.626  0.00  0.00     0.006 C 
ENDBRANCH   8   9
BRANCH   8  11
ATOM     11  C   LIG d   1       3.267  88.627 113.583  0.00  0.00     0.028 C 
ATOM     12  C   LIG d   1       2.222  88.291 112.507  0.00  0.00     0.006 C 
ENDBRANCH   8  11
ENDBRANCH   7   8
ENDBRANCH   1   7
BRANCH   6  13
ATOM     13  N   LIG d   1       5.973  89.721 117.578  0.00  0.00    -0.311 N 
ATOM     14  C   LIG d   1       7.021  89.515 116.782  0.00  0.00     0.210 C 
ATOM     15  C   LIG d   1       8.292  89.042 117.495  0.00  0.00     0.109 C 
ATOM     16  O   LIG d   1       7.027  89.709 115.557  0.00  0.00    -0.276 OA
ATOM     17  H   LIG d   1       6.066  89.570 118.563  0.00  0.00     0.149 HD
ENDBRANCH   6  13
BRANCH   5  18
ATOM     18  N   LIG d   1       4.795  92.510 117.991  0.00  0.00     0.381 N 
ATOM     19  H   LIG d   1       5.719  92.337 117.650  0.00  0.00    -0.090 HD
ATOM     20  H   LIG d   1       4.864  92.838 118.938  0.00  0.00    -0.090 HD
ATOM     21  H   LIG d   1       4.347  93.197 117.425  0.00  0.00    -0.090 HD
ENDBRANCH   5  18
BRANCH   3  22
ATOM     22  C   LIG d   1       0.443  90.595 117.411  0.00  0.00     0.382 C 
ATOM     23  O   LIG d   1      -0.295  89.581 117.398  0.00  0.00    -0.241 OA
ATOM     24  O   LIG d   1      -0.070  91.725 117.513  0.00  0.00    -0.241 OA
ENDBRANCH   3  22
TORSDOF 7
ENDMDL
MODEL 7
REMARK VINA RESULT:      -3.5      4.491      5.799
REMARK  7 active torsions:
REMARK  status: ('A' for Active; 'I' for Inactive)
REMARK    1  A    between atoms: C_2  and  C_3 
REMARK    2  A    between atoms: C_3  and  O_6 
REMARK    3  A    between atoms: C_3  and  C_4 
REMARK    4  A    between atoms: C_7  and  O_6 
REMARK    5  A    between atoms: C_9  and  C_10 
REMARK    6  A    between atoms: N_15  and  C_14 
REMARK    7  A    between atoms: N_20  and  C_19 
REMARK       I    between atoms: C_22  and  N_20 
ROOT
ATOM      1  C   LIG d   1       1.007  89.904 117.685  0.00  0.00     0.161 C 
ATOM      2  C   LIG d   1      -0.387  89.738 117.750  0.00  0.00     0.016 C 
ATOM      3  C   LIG d   1      -1.273  90.757 118.170  0.00  0.00     0.038 C 
ATOM      4  C   LIG d   1      -0.834  92.067 118.412  0.00  0.00     0.028 C 
ATOM      5  C   LIG d   1       0.625  92.147 118.847  0.00  0.00    -0.047 C 
ATOM      6  C   LIG d   1       1.493  91.360 117.838  0.00  0.00     0.091 C 
ENDROOT
BRANCH   1   7
ATOM      7  O   LIG d   1       1.510  89.333 116.461  0.00  0.00    -0.368 OA
BRANCH   7   8
ATOM      8  C   LIG d   1       2.833  88.746 116.528  0.00  0.00     0.119 C 
BRANCH   8   9
ATOM      9  C   LIG d   1       3.224  88.322 115.099  0.00  0.00     0.028 C 
ATOM     10  C   LIG d   1       4.003  89.419 114.353  0.00  0.00     0.006 C 
ENDBRANCH   8   9
BRANCH   8  11
ATOM     11  C   LIG d   1       2.828  87.453 117.347  0.00  0.00     0.028 C 
ATOM     12  C   LIG d   1       3.952  87.406 118.395  0.00  0.00     0.006 C 
ENDBRANCH   8  11
ENDBRANCH   7   8
ENDBRANCH   1   7
BRANCH   6  13
ATOM     13  N   LIG d   1       2.925  91.317 118.235  0.00  0.00    -0.311 N 
ATOM     14  C   LIG d   1       3.827  92.205 117.822  0.00  0.00     0.210 C 
ATOM     15  C   LIG d   1       5.251  91.966 118.333  0.00  0.00     0.109 C 
ATOM     16  O   LIG d   1       3.577  93.187 117.107  0.00  0.00    -0.276 OA
ATOM     17  H   LIG d   1       3.208  90.571 118.839  0.00  0.00     0.149 HD
ENDBRANCH   6  13
BRANCH   5  18
ATOM     18  N   LIG d   1       0.988  93.575 118.930  0.00  0.00     0.381 N 
ATOM     19  H   LIG d   1       1.724  93.699 119.596  0.00  0.00    -0.090 HD
ATOM     20  H   LIG d   1       0.188  94.096 119.244  0.00  0.00    -0.090 HD
ATOM     21  H   LIG d   1       1.279  93.906 118.036  0.00  0.00    -0.090 HD
ENDBRANCH   5  18
BRANCH   3  22
ATOM     22  C   LIG d   1      -2.608  90.458 118.392  0.00  0.00     0.382 C 
ATOM     23  O   LIG d   1      -3.469  91.370 118.356  0.00  0.00    -0.241 OA
ATOM     24  O   LIG d   1      -2.958  89.295 118.670  0.00  0.00    -0.241 OA
ENDBRANCH   3  22
TORSDOF 7
ENDMDL
MODEL 8
REMARK VINA RESULT:      -3.3      3.082      4.410
REMARK  7 active torsions:
REMARK  status: ('A' for Active; 'I' for Inactive)
REMARK    1  A    between atoms: C_2  and  C_3 
REMARK    2  A    between atoms: C_3  and  O_6 
REMARK    3  A    between atoms: C_3  and  C_4 
REMARK    4  A    between atoms: C_7  and  O_6 
REMARK    5  A    between atoms: C_9  and  C_10 
REMARK    6  A    between atoms: N_15  and  C_14 
REMARK    7  A    between atoms: N_20  and  C_19 
REMARK       I    between atoms: C_22  and  N_20 
ROOT
ATOM      1  C   LIG d   1       2.391  88.909 116.925  0.00  0.00     0.161 C 
ATOM      2  C   LIG d   1       1.050  89.133 117.278  0.00  0.00     0.016 C 
ATOM      3  C   LIG d   1       0.550  90.393 117.678  0.00  0.00     0.038 C 
ATOM      4  C   LIG d   1       1.331  91.557 117.607  0.00  0.00     0.028 C 
ATOM      5  C   LIG d   1       2.827  91.292 117.740  0.00  0.00    -0.047 C 
ATOM      6  C   LIG d   1       3.232  90.189 116.735  0.00  0.00     0.091 C 
ENDROOT
BRANCH   1   7
ATOM      7  O   LIG d   1       2.455  88.088 115.742  0.00  0.00    -0.368 OA
BRANCH   7   8
ATOM      8  C   LIG d   1       3.312  86.922 115.821  0.00  0.00     0.119 C 
BRANCH   8   9
ATOM      9  C   LIG d   1       3.201  86.174 114.479  0.00  0.00     0.028 C 
ATOM     10  C   LIG d   1       3.052  87.130 113.284  0.00  0.00     0.006 C 
ENDBRANCH   8   9
BRANCH   8  11
ATOM     11  C   LIG d   1       2.813  85.934 116.880  0.00  0.00     0.028 C 
ATOM     12  C   LIG d   1       3.883  85.593 117.928  0.00  0.00     0.006 C 
ENDBRANCH   8  11
ENDBRANCH   7   8
ENDBRANCH   1   7
BRANCH   6  13
ATOM     13  N   LIG d   1       4.664  89.809 116.857  0.00  0.00    -0.311 N 
ATOM     14  C   LIG d   1       5.461  89.608 115.809  0.00  0.00     0.210 C 
ATOM     15  C   LIG d   1       6.897  89.204 116.157  0.00  0.00     0.109 C 
ATOM     16  O   LIG d   1       5.123  89.757 114.625  0.00  0.00    -0.276 OA
ATOM     17  H   LIG d   1       5.028  89.697 117.782  0.00  0.00     0.149 HD
ENDBRANCH   6  13
BRANCH   5  18
ATOM     18  N   LIG d   1       3.528  92.569 117.510  0.00  0.00     0.381 N 
ATOM     19  H   LIG d   1       4.353  92.410 116.967  0.00  0.00    -0.090 HD
ATOM     20  H   LIG d   1       3.804  92.952 118.397  0.00  0.00    -0.090 HD
ATOM     21  H   LIG d   1       2.927  93.207 117.037  0.00  0.00    -0.090 HD
ENDBRANCH   5  18
BRANCH   3  22
ATOM     22  C   LIG d   1      -0.733  90.492 118.194  0.00  0.00     0.382 C 
ATOM     23  O   LIG d   1      -1.501  89.501 118.156  0.00  0.00    -0.241 OA
ATOM     24  O   LIG d   1      -1.147  91.571 118.656  0.00  0.00    -0.241 OA
ENDBRANCH   3  22
TORSDOF 7
ENDMDL
MODEL 9
REMARK VINA RESULT:      -3.2      2.657      5.547
REMARK  7 active torsions:
REMARK  status: ('A' for Active; 'I' for Inactive)
REMARK    1  A    between atoms: C_2  and  C_3 
REMARK    2  A    between atoms: C_3  and  O_6 
REMARK    3  A    between atoms: C_3  and  C_4 
REMARK    4  A    between atoms: C_7  and  O_6 
REMARK    5  A    between atoms: C_9  and  C_10 
REMARK    6  A    between atoms: N_15  and  C_14 
REMARK    7  A    between atoms: N_20  and  C_19 
REMARK       I    between atoms: C_22  and  N_20 
ROOT
ATOM      1  C   LIG d   1       2.935  89.412 116.578  0.00  0.00     0.161 C 
ATOM      2  C   LIG d   1       3.208  90.781 116.733  0.00  0.00     0.016 C 
ATOM      3  C   LIG d   1       4.316  91.276 117.459  0.00  0.00     0.038 C 
ATOM      4  C   LIG d   1       5.316  90.427 117.956  0.00  0.00     0.028 C 
ATOM      5  C   LIG d   1       4.819  89.017 118.258  0.00  0.00    -0.047 C 
ATOM      6  C   LIG d   1       4.076  88.471 117.018  0.00  0.00     0.091 C 
ENDROOT
BRANCH   1   7
ATOM      7  O   LIG d   1       2.560  89.140 115.213  0.00  0.00    -0.368 OA
BRANCH   7   8
ATOM      8  C   LIG d   1       3.554  88.468 114.401  0.00  0.00     0.119 C 
BRANCH   8   9
ATOM      9  C   LIG d   1       4.104  89.498 113.396  0.00  0.00     0.028 C 
ATOM     10  C   LIG d   1       5.640  89.481 113.319  0.00  0.00     0.006 C 
ENDBRANCH   8   9
BRANCH   8  11
ATOM     11  C   LIG d   1       2.922  87.365 113.546  0.00  0.00     0.028 C 
ATOM     12  C   LIG d   1       2.149  87.917 112.337  0.00  0.00     0.006 C 
ENDBRANCH   8  11
ENDBRANCH   7   8
ENDBRANCH   1   7
BRANCH   6  13
ATOM     13  N   LIG d   1       3.484  87.128 117.258  0.00  0.00    -0.311 N 
ATOM     14  C   LIG d   1       2.563  86.889 118.190  0.00  0.00     0.210 C 
ATOM     15  C   LIG d   1       2.101  85.432 118.284  0.00  0.00     0.109 C 
ATOM     16  O   LIG d   1       2.060  87.752 118.925  0.00  0.00    -0.276 OA
ATOM     17  H   LIG d   1       3.812  86.376 116.685  0.00  0.00     0.149 HD
ENDBRANCH   6  13
BRANCH   5  18
ATOM     18  N   LIG d   1       5.990  88.204 118.636  0.00  0.00     0.381 N 
ATOM     19  H   LIG d   1       5.729  87.541 119.339  0.00  0.00    -0.090 HD
ATOM     20  H   LIG d   1       6.696  88.808 119.019  0.00  0.00    -0.090 HD
ATOM     21  H   LIG d   1       6.347  87.728 117.837  0.00  0.00    -0.090 HD
ENDBRANCH   5  18
BRANCH   3  22
ATOM     22  C   LIG d   1       4.410  92.633 117.729  0.00  0.00     0.382 C 
ATOM     23  O   LIG d   1       5.348  93.067 118.439  0.00  0.00    -0.241 OA
ATOM     24  O   LIG d   1       3.543  93.422 117.308  0.00  0.00    -0.241 OA
ENDBRANCH   3  22
TORSDOF 7
ENDMDL
