MODEL 1
REMARK VINA RESULT:      -4.9      0.000      0.000
REMARK  7 active torsions:
REMARK  status: ('A' for Active; 'I' for Inactive)
REMARK    1  A    between atoms: C_2  and  C_3 
REMARK    2  A    between atoms: C_3  and  O_6 
REMARK    3  A    between atoms: C_3  and  C_4 
REMARK    4  A    between atoms: C_7  and  O_6 
REMARK    5  A    between atoms: C_9  and  C_10 
REMARK    6  A    between atoms: N_15  and  C_14 
REMARK    7  A    between atoms: N_20  and  C_19 
REMARK       I    between atoms: C_22  and  N_20 
ROOT
ATOM      1  C   LIG d   1       3.525  88.185 115.350  0.00  0.00     0.161 C 
ATOM      2  C   LIG d   1       3.947  88.996 116.416  0.00  0.00     0.016 C 
ATOM      3  C   LIG d   1       5.100  89.814 116.363  0.00  0.00     0.038 C 
ATOM      4  C   LIG d   1       5.828  89.992 115.177  0.00  0.00     0.028 C 
ATOM      5  C   LIG d   1       5.733  88.805 114.224  0.00  0.00    -0.047 C 
ATOM      6  C   LIG d   1       4.244  88.451 114.011  0.00  0.00     0.091 C 
ENDROOT
BRANCH   1   7
ATOM      7  O   LIG d   1       2.098  88.301 115.184  0.00  0.00    -0.368 OA
BRANCH   7   8
ATOM      8  C   LIG d   1       1.304  87.209 115.712  0.00  0.00     0.119 C 
BRANCH   8   9
ATOM      9  C   LIG d   1       0.564  87.735 116.957  0.00  0.00     0.028 C 
ATOM     10  C   LIG d   1       0.175  89.217 116.827  0.00  0.00     0.006 C 
ENDBRANCH   8   9
BRANCH   8  11
ATOM     11  C   LIG d   1       2.192  86.069 116.219  0.00  0.00     0.028 C 
ATOM     12  C   LIG d   1       1.825  85.616 117.641  0.00  0.00     0.006 C 
ENDBRANCH   8  11
ENDBRANCH   7   8
ENDBRANCH   1   7
BRANCH   6  13
ATOM     13  N   LIG d   1       4.063  87.248 113.157  0.00  0.00    -0.311 N 
ATOM     14  C   LIG d   1       3.168  87.174 112.174  0.00  0.00     0.210 C 
ATOM     15  C   LIG d   1       3.134  85.835 111.430  0.00  0.00     0.109 C 
ATOM     16  O   LIG d   1       2.422  88.101 111.826  0.00  0.00    -0.276 OA
ATOM     17  H   LIG d   1       4.650  86.460 113.351  0.00  0.00     0.149 HD
ENDBRANCH   6  13
BRANCH   5  18
ATOM     18  N   LIG d   1       6.423  89.180 112.975  0.00  0.00     0.381 N 
ATOM     19  H   LIG d   1       6.663  90.151 113.000  0.00  0.00    -0.090 HD
ATOM     20  H   LIG d   1       5.799  89.029 112.202  0.00  0.00    -0.090 HD
ATOM     21  H   LIG d   1       7.245  88.630 112.861  0.00  0.00    -0.090 HD
ENDBRANCH   5  18
BRANCH   3  22
ATOM     22  C   LIG d   1       5.557  90.433 117.516  0.00  0.00     0.382 C 
ATOM     23  O   LIG d   1       4.747  90.754 118.419  0.00  0.00    -0.241 OA
ATOM     24  O   LIG d   1       6.764  90.714 117.646  0.00  0.00    -0.241 OA
ENDBRANCH   3  22
TORSDOF 7
ENDMDL
MODEL 2
REMARK VINA RESULT:      -4.7      2.807      5.254
REMARK  7 active torsions:
REMARK  status: ('A' for Active; 'I' for Inactive)
REMARK    1  A    between atoms: C_2  and  C_3 
REMARK    2  A    between atoms: C_3  and  O_6 
REMARK    3  A    between atoms: C_3  and  C_4 
REMARK    4  A    between atoms: C_7  and  O_6 
REMARK    5  A    between atoms: C_9  and  C_10 
REMARK    6  A    between atoms: N_15  and  C_14 
REMARK    7  A    between atoms: N_20  and  C_19 
REMARK       I    between atoms: C_22  and  N_20 
ROOT
ATOM      1  C   LIG d   1       1.642  88.173 116.299  0.00  0.00     0.161 C 
ATOM      2  C   LIG d   1       0.281  88.052 116.623  0.00  0.00     0.016 C 
ATOM      3  C   LIG d   1      -0.475  89.093 117.210  0.00  0.00     0.038 C 
ATOM      4  C   LIG d   1       0.046  90.385 117.375  0.00  0.00     0.028 C 
ATOM      5  C   LIG d   1       1.563  90.412 117.529  0.00  0.00    -0.047 C 
ATOM      6  C   LIG d   1       2.199  89.611 116.370  0.00  0.00     0.091 C 
ENDROOT
BRANCH   1   7
ATOM      7  O   LIG d   1       1.888  87.604 114.998  0.00  0.00    -0.368 OA
BRANCH   7   8
ATOM      8  C   LIG d   1       2.403  86.250 114.981  0.00  0.00     0.119 C 
BRANCH   8   9
ATOM      9  C   LIG d   1       3.308  86.084 116.218  0.00  0.00     0.028 C 
ATOM     10  C   LIG d   1       4.789  85.909 115.842  0.00  0.00     0.006 C 
ENDBRANCH   8   9
BRANCH   8  11
ATOM     11  C   LIG d   1       3.318  86.018 113.775  0.00  0.00     0.028 C 
ATOM     12  C   LIG d   1       3.190  87.117 112.709  0.00  0.00     0.006 C 
ENDBRANCH   8  11
ENDBRANCH   7   8
ENDBRANCH   1   7
BRANCH   6  13
ATOM     13  N   LIG d   1       3.677  89.515 116.491  0.00  0.00    -0.311 N 
ATOM     14  C   LIG d   1       4.510  89.706 115.469  0.00  0.00     0.210 C 
ATOM     15  C   LIG d   1       5.995  89.541 115.806  0.00  0.00     0.109 C 
ATOM     16  O   LIG d   1       4.161  90.027 114.323  0.00  0.00    -0.276 OA
ATOM     17  H   LIG d   1       4.047  89.289 117.393  0.00  0.00     0.149 HD
ENDBRANCH   6  13
BRANCH   5  18
ATOM     18  N   LIG d   1       1.984  91.825 117.554  0.00  0.00     0.381 N 
ATOM     19  H   LIG d   1       2.468  92.049 116.708  0.00  0.00    -0.090 HD
ATOM     20  H   LIG d   1       2.614  91.963 118.324  0.00  0.00    -0.090 HD
ATOM     21  H   LIG d   1       1.188  92.416 117.656  0.00  0.00    -0.090 HD
ENDBRANCH   5  18
BRANCH   3  22
ATOM     22  C   LIG d   1      -1.755  88.834 117.676  0.00  0.00     0.382 C 
ATOM     23  O   LIG d   1      -1.919  88.128 118.699  0.00  0.00    -0.241 OA
ATOM     24  O   LIG d   1      -2.750  89.262 117.059  0.00  0.00    -0.241 OA
ENDBRANCH   3  22
TORSDOF 7
ENDMDL
MODEL 3
REMARK VINA RESULT:      -4.6      1.516      4.912
REMARK  7 active torsions:
REMARK  status: ('A' for Active; 'I' for Inactive)
REMARK    1  A    between atoms: C_2  and  C_3 
REMARK    2  A    between atoms: C_3  and  O_6 
REMARK    3  A    between atoms: C_3  and  C_4 
REMARK    4  A    between atoms: C_7  and  O_6 
REMARK    5  A    between atoms: C_9  and  C_10 
REMARK    6  A    between atoms: N_15  and  C_14 
REMARK    7  A    between atoms: N_20  and  C_19 
REMARK       I    between atoms: C_22  and  N_20 
ROOT
ATOM      1  C   LIG d   1       3.489  88.144 115.182  0.00  0.00     0.161 C 
ATOM      2  C   LIG d   1       2.934  87.335 114.177  0.00  0.00     0.016 C 
ATOM      3  C   LIG d   1       3.520  87.168 112.901  0.00  0.00     0.038 C 
ATOM      4  C   LIG d   1       4.788  87.683 112.594  0.00  0.00     0.028 C 
ATOM      5  C   LIG d   1       5.150  88.923 113.404  0.00  0.00    -0.047 C 
ATOM      6  C   LIG d   1       4.928  88.625 114.904  0.00  0.00     0.091 C 
ENDROOT
BRANCH   1   7
ATOM      7  O   LIG d   1       3.424  87.462 116.450  0.00  0.00    -0.368 OA
BRANCH   7   8
ATOM      8  C   LIG d   1       2.442  87.959 117.392  0.00  0.00     0.119 C 
BRANCH   8   9
ATOM      9  C   LIG d   1       1.317  86.910 117.484  0.00  0.00     0.028 C 
ATOM     10  C   LIG d   1       1.833  85.476 117.276  0.00  0.00     0.006 C 
ENDBRANCH   8   9
BRANCH   8  11
ATOM     11  C   LIG d   1       1.768  89.232 116.874  0.00  0.00     0.028 C 
ATOM     12  C   LIG d   1       0.241  89.097 116.768  0.00  0.00     0.006 C 
ENDBRANCH   8  11
ENDBRANCH   7   8
ENDBRANCH   1   7
BRANCH   6  13
ATOM     13  N   LIG d   1       5.179  89.814 115.761  0.00  0.00    -0.311 N 
ATOM     14  C   LIG d   1       5.923  89.778 116.865  0.00  0.00     0.210 C 
ATOM     15  C   LIG d   1       6.036  91.110 117.612  0.00  0.00     0.109 C 
ATOM     16  O   LIG d   1       6.526  88.776 117.279  0.00  0.00    -0.276 OA
ATOM     17  H   LIG d   1       4.753  90.676 115.481  0.00  0.00     0.149 HD
ENDBRANCH   6  13
BRANCH   5  18
ATOM     18  N   LIG d   1       6.547  89.272 113.084  0.00  0.00     0.381 N 
ATOM     19  H   LIG d   1       6.676  90.261 113.163  0.00  0.00    -0.090 HD
ATOM     20  H   LIG d   1       6.740  89.005 112.135  0.00  0.00    -0.090 HD
ATOM     21  H   LIG d   1       7.167  88.798 113.703  0.00  0.00    -0.090 HD
ENDBRANCH   5  18
BRANCH   3  22
ATOM     22  C   LIG d   1       2.817  86.511 111.902  0.00  0.00     0.382 C 
ATOM     23  O   LIG d   1       3.255  85.435 111.430  0.00  0.00    -0.241 OA
ATOM     24  O   LIG d   1       1.772  87.004 111.436  0.00  0.00    -0.241 OA
ENDBRANCH   3  22
TORSDOF 7
ENDMDL
MODEL 4
REMARK VINA RESULT:      -4.5      3.277      6.163
REMARK  7 active torsions:
REMARK  status: ('A' for Active; 'I' for Inactive)
REMARK    1  A    between atoms: C_2  and  C_3 
REMARK    2  A    between atoms: C_3  and  O_6 
REMARK    3  A    between atoms: C_3  and  C_4 
REMARK    4  A    between atoms: C_7  and  O_6 
REMARK    5  A    between atoms: C_9  and  C_10 
REMARK    6  A    between atoms: N_15  and  C_14 
REMARK    7  A    between atoms: N_20  and  C_19 
REMARK       I    between atoms: C_22  and  N_20 
ROOT
ATOM      1  C   LIG d   1       1.088  88.859 116.892  0.00  0.00     0.161 C 
ATOM      2  C   LIG d   1      -0.295  88.620 116.949  0.00  0.00     0.016 C 
ATOM      3  C   LIG d   1      -1.212  89.499 117.571  0.00  0.00     0.038 C 
ATOM      4  C   LIG d   1      -0.823  90.758 118.050  0.00  0.00     0.028 C 
ATOM      5  C   LIG d   1       0.643  90.822 118.466  0.00  0.00    -0.047 C 
ATOM      6  C   LIG d   1       1.517  90.280 117.311  0.00  0.00     0.091 C 
ENDROOT
BRANCH   1   7
ATOM      7  O   LIG d   1       1.583  88.554 115.573  0.00  0.00    -0.368 OA
BRANCH   7   8
ATOM      8  C   LIG d   1       2.531  87.462 115.484  0.00  0.00     0.119 C 
BRANCH   8   9
ATOM      9  C   LIG d   1       3.749  87.971 114.690  0.00  0.00     0.028 C 
ATOM     10  C   LIG d   1       5.047  87.927 115.514  0.00  0.00     0.006 C 
ENDBRANCH   8   9
BRANCH   8  11
ATOM     11  C   LIG d   1       1.967  86.300 114.661  0.00  0.00     0.028 C 
ATOM     12  C   LIG d   1       2.547  86.240 113.240  0.00  0.00     0.006 C 
ENDBRANCH   8  11
ENDBRANCH   7   8
ENDBRANCH   1   7
BRANCH   6  13
ATOM     13  N   LIG d   1       2.959  90.229 117.667  0.00  0.00    -0.311 N 
ATOM     14  C   LIG d   1       3.814  91.215 117.404  0.00  0.00     0.210 C 
ATOM     15  C   LIG d   1       5.260  90.950 117.837  0.00  0.00     0.109 C 
ATOM     16  O   LIG d   1       3.508  92.297 116.881  0.00  0.00    -0.276 OA
ATOM     17  H   LIG d   1       3.287  89.400 118.123  0.00  0.00     0.149 HD
ENDBRANCH   6  13
BRANCH   5  18
ATOM     18  N   LIG d   1       0.947  92.223 118.813  0.00  0.00     0.381 N 
ATOM     19  H   LIG d   1       0.773  92.813 118.024  0.00  0.00    -0.090 HD
ATOM     20  H   LIG d   1       1.921  92.295 119.052  0.00  0.00    -0.090 HD
ATOM     21  H   LIG d   1       0.387  92.513 119.584  0.00  0.00    -0.090 HD
ENDBRANCH   5  18
BRANCH   3  22
ATOM     22  C   LIG d   1      -2.528  89.102 117.755  0.00  0.00     0.382 C 
ATOM     23  O   LIG d   1      -3.359  89.239 116.825  0.00  0.00    -0.241 OA
ATOM     24  O   LIG d   1      -2.904  88.650 118.853  0.00  0.00    -0.241 OA
ENDBRANCH   3  22
TORSDOF 7
ENDMDL
MODEL 5
REMARK VINA RESULT:      -4.4      2.289      4.110
REMARK  7 active torsions:
REMARK  status: ('A' for Active; 'I' for Inactive)
REMARK    1  A    between atoms: C_2  and  C_3 
REMARK    2  A    between atoms: C_3  and  O_6 
REMARK    3  A    between atoms: C_3  and  C_4 
REMARK    4  A    between atoms: C_7  and  O_6 
REMARK    5  A    between atoms: C_9  and  C_10 
REMARK    6  A    between atoms: N_15  and  C_14 
REMARK    7  A    between atoms: N_20  and  C_19 
REMARK       I    between atoms: C_22  and  N_20 
ROOT
ATOM      1  C   LIG d   1       4.972  88.996 115.242  0.00  0.00     0.161 C 
ATOM      2  C   LIG d   1       4.688  90.127 116.024  0.00  0.00     0.016 C 
ATOM      3  C   LIG d   1       3.431  90.361 116.626  0.00  0.00     0.038 C 
ATOM      4  C   LIG d   1       2.411  89.398 116.611  0.00  0.00     0.028 C 
ATOM      5  C   LIG d   1       2.479  88.463 115.409  0.00  0.00    -0.047 C 
ATOM      6  C   LIG d   1       3.907  87.881 115.306  0.00  0.00     0.091 C 
ENDROOT
BRANCH   1   7
ATOM      7  O   LIG d   1       6.268  88.471 115.593  0.00  0.00    -0.368 OA
BRANCH   7   8
ATOM      8  C   LIG d   1       6.572  88.418 117.008  0.00  0.00     0.119 C 
BRANCH   8   9
ATOM      9  C   LIG d   1       8.008  88.946 117.194  0.00  0.00     0.028 C 
ATOM     10  C   LIG d   1       8.042  90.447 117.526  0.00  0.00     0.006 C 
ENDBRANCH   8   9
BRANCH   8  11
ATOM     11  C   LIG d   1       6.602  86.974 117.518  0.00  0.00     0.028 C 
ATOM     12  C   LIG d   1       7.822  86.188 117.010  0.00  0.00     0.006 C 
ENDBRANCH   8  11
ENDBRANCH   7   8
ENDBRANCH   1   7
BRANCH   6  13
ATOM     13  N   LIG d   1       4.084  87.021 114.107  0.00  0.00    -0.311 N 
ATOM     14  C   LIG d   1       3.671  87.367 112.889  0.00  0.00     0.210 C 
ATOM     15  C   LIG d   1       3.934  86.325 111.797  0.00  0.00     0.109 C 
ATOM     16  O   LIG d   1       3.141  88.451 112.603  0.00  0.00    -0.276 OA
ATOM     17  H   LIG d   1       4.533  86.136 114.243  0.00  0.00     0.149 HD
ENDBRANCH   6  13
BRANCH   5  18
ATOM     18  N   LIG d   1       1.444  87.427 115.590  0.00  0.00     0.381 N 
ATOM     19  H   LIG d   1       0.540  87.854 115.626  0.00  0.00    -0.090 HD
ATOM     20  H   LIG d   1       1.605  86.957 116.464  0.00  0.00    -0.090 HD
ATOM     21  H   LIG d   1       1.481  86.773 114.840  0.00  0.00    -0.090 HD
ENDBRANCH   5  18
BRANCH   3  22
ATOM     22  C   LIG d   1       3.170  91.587 117.219  0.00  0.00     0.382 C 
ATOM     23  O   LIG d   1       3.954  92.550 117.038  0.00  0.00    -0.241 OA
ATOM     24  O   LIG d   1       2.185  91.730 117.968  0.00  0.00    -0.241 OA
ENDBRANCH   3  22
TORSDOF 7
ENDMDL
MODEL 6
REMARK VINA RESULT:      -4.4      2.809      4.459
REMARK  7 active torsions:
REMARK  status: ('A' for Active; 'I' for Inactive)
REMARK    1  A    between atoms: C_2  and  C_3 
REMARK    2  A    between atoms: C_3  and  O_6 
REMARK    3  A    between atoms: C_3  and  C_4 
REMARK    4  A    between atoms: C_7  and  O_6 
REMARK    5  A    between atoms: C_9  and  C_10 
REMARK    6  A    between atoms: N_15  and  C_14 
REMARK    7  A    between atoms: N_20  and  C_19 
REMARK       I    between atoms: C_22  and  N_20 
ROOT
ATOM      1  C   LIG d   1       4.964  87.915 116.594  0.00  0.00     0.161 C 
ATOM      2  C   LIG d   1       4.102  89.024 116.582  0.00  0.00     0.016 C 
ATOM      3  C   LIG d   1       4.541  90.353 116.785  0.00  0.00     0.038 C 
ATOM      4  C   LIG d   1       5.903  90.680 116.864  0.00  0.00     0.028 C 
ATOM      5  C   LIG d   1       6.770  89.539 117.386  0.00  0.00    -0.047 C 
ATOM      6  C   LIG d   1       6.467  88.263 116.568  0.00  0.00     0.091 C 
ENDROOT
BRANCH   1   7
ATOM      7  O   LIG d   1       4.636  87.029 115.505  0.00  0.00    -0.368 OA
BRANCH   7   8
ATOM      8  C   LIG d   1       3.982  87.637 114.364  0.00  0.00     0.119 C 
BRANCH   8   9
ATOM      9  C   LIG d   1       2.886  86.666 113.887  0.00  0.00     0.028 C 
ATOM     10  C   LIG d   1       2.269  85.862 115.044  0.00  0.00     0.006 C 
ENDBRANCH   8   9
BRANCH   8  11
ATOM     11  C   LIG d   1       4.943  87.778 113.181  0.00  0.00     0.028 C 
ATOM     12  C   LIG d   1       5.706  89.112 113.187  0.00  0.00     0.006 C 
ENDBRANCH   8  11
ENDBRANCH   7   8
ENDBRANCH   1   7
BRANCH   6  13
ATOM     13  N   LIG d   1       7.212  87.078 117.069  0.00  0.00    -0.311 N 
ATOM     14  C   LIG d   1       8.411  86.720 116.612  0.00  0.00     0.210 C 
ATOM     15  C   LIG d   1       8.994  85.455 117.250  0.00  0.00     0.109 C 
ATOM     16  O   LIG d   1       9.061  87.347 115.763  0.00  0.00    -0.276 OA
ATOM     17  H   LIG d   1       6.771  86.530 117.781  0.00  0.00     0.149 HD
ENDBRANCH   6  13
BRANCH   5  18
ATOM     18  N   LIG d   1       8.178  89.968 117.286  0.00  0.00     0.381 N 
ATOM     19  H   LIG d   1       8.783  89.188 117.451  0.00  0.00    -0.090 HD
ATOM     20  H   LIG d   1       8.357  90.661 117.992  0.00  0.00    -0.090 HD
ATOM     21  H   LIG d   1       8.355  90.350 116.383  0.00  0.00    -0.090 HD
ENDBRANCH   5  18
BRANCH   3  22
ATOM     22  C   LIG d   1       3.610  91.366 116.951  0.00  0.00     0.382 C 
ATOM     23  O   LIG d   1       2.385  91.096 116.968  0.00  0.00    -0.241 OA
ATOM     24  O   LIG d   1       3.977  92.553 117.040  0.00  0.00    -0.241 OA
ENDBRANCH   3  22
TORSDOF 7
ENDMDL
MODEL 7
REMARK VINA RESULT:      -4.3      1.768      4.708
REMARK  7 active torsions:
REMARK  status: ('A' for Active; 'I' for Inactive)
REMARK    1  A    between atoms: C_2  and  C_3 
REMARK    2  A    between atoms: C_3  and  O_6 
REMARK    3  A    between atoms: C_3  and  C_4 
REMARK    4  A    between atoms: C_7  and  O_6 
REMARK    5  A    between atoms: C_9  and  C_10 
REMARK    6  A    between atoms: N_15  and  C_14 
REMARK    7  A    between atoms: N_20  and  C_19 
REMARK       I    between atoms: C_22  and  N_20 
ROOT
ATOM      1  C   LIG d   1       3.119  88.280 115.902  0.00  0.00     0.161 C 
ATOM      2  C   LIG d   1       2.795  87.815 114.616  0.00  0.00     0.016 C 
ATOM      3  C   LIG d   1       3.747  87.651 113.584  0.00  0.00     0.038 C 
ATOM      4  C   LIG d   1       5.123  87.800 113.815  0.00  0.00     0.028 C 
ATOM      5  C   LIG d   1       5.446  88.756 114.958  0.00  0.00    -0.047 C 
ATOM      6  C   LIG d   1       4.631  88.341 116.204  0.00  0.00     0.091 C 
ENDROOT
BRANCH   1   7
ATOM      7  O   LIG d   1       2.441  87.485 116.895  0.00  0.00    -0.368 OA
BRANCH   7   8
ATOM      8  C   LIG d   1       1.619  88.213 117.840  0.00  0.00     0.119 C 
BRANCH   8   9
ATOM      9  C   LIG d   1       0.506  87.259 118.315  0.00  0.00     0.028 C 
ATOM     10  C   LIG d   1       0.981  85.799 118.403  0.00  0.00     0.006 C 
ENDBRANCH   8   9
BRANCH   8  11
ATOM     11  C   LIG d   1       0.892  89.380 117.165  0.00  0.00     0.028 C 
ATOM     12  C   LIG d   1      -0.631  89.186 117.118  0.00  0.00     0.006 C 
ENDBRANCH   8  11
ENDBRANCH   7   8
ENDBRANCH   1   7
BRANCH   6  13
ATOM     13  N   LIG d   1       4.824  89.275 117.344  0.00  0.00    -0.311 N 
ATOM     14  C   LIG d   1       4.535  90.574 117.285  0.00  0.00     0.210 C 
ATOM     15  C   LIG d   1       4.828  91.361 118.566  0.00  0.00     0.109 C 
ATOM     16  O   LIG d   1       4.034  91.143 116.304  0.00  0.00    -0.276 OA
ATOM     17  H   LIG d   1       5.197  88.891 118.190  0.00  0.00     0.149 HD
ENDBRANCH   6  13
BRANCH   5  18
ATOM     18  N   LIG d   1       6.903  88.711 115.179  0.00  0.00     0.381 N 
ATOM     19  H   LIG d   1       7.369  89.256 114.481  0.00  0.00    -0.090 HD
ATOM     20  H   LIG d   1       7.215  87.759 115.095  0.00  0.00    -0.090 HD
ATOM     21  H   LIG d   1       7.122  89.062 116.085  0.00  0.00    -0.090 HD
ENDBRANCH   5  18
BRANCH   3  22
ATOM     22  C   LIG d   1       3.322  87.374 112.294  0.00  0.00     0.382 C 
ATOM     23  O   LIG d   1       3.943  86.538 111.595  0.00  0.00    -0.241 OA
ATOM     24  O   LIG d   1       2.350  87.982 111.805  0.00  0.00    -0.241 OA
ENDBRANCH   3  22
TORSDOF 7
ENDMDL
MODEL 8
REMARK VINA RESULT:      -4.2      2.720      5.100
REMARK  7 active torsions:
REMARK  status: ('A' for Active; 'I' for Inactive)
REMARK    1  A    between atoms: C_2  and  C_3 
REMARK    2  A    between atoms: C_3  and  O_6 
REMARK    3  A    between atoms: C_3  and  C_4 
REMARK    4  A    between atoms: C_7  and  O_6 
REMARK    5  A    between atoms: C_9  and  C_10 
REMARK    6  A    between atoms: N_15  and  C_14 
REMARK    7  A    between atoms: N_20  and  C_19 
REMARK       I    between atoms: C_22  and  N_20 
ROOT
ATOM      1  C   LIG d   1       4.311  86.425 115.639  0.00  0.00     0.161 C 
ATOM      2  C   LIG d   1       3.012  86.961 115.657  0.00  0.00     0.016 C 
ATOM      3  C   LIG d   1       2.634  88.057 116.466  0.00  0.00     0.038 C 
ATOM      4  C   LIG d   1       3.573  88.793 117.204  0.00  0.00     0.028 C 
ATOM      5  C   LIG d   1       4.798  87.978 117.608  0.00  0.00    -0.047 C 
ATOM      6  C   LIG d   1       5.375  87.284 116.354  0.00  0.00     0.091 C 
ENDROOT
BRANCH   1   7
ATOM      7  O   LIG d   1       4.711  86.160 114.280  0.00  0.00    -0.368 OA
BRANCH   7   8
ATOM      8  C   LIG d   1       4.308  87.142 113.294  0.00  0.00     0.119 C 
BRANCH   8   9
ATOM      9  C   LIG d   1       4.046  86.391 111.973  0.00  0.00     0.028 C 
ATOM     10  C   LIG d   1       2.581  86.500 111.517  0.00  0.00     0.006 C 
ENDBRANCH   8   9
BRANCH   8  11
ATOM     11  C   LIG d   1       5.444  88.121 112.985  0.00  0.00     0.028 C 
ATOM     12  C   LIG d   1       5.188  89.528 113.548  0.00  0.00     0.006 C 
ENDBRANCH   8  11
ENDBRANCH   7   8
ENDBRANCH   1   7
BRANCH   6  13
ATOM     13  N   LIG d   1       6.525  86.399 116.674  0.00  0.00    -0.311 N 
ATOM     14  C   LIG d   1       7.797  86.773 116.540  0.00  0.00     0.210 C 
ATOM     15  C   LIG d   1       8.828  85.700 116.907  0.00  0.00     0.109 C 
ATOM     16  O   LIG d   1       8.169  87.900 116.183  0.00  0.00    -0.276 OA
ATOM     17  H   LIG d   1       6.314  85.477 117.001  0.00  0.00     0.149 HD
ENDBRANCH   6  13
BRANCH   5  18
ATOM     18  N   LIG d   1       5.754  88.900 118.250  0.00  0.00     0.381 N 
ATOM     19  H   LIG d   1       5.259  89.564 118.812  0.00  0.00    -0.090 HD
ATOM     20  H   LIG d   1       6.252  89.401 117.536  0.00  0.00    -0.090 HD
ATOM     21  H   LIG d   1       6.395  88.388 118.815  0.00  0.00    -0.090 HD
ENDBRANCH   5  18
BRANCH   3  22
ATOM     22  C   LIG d   1       1.296  88.403 116.572  0.00  0.00     0.382 C 
ATOM     23  O   LIG d   1       0.487  87.617 117.122  0.00  0.00    -0.241 OA
ATOM     24  O   LIG d   1       0.878  89.471 116.086  0.00  0.00    -0.241 OA
ENDBRANCH   3  22
TORSDOF 7
ENDMDL
MODEL 9
REMARK VINA RESULT:      -4.0      3.346      5.112
REMARK  7 active torsions:
REMARK  status: ('A' for Active; 'I' for Inactive)
REMARK    1  A    between atoms: C_2  and  C_3 
REMARK    2  A    between atoms: C_3  and  O_6 
REMARK    3  A    between atoms: C_3  and  C_4 
REMARK    4  A    between atoms: C_7  and  O_6 
REMARK    5  A    between atoms: C_9  and  C_10 
REMARK    6  A    between atoms: N_15  and  C_14 
REMARK    7  A    between atoms: N_20  and  C_19 
REMARK       I    between atoms: C_22  and  N_20 
ROOT
ATOM      1  C   LIG d   1       1.231  89.585 116.204  0.00  0.00     0.161 C 
ATOM      2  C   LIG d   1       2.533  90.092 116.351  0.00  0.00     0.016 C 
ATOM      3  C   LIG d   1       2.874  91.104 117.278  0.00  0.00     0.038 C 
ATOM      4  C   LIG d   1       1.960  91.574 118.232  0.00  0.00     0.028 C 
ATOM      5  C   LIG d   1       0.506  91.454 117.788  0.00  0.00    -0.047 C 
ATOM      6  C   LIG d   1       0.244  90.007 117.313  0.00  0.00     0.091 C 
ENDROOT
BRANCH   1   7
ATOM      7  O   LIG d   1       1.276  88.148 116.093  0.00  0.00    -0.368 OA
BRANCH   7   8
ATOM      8  C   LIG d   1       2.541  87.523 116.421  0.00  0.00     0.119 C 
BRANCH   8   9
ATOM      9  C   LIG d   1       3.030  86.782 115.161  0.00  0.00     0.028 C 
ATOM     10  C   LIG d   1       1.891  86.051 114.430  0.00  0.00     0.006 C 
ENDBRANCH   8   9
BRANCH   8  11
ATOM     11  C   LIG d   1       2.367  86.438 117.488  0.00  0.00     0.028 C 
ATOM     12  C   LIG d   1       0.965  86.441 118.118  0.00  0.00     0.006 C 
ENDBRANCH   8  11
ENDBRANCH   7   8
ENDBRANCH   1   7
BRANCH   6  13
ATOM     13  N   LIG d   1      -1.132  89.824 116.782  0.00  0.00    -0.311 N 
ATOM     14  C   LIG d   1      -2.162  89.436 117.533  0.00  0.00     0.210 C 
ATOM     15  C   LIG d   1      -3.490  89.291 116.783  0.00  0.00     0.109 C 
ATOM     16  O   LIG d   1      -2.108  89.230 118.754  0.00  0.00    -0.276 OA
ATOM     17  H   LIG d   1      -1.272  90.001 115.806  0.00  0.00     0.149 HD
ENDBRANCH   6  13
BRANCH   5  18
ATOM     18  N   LIG d   1      -0.343  91.850 118.928  0.00  0.00     0.381 N 
ATOM     19  H   LIG d   1      -0.079  92.762 119.245  0.00  0.00    -0.090 HD
ATOM     20  H   LIG d   1      -0.199  91.201 119.681  0.00  0.00    -0.090 HD
ATOM     21  H   LIG d   1      -1.301  91.849 118.656  0.00  0.00    -0.090 HD
ENDBRANCH   5  18
BRANCH   3  22
ATOM     22  C   LIG d   1       4.132  91.684 117.229  0.00  0.00     0.382 C 
ATOM     23  O   LIG d   1       4.245  92.929 117.115  0.00  0.00    -0.241 OA
ATOM     24  O   LIG d   1       5.157  90.976 117.254  0.00  0.00    -0.241 OA
ENDBRANCH   3  22
TORSDOF 7
ENDMDL
