MODEL 1
REMARK VINA RESULT:      -4.4      0.000      0.000
REMARK  7 active torsions:
REMARK  status: ('A' for Active; 'I' for Inactive)
REMARK    1  A    between atoms: C_2  and  C_3 
REMARK    2  A    between atoms: C_3  and  O_6 
REMARK    3  A    between atoms: C_3  and  C_4 
REMARK    4  A    between atoms: C_7  and  O_6 
REMARK    5  A    between atoms: C_9  and  C_10 
REMARK    6  A    between atoms: N_15  and  C_14 
REMARK    7  A    between atoms: N_20  and  C_19 
REMARK       I    between atoms: C_22  and  N_20 
ROOT
ATOM      1  C   LIG d   1       2.806  88.050 116.070  0.00  0.00     0.161 C 
ATOM      2  C   LIG d   1       3.151  88.959 117.084  0.00  0.00     0.016 C 
ATOM      3  C   LIG d   1       3.915  90.126 116.856  0.00  0.00     0.038 C 
ATOM      4  C   LIG d   1       4.260  90.545 115.562  0.00  0.00     0.028 C 
ATOM      5  C   LIG d   1       4.367  89.399 114.562  0.00  0.00    -0.047 C 
ATOM      6  C   LIG d   1       3.079  88.548 114.635  0.00  0.00     0.091 C 
ENDROOT
BRANCH   1   7
ATOM      7  O   LIG d   1       1.426  87.661 116.211  0.00  0.00    -0.368 OA
BRANCH   7   8
ATOM      8  C   LIG d   1       0.891  87.685 117.558  0.00  0.00     0.119 C 
BRANCH   8   9
ATOM      9  C   LIG d   1       0.628  86.226 117.978  0.00  0.00     0.028 C 
ATOM     10  C   LIG d   1      -0.574  86.097 118.928  0.00  0.00     0.006 C 
ENDBRANCH   8   9
BRANCH   8  11
ATOM     11  C   LIG d   1      -0.476  88.373 117.602  0.00  0.00     0.028 C 
ATOM     12  C   LIG d   1      -0.372  89.907 117.613  0.00  0.00     0.006 C 
ENDBRANCH   8  11
ENDBRANCH   7   8
ENDBRANCH   1   7
BRANCH   6  13
ATOM     13  N   LIG d   1       3.136  87.356 113.749  0.00  0.00    -0.311 N 
ATOM     14  C   LIG d   1       2.633  87.335 112.516  0.00  0.00     0.210 C 
ATOM     15  C   LIG d   1       2.780  85.999 111.780  0.00  0.00     0.109 C 
ATOM     16  O   LIG d   1       2.107  88.305 111.950  0.00  0.00    -0.276 OA
ATOM     17  H   LIG d   1       3.574  86.534 114.117  0.00  0.00     0.149 HD
ENDBRANCH   6  13
BRANCH   5  18
ATOM     18  N   LIG d   1       4.596  89.989 113.230  0.00  0.00     0.381 N 
ATOM     19  H   LIG d   1       5.574  90.155 113.096  0.00  0.00    -0.090 HD
ATOM     20  H   LIG d   1       4.117  90.871 113.178  0.00  0.00    -0.090 HD
ATOM     21  H   LIG d   1       4.256  89.376 112.522  0.00  0.00    -0.090 HD
ENDBRANCH   5  18
BRANCH   3  22
ATOM     22  C   LIG d   1       4.376  90.867 117.933  0.00  0.00     0.382 C 
ATOM     23  O   LIG d   1       5.546  91.321 117.927  0.00  0.00    -0.241 OA
ATOM     24  O   LIG d   1       3.652  91.051 118.930  0.00  0.00    -0.241 OA
ENDBRANCH   3  22
TORSDOF 7
ENDMDL
MODEL 2
REMARK VINA RESULT:      -4.3      3.413      5.268
REMARK  7 active torsions:
REMARK  status: ('A' for Active; 'I' for Inactive)
REMARK    1  A    between atoms: C_2  and  C_3 
REMARK    2  A    between atoms: C_3  and  O_6 
REMARK    3  A    between atoms: C_3  and  C_4 
REMARK    4  A    between atoms: C_7  and  O_6 
REMARK    5  A    between atoms: C_9  and  C_10 
REMARK    6  A    between atoms: N_15  and  C_14 
REMARK    7  A    between atoms: N_20  and  C_19 
REMARK       I    between atoms: C_22  and  N_20 
ROOT
ATOM      1  C   LIG d   1       5.033  88.460 116.360  0.00  0.00     0.161 C 
ATOM      2  C   LIG d   1       4.194  89.569 116.164  0.00  0.00     0.016 C 
ATOM      3  C   LIG d   1       4.406  90.824 116.780  0.00  0.00     0.038 C 
ATOM      4  C   LIG d   1       5.566  91.100 117.520  0.00  0.00     0.028 C 
ATOM      5  C   LIG d   1       6.186  89.862 118.159  0.00  0.00    -0.047 C 
ATOM      6  C   LIG d   1       6.364  88.774 117.075  0.00  0.00     0.091 C 
ENDROOT
BRANCH   1   7
ATOM      7  O   LIG d   1       5.284  87.808 115.099  0.00  0.00    -0.368 OA
BRANCH   7   8
ATOM      8  C   LIG d   1       4.213  87.871 114.125  0.00  0.00     0.119 C 
BRANCH   8   9
ATOM      9  C   LIG d   1       3.529  86.490 114.099  0.00  0.00     0.028 C 
ATOM     10  C   LIG d   1       2.209  86.473 114.887  0.00  0.00     0.006 C 
ENDBRANCH   8   9
BRANCH   8  11
ATOM     11  C   LIG d   1       4.759  88.080 112.710  0.00  0.00     0.028 C 
ATOM     12  C   LIG d   1       4.333  86.969 111.737  0.00  0.00     0.006 C 
ENDBRANCH   8  11
ENDBRANCH   7   8
ENDBRANCH   1   7
BRANCH   6  13
ATOM     13  N   LIG d   1       6.887  87.499 117.632  0.00  0.00    -0.311 N 
ATOM     14  C   LIG d   1       8.184  87.203 117.693  0.00  0.00     0.210 C 
ATOM     15  C   LIG d   1       8.507  85.828 118.286  0.00  0.00     0.109 C 
ATOM     16  O   LIG d   1       9.100  87.962 117.341  0.00  0.00    -0.276 OA
ATOM     17  H   LIG d   1       6.214  86.839 117.969  0.00  0.00     0.149 HD
ENDBRANCH   6  13
BRANCH   5  18
ATOM     18  N   LIG d   1       7.458  90.272 118.782  0.00  0.00     0.381 N 
ATOM     19  H   LIG d   1       7.360  90.283 119.777  0.00  0.00    -0.090 HD
ATOM     20  H   LIG d   1       7.685  91.202 118.476  0.00  0.00    -0.090 HD
ATOM     21  H   LIG d   1       8.185  89.642 118.519  0.00  0.00    -0.090 HD
ENDBRANCH   5  18
BRANCH   3  22
ATOM     22  C   LIG d   1       3.432  91.807 116.691  0.00  0.00     0.382 C 
ATOM     23  O   LIG d   1       2.224  91.484 116.582  0.00  0.00    -0.241 OA
ATOM     24  O   LIG d   1       3.749  93.011 116.674  0.00  0.00    -0.241 OA
ENDBRANCH   3  22
TORSDOF 7
ENDMDL
MODEL 3
REMARK VINA RESULT:      -4.1      3.105      5.867
REMARK  7 active torsions:
REMARK  status: ('A' for Active; 'I' for Inactive)
REMARK    1  A    between atoms: C_2  and  C_3 
REMARK    2  A    between atoms: C_3  and  O_6 
REMARK    3  A    between atoms: C_3  and  C_4 
REMARK    4  A    between atoms: C_7  and  O_6 
REMARK    5  A    between atoms: C_9  and  C_10 
REMARK    6  A    between atoms: N_15  and  C_14 
REMARK    7  A    between atoms: N_20  and  C_19 
REMARK       I    between atoms: C_22  and  N_20 
ROOT
ATOM      1  C   LIG d   1       1.186  89.967 117.239  0.00  0.00     0.161 C 
ATOM      2  C   LIG d   1      -0.202  89.766 117.319  0.00  0.00     0.016 C 
ATOM      3  C   LIG d   1      -1.102  90.740 117.808  0.00  0.00     0.038 C 
ATOM      4  C   LIG d   1      -0.689  92.046 118.110  0.00  0.00     0.028 C 
ATOM      5  C   LIG d   1       0.776  92.138 118.522  0.00  0.00    -0.047 C 
ATOM      6  C   LIG d   1       1.642  91.425 117.459  0.00  0.00     0.091 C 
ENDROOT
BRANCH   1   7
ATOM      7  O   LIG d   1       1.679  89.473 115.977  0.00  0.00    -0.368 OA
BRANCH   7   8
ATOM      8  C   LIG d   1       2.537  88.307 116.041  0.00  0.00     0.119 C 
BRANCH   8   9
ATOM      9  C   LIG d   1       3.514  88.386 114.852  0.00  0.00     0.028 C 
ATOM     10  C   LIG d   1       4.169  89.772 114.722  0.00  0.00     0.006 C 
ENDBRANCH   8   9
BRANCH   8  11
ATOM     11  C   LIG d   1       1.740  87.017 115.826  0.00  0.00     0.028 C 
ATOM     12  C   LIG d   1       1.889  86.024 116.990  0.00  0.00     0.006 C 
ENDBRANCH   8  11
ENDBRANCH   7   8
ENDBRANCH   1   7
BRANCH   6  13
ATOM     13  N   LIG d   1       3.081  91.395 117.827  0.00  0.00    -0.311 N 
ATOM     14  C   LIG d   1       3.962  92.306 117.419  0.00  0.00     0.210 C 
ATOM     15  C   LIG d   1       5.399  92.077 117.897  0.00  0.00     0.109 C 
ATOM     16  O   LIG d   1       3.683  93.301 116.732  0.00  0.00    -0.276 OA
ATOM     17  H   LIG d   1       3.388  90.639 118.408  0.00  0.00     0.149 HD
ENDBRANCH   6  13
BRANCH   5  18
ATOM     18  N   LIG d   1       1.108  93.568 118.673  0.00  0.00     0.381 N 
ATOM     19  H   LIG d   1       0.787  93.897 119.562  0.00  0.00    -0.090 HD
ATOM     20  H   LIG d   1       0.637  94.088 117.955  0.00  0.00    -0.090 HD
ATOM     21  H   LIG d   1       2.092  93.699 118.598  0.00  0.00    -0.090 HD
ENDBRANCH   5  18
BRANCH   3  22
ATOM     22  C   LIG d   1      -2.427  90.399 118.037  0.00  0.00     0.382 C 
ATOM     23  O   LIG d   1      -3.334  91.244 117.845  0.00  0.00    -0.241 OA
ATOM     24  O   LIG d   1      -2.722  89.271 118.475  0.00  0.00    -0.241 OA
ENDBRANCH   3  22
TORSDOF 7
ENDMDL
MODEL 4
REMARK VINA RESULT:      -4.1      2.924      5.169
REMARK  7 active torsions:
REMARK  status: ('A' for Active; 'I' for Inactive)
REMARK    1  A    between atoms: C_2  and  C_3 
REMARK    2  A    between atoms: C_3  and  O_6 
REMARK    3  A    between atoms: C_3  and  C_4 
REMARK    4  A    between atoms: C_7  and  O_6 
REMARK    5  A    between atoms: C_9  and  C_10 
REMARK    6  A    between atoms: N_15  and  C_14 
REMARK    7  A    between atoms: N_20  and  C_19 
REMARK       I    between atoms: C_22  and  N_20 
ROOT
ATOM      1  C   LIG d   1       3.774  86.920 115.972  0.00  0.00     0.161 C 
ATOM      2  C   LIG d   1       2.564  87.630 115.894  0.00  0.00     0.016 C 
ATOM      3  C   LIG d   1       2.301  88.802 116.639  0.00  0.00     0.038 C 
ATOM      4  C   LIG d   1       3.294  89.433 117.403  0.00  0.00     0.028 C 
ATOM      5  C   LIG d   1       4.369  88.477 117.908  0.00  0.00    -0.047 C 
ATOM      6  C   LIG d   1       4.909  87.654 116.716  0.00  0.00     0.091 C 
ENDROOT
BRANCH   1   7
ATOM      7  O   LIG d   1       4.205  86.542 114.649  0.00  0.00    -0.368 OA
BRANCH   7   8
ATOM      8  C   LIG d   1       3.578  87.247 113.549  0.00  0.00     0.119 C 
BRANCH   8   9
ATOM      9  C   LIG d   1       3.196  86.199 112.486  0.00  0.00     0.028 C 
ATOM     10  C   LIG d   1       2.227  86.759 111.432  0.00  0.00     0.006 C 
ENDBRANCH   8   9
BRANCH   8  11
ATOM     11  C   LIG d   1       4.567  88.188 112.855  0.00  0.00     0.028 C 
ATOM     12  C   LIG d   1       4.397  89.653 113.287  0.00  0.00     0.006 C 
ENDBRANCH   8  11
ENDBRANCH   7   8
ENDBRANCH   1   7
BRANCH   6  13
ATOM     13  N   LIG d   1       5.905  86.635 117.135  0.00  0.00    -0.311 N 
ATOM     14  C   LIG d   1       7.220  86.850 117.130  0.00  0.00     0.210 C 
ATOM     15  C   LIG d   1       8.071  85.659 117.582  0.00  0.00     0.109 C 
ATOM     16  O   LIG d   1       7.760  87.924 116.826  0.00  0.00    -0.276 OA
ATOM     17  H   LIG d   1       5.552  85.745 117.428  0.00  0.00     0.149 HD
ENDBRANCH   6  13
BRANCH   5  18
ATOM     18  N   LIG d   1       5.410  89.286 118.570  0.00  0.00     0.381 N 
ATOM     19  H   LIG d   1       6.316  88.964 118.294  0.00  0.00    -0.090 HD
ATOM     20  H   LIG d   1       5.324  89.174 119.565  0.00  0.00    -0.090 HD
ATOM     21  H   LIG d   1       5.302  90.246 118.327  0.00  0.00    -0.090 HD
ENDBRANCH   5  18
BRANCH   3  22
ATOM     22  C   LIG d   1       1.021  89.334 116.654  0.00  0.00     0.382 C 
ATOM     23  O   LIG d   1       0.832  90.526 116.313  0.00  0.00    -0.241 OA
ATOM     24  O   LIG d   1       0.057  88.649 117.048  0.00  0.00    -0.241 OA
ENDBRANCH   3  22
TORSDOF 7
ENDMDL
MODEL 5
REMARK VINA RESULT:      -3.9      1.351      2.131
REMARK  7 active torsions:
REMARK  status: ('A' for Active; 'I' for Inactive)
REMARK    1  A    between atoms: C_2  and  C_3 
REMARK    2  A    between atoms: C_3  and  O_6 
REMARK    3  A    between atoms: C_3  and  C_4 
REMARK    4  A    between atoms: C_7  and  O_6 
REMARK    5  A    between atoms: C_9  and  C_10 
REMARK    6  A    between atoms: N_15  and  C_14 
REMARK    7  A    between atoms: N_20  and  C_19 
REMARK       I    between atoms: C_22  and  N_20 
ROOT
ATOM      1  C   LIG d   1       4.240  87.629 115.981  0.00  0.00     0.161 C 
ATOM      2  C   LIG d   1       4.370  88.541 117.042  0.00  0.00     0.016 C 
ATOM      3  C   LIG d   1       4.457  89.940 116.859  0.00  0.00     0.038 C 
ATOM      4  C   LIG d   1       4.267  90.538 115.604  0.00  0.00     0.028 C 
ATOM      5  C   LIG d   1       4.637  89.627 114.438  0.00  0.00    -0.047 C 
ATOM      6  C   LIG d   1       3.920  88.269 114.614  0.00  0.00     0.091 C 
ENDROOT
BRANCH   1   7
ATOM      7  O   LIG d   1       3.253  86.633 116.311  0.00  0.00    -0.368 OA
BRANCH   7   8
ATOM      8  C   LIG d   1       1.963  86.774 115.666  0.00  0.00     0.119 C 
BRANCH   8   9
ATOM      9  C   LIG d   1       0.940  87.150 116.755  0.00  0.00     0.028 C 
ATOM     10  C   LIG d   1       1.018  86.222 117.979  0.00  0.00     0.006 C 
ENDBRANCH   8   9
BRANCH   8  11
ATOM     11  C   LIG d   1       1.476  85.440 115.095  0.00  0.00     0.028 C 
ATOM     12  C   LIG d   1       0.998  85.554 113.638  0.00  0.00     0.006 C 
ENDBRANCH   8  11
ENDBRANCH   7   8
ENDBRANCH   1   7
BRANCH   6  13
ATOM     13  N   LIG d   1       4.293  87.290 113.560  0.00  0.00    -0.311 N 
ATOM     14  C   LIG d   1       3.718  87.249 112.360  0.00  0.00     0.210 C 
ATOM     15  C   LIG d   1       4.238  86.149 111.430  0.00  0.00     0.109 C 
ATOM     16  O   LIG d   1       2.848  88.041 111.966  0.00  0.00    -0.276 OA
ATOM     17  H   LIG d   1       5.013  86.631 113.785  0.00  0.00     0.149 HD
ENDBRANCH   6  13
BRANCH   5  18
ATOM     18  N   LIG d   1       4.261  90.323 113.193  0.00  0.00     0.381 N 
ATOM     19  H   LIG d   1       4.796  91.163 113.100  0.00  0.00    -0.090 HD
ATOM     20  H   LIG d   1       3.289  90.571 113.240  0.00  0.00    -0.090 HD
ATOM     21  H   LIG d   1       4.423  89.730 112.409  0.00  0.00    -0.090 HD
ENDBRANCH   5  18
BRANCH   3  22
ATOM     22  C   LIG d   1       4.776  90.755 117.935  0.00  0.00     0.382 C 
ATOM     23  O   LIG d   1       3.897  91.488 118.449  0.00  0.00    -0.241 OA
ATOM     24  O   LIG d   1       5.943  90.799 118.369  0.00  0.00    -0.241 OA
ENDBRANCH   3  22
TORSDOF 7
ENDMDL
MODEL 6
REMARK VINA RESULT:      -3.9      2.777      5.700
REMARK  7 active torsions:
REMARK  status: ('A' for Active; 'I' for Inactive)
REMARK    1  A    between atoms: C_2  and  C_3 
REMARK    2  A    between atoms: C_3  and  O_6 
REMARK    3  A    between atoms: C_3  and  C_4 
REMARK    4  A    between atoms: C_7  and  O_6 
REMARK    5  A    between atoms: C_9  and  C_10 
REMARK    6  A    between atoms: N_15  and  C_14 
REMARK    7  A    between atoms: N_20  and  C_19 
REMARK       I    between atoms: C_22  and  N_20 
ROOT
ATOM      1  C   LIG d   1       1.791  89.345 116.914  0.00  0.00     0.161 C 
ATOM      2  C   LIG d   1       0.495  88.847 117.126  0.00  0.00     0.016 C 
ATOM      3  C   LIG d   1      -0.489  89.532 117.875  0.00  0.00     0.038 C 
ATOM      4  C   LIG d   1      -0.291  90.841 118.338  0.00  0.00     0.028 C 
ATOM      5  C   LIG d   1       1.175  91.182 118.581  0.00  0.00    -0.047 C 
ATOM      6  C   LIG d   1       1.990  90.821 117.318  0.00  0.00     0.091 C 
ENDROOT
BRANCH   1   7
ATOM      7  O   LIG d   1       2.172  89.146 115.539  0.00  0.00    -0.368 OA
BRANCH   7   8
ATOM      8  C   LIG d   1       2.880  87.917 115.245  0.00  0.00     0.119 C 
BRANCH   8   9
ATOM      9  C   LIG d   1       3.914  87.699 116.366  0.00  0.00     0.028 C 
ATOM     10  C   LIG d   1       5.310  88.222 115.987  0.00  0.00     0.006 C 
ENDBRANCH   8   9
BRANCH   8  11
ATOM     11  C   LIG d   1       3.699  88.039 113.956  0.00  0.00     0.028 C 
ATOM     12  C   LIG d   1       2.849  88.465 112.749  0.00  0.00     0.006 C 
ENDBRANCH   8  11
ENDBRANCH   7   8
ENDBRANCH   1   7
BRANCH   6  13
ATOM     13  N   LIG d   1       3.448  91.045 117.501  0.00  0.00    -0.311 N 
ATOM     14  C   LIG d   1       4.057  92.191 117.199  0.00  0.00     0.210 C 
ATOM     15  C   LIG d   1       5.569  92.203 117.446  0.00  0.00     0.109 C 
ATOM     16  O   LIG d   1       3.484  93.208 116.782  0.00  0.00    -0.276 OA
ATOM     17  H   LIG d   1       3.985  90.282 117.864  0.00  0.00     0.149 HD
ENDBRANCH   6  13
BRANCH   5  18
ATOM     18  N   LIG d   1       1.249  92.614 118.927  0.00  0.00     0.381 N 
ATOM     19  H   LIG d   1       1.059  93.169 118.116  0.00  0.00    -0.090 HD
ATOM     20  H   LIG d   1       2.179  92.825 119.242  0.00  0.00    -0.090 HD
ATOM     21  H   LIG d   1       0.591  92.826 119.644  0.00  0.00    -0.090 HD
ENDBRANCH   5  18
BRANCH   3  22
ATOM     22  C   LIG d   1      -1.675  88.890 118.201  0.00  0.00     0.382 C 
ATOM     23  O   LIG d   1      -1.649  87.733 118.686  0.00  0.00    -0.241 OA
ATOM     24  O   LIG d   1      -2.771  89.436 117.976  0.00  0.00    -0.241 OA
ENDBRANCH   3  22
TORSDOF 7
ENDMDL
MODEL 7
REMARK VINA RESULT:      -3.9      3.182      5.411
REMARK  7 active torsions:
REMARK  status: ('A' for Active; 'I' for Inactive)
REMARK    1  A    between atoms: C_2  and  C_3 
REMARK    2  A    between atoms: C_3  and  O_6 
REMARK    3  A    between atoms: C_3  and  C_4 
REMARK    4  A    between atoms: C_7  and  O_6 
REMARK    5  A    between atoms: C_9  and  C_10 
REMARK    6  A    between atoms: N_15  and  C_14 
REMARK    7  A    between atoms: N_20  and  C_19 
REMARK       I    between atoms: C_22  and  N_20 
ROOT
ATOM      1  C   LIG d   1       4.360  89.503 116.804  0.00  0.00     0.161 C 
ATOM      2  C   LIG d   1       3.027  89.916 116.639  0.00  0.00     0.016 C 
ATOM      3  C   LIG d   1       2.552  91.187 117.036  0.00  0.00     0.038 C 
ATOM      4  C   LIG d   1       3.416  92.193 117.490  0.00  0.00     0.028 C 
ATOM      5  C   LIG d   1       4.683  91.654 118.146  0.00  0.00    -0.047 C 
ATOM      6  C   LIG d   1       5.341  90.627 117.196  0.00  0.00     0.091 C 
ENDROOT
BRANCH   1   7
ATOM      7  O   LIG d   1       4.815  88.833 115.612  0.00  0.00    -0.368 OA
BRANCH   7   8
ATOM      8  C   LIG d   1       3.805  88.555 114.612  0.00  0.00     0.119 C 
BRANCH   8   9
ATOM      9  C   LIG d   1       3.728  87.025 114.444  0.00  0.00     0.028 C 
ATOM     10  C   LIG d   1       2.309  86.479 114.677  0.00  0.00     0.006 C 
ENDBRANCH   8   9
BRANCH   8  11
ATOM     11  C   LIG d   1       4.218  89.094 113.239  0.00  0.00     0.028 C 
ATOM     12  C   LIG d   1       5.183  88.156 112.497  0.00  0.00     0.006 C 
ENDBRANCH   8  11
ENDBRANCH   7   8
ENDBRANCH   1   7
BRANCH   6  13
ATOM     13  N   LIG d   1       6.541  89.988 117.796  0.00  0.00    -0.311 N 
ATOM     14  C   LIG d   1       7.772  90.484 117.680  0.00  0.00     0.210 C 
ATOM     15  C   LIG d   1       8.869  89.658 118.359  0.00  0.00     0.109 C 
ATOM     16  O   LIG d   1       8.055  91.547 117.108  0.00  0.00    -0.276 OA
ATOM     17  H   LIG d   1       6.399  89.137 118.305  0.00  0.00     0.149 HD
ENDBRANCH   6  13
BRANCH   5  18
ATOM     18  N   LIG d   1       5.554  92.805 118.447  0.00  0.00     0.381 N 
ATOM     19  H   LIG d   1       5.067  93.658 118.257  0.00  0.00    -0.090 HD
ATOM     20  H   LIG d   1       6.363  92.765 117.852  0.00  0.00    -0.090 HD
ATOM     21  H   LIG d   1       5.835  92.780 119.402  0.00  0.00    -0.090 HD
ENDBRANCH   5  18
BRANCH   3  22
ATOM     22  C   LIG d   1       1.190  91.447 117.017  0.00  0.00     0.382 C 
ATOM     23  O   LIG d   1       0.412  90.673 116.409  0.00  0.00    -0.241 OA
ATOM     24  O   LIG d   1       0.735  92.470 117.563  0.00  0.00    -0.241 OA
ENDBRANCH   3  22
TORSDOF 7
ENDMDL
MODEL 8
REMARK VINA RESULT:      -3.8      2.299      5.024
REMARK  7 active torsions:
REMARK  status: ('A' for Active; 'I' for Inactive)
REMARK    1  A    between atoms: C_2  and  C_3 
REMARK    2  A    between atoms: C_3  and  O_6 
REMARK    3  A    between atoms: C_3  and  C_4 
REMARK    4  A    between atoms: C_7  and  O_6 
REMARK    5  A    between atoms: C_9  and  C_10 
REMARK    6  A    between atoms: N_15  and  C_14 
REMARK    7  A    between atoms: N_20  and  C_19 
REMARK       I    between atoms: C_22  and  N_20 
ROOT
ATOM      1  C   LIG d   1       3.435  87.541 115.955  0.00  0.00     0.161 C 
ATOM      2  C   LIG d   1       4.150  87.968 114.823  0.00  0.00     0.016 C 
ATOM      3  C   LIG d   1       3.783  87.633 113.499  0.00  0.00     0.038 C 
ATOM      4  C   LIG d   1       2.582  86.971 113.208  0.00  0.00     0.028 C 
ATOM      5  C   LIG d   1       2.088  86.083 114.345  0.00  0.00    -0.047 C 
ATOM      6  C   LIG d   1       2.060  86.910 115.651  0.00  0.00     0.091 C 
ENDROOT
BRANCH   1   7
ATOM      7  O   LIG d   1       3.291  88.634 116.883  0.00  0.00    -0.368 OA
BRANCH   7   8
ATOM      8  C   LIG d   1       2.901  89.907 116.312  0.00  0.00     0.119 C 
BRANCH   8   9
ATOM      9  C   LIG d   1       3.787  90.993 116.953  0.00  0.00     0.028 C 
ATOM     10  C   LIG d   1       5.287  90.692 116.798  0.00  0.00     0.006 C 
ENDBRANCH   8   9
BRANCH   8  11
ATOM     11  C   LIG d   1       1.465  90.275 116.699  0.00  0.00     0.028 C 
ATOM     12  C   LIG d   1       1.346  90.761 118.152  0.00  0.00     0.006 C 
ENDBRANCH   8  11
ENDBRANCH   7   8
ENDBRANCH   1   7
BRANCH   6  13
ATOM     13  N   LIG d   1       1.668  86.095 116.830  0.00  0.00    -0.311 N 
ATOM     14  C   LIG d   1       0.649  86.405 117.630  0.00  0.00     0.210 C 
ATOM     15  C   LIG d   1       0.429  85.441 118.800  0.00  0.00     0.109 C 
ATOM     16  O   LIG d   1      -0.113  87.369 117.463  0.00  0.00    -0.276 OA
ATOM     17  H   LIG d   1       2.214  85.278 117.021  0.00  0.00     0.149 HD
ENDBRANCH   6  13
BRANCH   5  18
ATOM     18  N   LIG d   1       0.762  85.563 113.961  0.00  0.00     0.381 N 
ATOM     19  H   LIG d   1       0.442  84.910 114.648  0.00  0.00    -0.090 HD
ATOM     20  H   LIG d   1       0.843  85.082 113.083  0.00  0.00    -0.090 HD
ATOM     21  H   LIG d   1       0.112  86.314 113.878  0.00  0.00    -0.090 HD
ENDBRANCH   5  18
BRANCH   3  22
ATOM     22  C   LIG d   1       4.644  87.929 112.453  0.00  0.00     0.382 C 
ATOM     23  O   LIG d   1       5.379  88.944 112.513  0.00  0.00    -0.241 OA
ATOM     24  O   LIG d   1       4.662  87.218 111.430  0.00  0.00    -0.241 OA
ENDBRANCH   3  22
TORSDOF 7
ENDMDL
MODEL 9
REMARK VINA RESULT:      -3.8      3.377      5.826
REMARK  7 active torsions:
REMARK  status: ('A' for Active; 'I' for Inactive)
REMARK    1  A    between atoms: C_2  and  C_3 
REMARK    2  A    between atoms: C_3  and  O_6 
REMARK    3  A    between atoms: C_3  and  C_4 
REMARK    4  A    between atoms: C_7  and  O_6 
REMARK    5  A    between atoms: C_9  and  C_10 
REMARK    6  A    between atoms: N_15  and  C_14 
REMARK    7  A    between atoms: N_20  and  C_19 
REMARK       I    between atoms: C_22  and  N_20 
ROOT
ATOM      1  C   LIG d   1       2.477  91.952 117.250  0.00  0.00     0.161 C 
ATOM      2  C   LIG d   1       1.971  93.246 117.462  0.00  0.00     0.016 C 
ATOM      3  C   LIG d   1       0.594  93.528 117.608  0.00  0.00     0.038 C 
ATOM      4  C   LIG d   1      -0.366  92.509 117.703  0.00  0.00     0.028 C 
ATOM      5  C   LIG d   1       0.042  91.225 116.989  0.00  0.00    -0.047 C 
ATOM      6  C   LIG d   1       1.456  90.815 117.461  0.00  0.00     0.091 C 
ENDROOT
BRANCH   1   7
ATOM      7  O   LIG d   1       3.640  91.741 118.075  0.00  0.00    -0.368 OA
BRANCH   7   8
ATOM      8  C   LIG d   1       4.912  92.116 117.492  0.00  0.00     0.119 C 
BRANCH   8   9
ATOM      9  C   LIG d   1       5.562  90.835 116.935  0.00  0.00     0.028 C 
ATOM     10  C   LIG d   1       5.437  89.645 117.903  0.00  0.00     0.006 C 
ENDBRANCH   8   9
BRANCH   8  11
ATOM     11  C   LIG d   1       5.883  92.633 118.558  0.00  0.00     0.028 C 
ATOM     12  C   LIG d   1       5.966  94.168 118.594  0.00  0.00     0.006 C 
ENDBRANCH   8  11
ENDBRANCH   7   8
ENDBRANCH   1   7
BRANCH   6  13
ATOM     13  N   LIG d   1       1.966  89.615 116.749  0.00  0.00    -0.311 N 
ATOM     14  C   LIG d   1       1.836  88.375 117.217  0.00  0.00     0.210 C 
ATOM     15  C   LIG d   1       2.451  87.283 116.336  0.00  0.00     0.109 C 
ATOM     16  O   LIG d   1       1.243  88.072 118.263  0.00  0.00    -0.276 OA
ATOM     17  H   LIG d   1       2.434  89.766 115.877  0.00  0.00     0.149 HD
ENDBRANCH   6  13
BRANCH   5  18
ATOM     18  N   LIG d   1      -0.983  90.206 117.284  0.00  0.00     0.381 N 
ATOM     19  H   LIG d   1      -1.475  90.452 118.120  0.00  0.00    -0.090 HD
ATOM     20  H   LIG d   1      -0.530  89.322 117.432  0.00  0.00    -0.090 HD
ATOM     21  H   LIG d   1      -1.623  90.136 116.523  0.00  0.00    -0.090 HD
ENDBRANCH   5  18
BRANCH   3  22
ATOM     22  C   LIG d   1       0.160  94.845 117.621  0.00  0.00     0.382 C 
ATOM     23  O   LIG d   1       0.359  95.561 118.632  0.00  0.00    -0.241 OA
ATOM     24  O   LIG d   1      -0.468  95.312 116.652  0.00  0.00    -0.241 OA
ENDBRANCH   3  22
TORSDOF 7
ENDMDL
