MODEL 1
REMARK VINA RESULT:      -4.7      0.000      0.000
REMARK  7 active torsions:
REMARK  status: ('A' for Active; 'I' for Inactive)
REMARK    1  A    between atoms: C_2  and  C_3 
REMARK    2  A    between atoms: C_3  and  O_6 
REMARK    3  A    between atoms: C_3  and  C_4 
REMARK    4  A    between atoms: C_7  and  O_6 
REMARK    5  A    between atoms: C_9  and  C_10 
REMARK    6  A    between atoms: N_15  and  C_14 
REMARK    7  A    between atoms: N_20  and  C_19 
REMARK       I    between atoms: C_22  and  N_20 
ROOT
ATOM      1  C   LIG d   1       1.907  87.249 114.603  0.00  0.00     0.161 C 
ATOM      2  C   LIG d   1       0.750  87.166 115.396  0.00  0.00     0.016 C 
ATOM      3  C   LIG d   1       0.568  87.908 116.586  0.00  0.00     0.038 C 
ATOM      4  C   LIG d   1       1.473  88.903 116.986  0.00  0.00     0.028 C 
ATOM      5  C   LIG d   1       2.894  88.664 116.488  0.00  0.00    -0.047 C 
ATOM      6  C   LIG d   1       2.856  88.411 114.963  0.00  0.00     0.091 C 
ENDROOT
BRANCH   1   7
ATOM      7  O   LIG d   1       1.540  87.315 113.211  0.00  0.00    -0.368 OA
BRANCH   7   8
ATOM      8  C   LIG d   1       1.814  86.130 112.423  0.00  0.00     0.119 C 
BRANCH   8   9
ATOM      9  C   LIG d   1       2.939  86.484 111.431  0.00  0.00     0.028 C 
ATOM     10  C   LIG d   1       4.148  85.542 111.555  0.00  0.00     0.006 C 
ENDBRANCH   8   9
BRANCH   8  11
ATOM     11  C   LIG d   1       0.612  85.749 111.554  0.00  0.00     0.028 C 
ATOM     12  C   LIG d   1      -0.723  85.844 112.309  0.00  0.00     0.006 C 
ENDBRANCH   8  11
ENDBRANCH   7   8
ENDBRANCH   1   7
BRANCH   6  13
ATOM     13  N   LIG d   1       4.196  88.085 114.409  0.00  0.00    -0.311 N 
ATOM     14  C   LIG d   1       4.820  88.841 113.507  0.00  0.00     0.210 C 
ATOM     15  C   LIG d   1       6.185  88.314 113.054  0.00  0.00     0.109 C 
ATOM     16  O   LIG d   1       4.387  89.915 113.063  0.00  0.00    -0.276 OA
ATOM     17  H   LIG d   1       4.634  87.247 114.738  0.00  0.00     0.149 HD
ENDBRANCH   6  13
BRANCH   5  18
ATOM     18  N   LIG d   1       3.700  89.843 116.858  0.00  0.00     0.381 N 
ATOM     19  H   LIG d   1       3.420  90.175 117.759  0.00  0.00    -0.090 HD
ATOM     20  H   LIG d   1       3.535  90.573 116.188  0.00  0.00    -0.090 HD
ATOM     21  H   LIG d   1       4.667  89.605 116.870  0.00  0.00    -0.090 HD
ENDBRANCH   5  18
BRANCH   3  22
ATOM     22  C   LIG d   1      -0.510  87.628 117.412  0.00  0.00     0.382 C 
ATOM     23  O   LIG d   1      -1.590  88.250 117.265  0.00  0.00    -0.241 OA
ATOM     24  O   LIG d   1      -0.403  86.793 118.330  0.00  0.00    -0.241 OA
ENDBRANCH   3  22
TORSDOF 7
ENDMDL
MODEL 2
REMARK VINA RESULT:      -4.4      3.075      5.031
REMARK  7 active torsions:
REMARK  status: ('A' for Active; 'I' for Inactive)
REMARK    1  A    between atoms: C_2  and  C_3 
REMARK    2  A    between atoms: C_3  and  O_6 
REMARK    3  A    between atoms: C_3  and  C_4 
REMARK    4  A    between atoms: C_7  and  O_6 
REMARK    5  A    between atoms: C_9  and  C_10 
REMARK    6  A    between atoms: N_15  and  C_14 
REMARK    7  A    between atoms: N_20  and  C_19 
REMARK       I    between atoms: C_22  and  N_20 
ROOT
ATOM      1  C   LIG d   1       3.213  89.057 115.846  0.00  0.00     0.161 C 
ATOM      2  C   LIG d   1       3.743  90.142 116.563  0.00  0.00     0.016 C 
ATOM      3  C   LIG d   1       2.943  91.106 117.220  0.00  0.00     0.038 C 
ATOM      4  C   LIG d   1       1.552  90.963 117.332  0.00  0.00     0.028 C 
ATOM      5  C   LIG d   1       0.933  90.156 116.196  0.00  0.00    -0.047 C 
ATOM      6  C   LIG d   1       1.701  88.822 116.050  0.00  0.00     0.091 C 
ENDROOT
BRANCH   1   7
ATOM      7  O   LIG d   1       3.952  87.859 116.156  0.00  0.00    -0.368 OA
BRANCH   7   8
ATOM      8  C   LIG d   1       5.108  87.590 115.325  0.00  0.00     0.119 C 
BRANCH   8   9
ATOM      9  C   LIG d   1       4.614  86.833 114.077  0.00  0.00     0.028 C 
ATOM     10  C   LIG d   1       4.799  87.648 112.786  0.00  0.00     0.006 C 
ENDBRANCH   8   9
BRANCH   8  11
ATOM     11  C   LIG d   1       6.083  86.634 116.019  0.00  0.00     0.028 C 
ATOM     12  C   LIG d   1       7.452  87.275 116.294  0.00  0.00     0.006 C 
ENDBRANCH   8  11
ENDBRANCH   7   8
ENDBRANCH   1   7
BRANCH   6  13
ATOM     13  N   LIG d   1       1.214  88.009 114.906  0.00  0.00    -0.311 N 
ATOM     14  C   LIG d   1       0.990  86.698 114.982  0.00  0.00     0.210 C 
ATOM     15  C   LIG d   1       0.508  86.048 113.681  0.00  0.00     0.109 C 
ATOM     16  O   LIG d   1       1.113  86.018 116.011  0.00  0.00    -0.276 OA
ATOM     17  H   LIG d   1       1.057  88.487 114.041  0.00  0.00     0.149 HD
ENDBRANCH   6  13
BRANCH   5  18
ATOM     18  N   LIG d   1      -0.496  89.968 116.510  0.00  0.00     0.381 N 
ATOM     19  H   LIG d   1      -1.019  89.869 115.663  0.00  0.00    -0.090 HD
ATOM     20  H   LIG d   1      -0.832  90.781 116.995  0.00  0.00    -0.090 HD
ATOM     21  H   LIG d   1      -0.617  89.159 117.080  0.00  0.00    -0.090 HD
ENDBRANCH   5  18
BRANCH   3  22
ATOM     22  C   LIG d   1       3.532  92.248 117.740  0.00  0.00     0.382 C 
ATOM     23  O   LIG d   1       4.339  92.910 117.044  0.00  0.00    -0.241 OA
ATOM     24  O   LIG d   1       3.299  92.602 118.912  0.00  0.00    -0.241 OA
ENDBRANCH   3  22
TORSDOF 7
ENDMDL
MODEL 3
REMARK VINA RESULT:      -4.4      2.215      5.207
REMARK  7 active torsions:
REMARK  status: ('A' for Active; 'I' for Inactive)
REMARK    1  A    between atoms: C_2  and  C_3 
REMARK    2  A    between atoms: C_3  and  O_6 
REMARK    3  A    between atoms: C_3  and  C_4 
REMARK    4  A    between atoms: C_7  and  O_6 
REMARK    5  A    between atoms: C_9  and  C_10 
REMARK    6  A    between atoms: N_15  and  C_14 
REMARK    7  A    between atoms: N_20  and  C_19 
REMARK       I    between atoms: C_22  and  N_20 
ROOT
ATOM      1  C   LIG d   1       3.010  88.338 115.061  0.00  0.00     0.161 C 
ATOM      2  C   LIG d   1       2.534  87.449 114.083  0.00  0.00     0.016 C 
ATOM      3  C   LIG d   1       3.196  87.215 112.855  0.00  0.00     0.038 C 
ATOM      4  C   LIG d   1       4.467  87.746 112.586  0.00  0.00     0.028 C 
ATOM      5  C   LIG d   1       4.751  89.046 113.330  0.00  0.00    -0.047 C 
ATOM      6  C   LIG d   1       4.451  88.840 114.832  0.00  0.00     0.091 C 
ENDROOT
BRANCH   1   7
ATOM      7  O   LIG d   1       2.890  87.738 116.366  0.00  0.00    -0.368 OA
BRANCH   7   8
ATOM      8  C   LIG d   1       1.890  88.314 117.243  0.00  0.00     0.119 C 
BRANCH   8   9
ATOM      9  C   LIG d   1       0.789  87.255 117.448  0.00  0.00     0.028 C 
ATOM     10  C   LIG d   1      -0.555  87.679 116.832  0.00  0.00     0.006 C 
ENDBRANCH   8   9
BRANCH   8  11
ATOM     11  C   LIG d   1       1.190  89.505 116.583  0.00  0.00     0.028 C 
ATOM     12  C   LIG d   1       1.484  90.837 117.291  0.00  0.00     0.006 C 
ENDBRANCH   8  11
ENDBRANCH   7   8
ENDBRANCH   1   7
BRANCH   6  13
ATOM     13  N   LIG d   1       4.622  90.088 115.621  0.00  0.00    -0.311 N 
ATOM     14  C   LIG d   1       5.368  90.164 116.722  0.00  0.00     0.210 C 
ATOM     15  C   LIG d   1       5.393  91.541 117.393  0.00  0.00     0.109 C 
ATOM     16  O   LIG d   1       6.037  89.229 117.188  0.00  0.00    -0.276 OA
ATOM     17  H   LIG d   1       4.139  90.903 115.296  0.00  0.00     0.149 HD
ENDBRANCH   6  13
BRANCH   5  18
ATOM     18  N   LIG d   1       6.155  89.413 113.066  0.00  0.00     0.381 N 
ATOM     19  H   LIG d   1       6.696  89.304 113.900  0.00  0.00    -0.090 HD
ATOM     20  H   LIG d   1       6.192  90.378 112.790  0.00  0.00    -0.090 HD
ATOM     21  H   LIG d   1       6.527  88.838 112.342  0.00  0.00    -0.090 HD
ENDBRANCH   5  18
BRANCH   3  22
ATOM     22  C   LIG d   1       2.568  86.476 111.865  0.00  0.00     0.382 C 
ATOM     23  O   LIG d   1       1.446  86.833 111.433  0.00  0.00    -0.241 OA
ATOM     24  O   LIG d   1       3.088  85.431 111.431  0.00  0.00    -0.241 OA
ENDBRANCH   3  22
TORSDOF 7
ENDMDL
MODEL 4
REMARK VINA RESULT:      -4.3      5.612      7.922
REMARK  7 active torsions:
REMARK  status: ('A' for Active; 'I' for Inactive)
REMARK    1  A    between atoms: C_2  and  C_3 
REMARK    2  A    between atoms: C_3  and  O_6 
REMARK    3  A    between atoms: C_3  and  C_4 
REMARK    4  A    between atoms: C_7  and  O_6 
REMARK    5  A    between atoms: C_9  and  C_10 
REMARK    6  A    between atoms: N_15  and  C_14 
REMARK    7  A    between atoms: N_20  and  C_19 
REMARK       I    between atoms: C_22  and  N_20 
ROOT
ATOM      1  C   LIG d   1      -4.252  90.712 118.402  0.00  0.00     0.161 C 
ATOM      2  C   LIG d   1      -5.045  91.871 118.414  0.00  0.00     0.016 C 
ATOM      3  C   LIG d   1      -4.512  93.179 118.361  0.00  0.00     0.038 C 
ATOM      4  C   LIG d   1      -3.147  93.415 118.140  0.00  0.00     0.028 C 
ATOM      5  C   LIG d   1      -2.250  92.283 118.628  0.00  0.00    -0.047 C 
ATOM      6  C   LIG d   1      -2.768  90.947 118.050  0.00  0.00     0.091 C 
ENDROOT
BRANCH   1   7
ATOM      7  O   LIG d   1      -4.829  89.733 117.515  0.00  0.00    -0.368 OA
BRANCH   7   8
ATOM      8  C   LIG d   1      -4.540  89.902 116.106  0.00  0.00     0.119 C 
BRANCH   8   9
ATOM      9  C   LIG d   1      -5.887  89.964 115.360  0.00  0.00     0.028 C 
ATOM     10  C   LIG d   1      -6.220  91.382 114.868  0.00  0.00     0.006 C 
ENDBRANCH   8   9
BRANCH   8  11
ATOM     11  C   LIG d   1      -3.816  88.678 115.535  0.00  0.00     0.028 C 
ATOM     12  C   LIG d   1      -4.349  88.262 114.155  0.00  0.00     0.006 C 
ENDBRANCH   8  11
ENDBRANCH   7   8
ENDBRANCH   1   7
BRANCH   6  13
ATOM     13  N   LIG d   1      -1.997  89.777 118.546  0.00  0.00    -0.311 N 
ATOM     14  C   LIG d   1      -0.895  89.321 117.953  0.00  0.00     0.210 C 
ATOM     15  C   LIG d   1      -0.266  88.091 118.616  0.00  0.00     0.109 C 
ATOM     16  O   LIG d   1      -0.361  89.837 116.960  0.00  0.00    -0.276 OA
ATOM     17  H   LIG d   1      -2.343  89.317 119.365  0.00  0.00     0.149 HD
ENDBRANCH   6  13
BRANCH   5  18
ATOM     18  N   LIG d   1      -0.870  92.597 118.212  0.00  0.00     0.381 N 
ATOM     19  H   LIG d   1      -0.435  93.184 118.895  0.00  0.00    -0.090 HD
ATOM     20  H   LIG d   1      -0.899  93.095 117.340  0.00  0.00    -0.090 HD
ATOM     21  H   LIG d   1      -0.346  91.756 118.105  0.00  0.00    -0.090 HD
ENDBRANCH   5  18
BRANCH   3  22
ATOM     22  C   LIG d   1      -5.343  94.269 118.571  0.00  0.00     0.382 C 
ATOM     23  O   LIG d   1      -4.855  95.375 118.907  0.00  0.00    -0.241 OA
ATOM     24  O   LIG d   1      -6.579  94.149 118.472  0.00  0.00    -0.241 OA
ENDBRANCH   3  22
TORSDOF 7
ENDMDL
MODEL 5
REMARK VINA RESULT:      -4.1      2.633      4.669
REMARK  7 active torsions:
REMARK  status: ('A' for Active; 'I' for Inactive)
REMARK    1  A    between atoms: C_2  and  C_3 
REMARK    2  A    between atoms: C_3  and  O_6 
REMARK    3  A    between atoms: C_3  and  C_4 
REMARK    4  A    between atoms: C_7  and  O_6 
REMARK    5  A    between atoms: C_9  and  C_10 
REMARK    6  A    between atoms: N_15  and  C_14 
REMARK    7  A    between atoms: N_20  and  C_19 
REMARK       I    between atoms: C_22  and  N_20 
ROOT
ATOM      1  C   LIG d   1       4.093  87.333 116.015  0.00  0.00     0.161 C 
ATOM      2  C   LIG d   1       4.608  88.029 117.121  0.00  0.00     0.016 C 
ATOM      3  C   LIG d   1       5.329  89.240 117.012  0.00  0.00     0.038 C 
ATOM      4  C   LIG d   1       5.454  89.921 115.791  0.00  0.00     0.028 C 
ATOM      5  C   LIG d   1       5.385  89.003 114.576  0.00  0.00    -0.047 C 
ATOM      6  C   LIG d   1       4.123  88.117 114.686  0.00  0.00     0.091 C 
ENDROOT
BRANCH   1   7
ATOM      7  O   LIG d   1       2.754  86.883 116.301  0.00  0.00    -0.368 OA
BRANCH   7   8
ATOM      8  C   LIG d   1       1.683  87.765 115.884  0.00  0.00     0.119 C 
BRANCH   8   9
ATOM      9  C   LIG d   1       1.226  88.558 117.123  0.00  0.00     0.028 C 
ATOM     10  C   LIG d   1       1.297  90.079 116.905  0.00  0.00     0.006 C 
ENDBRANCH   8   9
BRANCH   8  11
ATOM     11  C   LIG d   1       0.452  86.972 115.434  0.00  0.00     0.028 C 
ATOM     12  C   LIG d   1       0.775  85.938 114.344  0.00  0.00     0.006 C 
ENDBRANCH   8  11
ENDBRANCH   7   8
ENDBRANCH   1   7
BRANCH   6  13
ATOM     13  N   LIG d   1       4.024  87.131 113.579  0.00  0.00    -0.311 N 
ATOM     14  C   LIG d   1       3.363  87.363 112.447  0.00  0.00     0.210 C 
ATOM     15  C   LIG d   1       3.368  86.204 111.445  0.00  0.00     0.109 C 
ATOM     16  O   LIG d   1       2.799  88.431 112.164  0.00  0.00    -0.276 OA
ATOM     17  H   LIG d   1       4.479  86.249 113.712  0.00  0.00     0.149 HD
ENDBRANCH   6  13
BRANCH   5  18
ATOM     18  N   LIG d   1       5.389  89.856 113.372  0.00  0.00     0.381 N 
ATOM     19  H   LIG d   1       6.273  90.317 113.287  0.00  0.00    -0.090 HD
ATOM     20  H   LIG d   1       4.675  90.556 113.468  0.00  0.00    -0.090 HD
ATOM     21  H   LIG d   1       5.216  89.303 112.562  0.00  0.00    -0.090 HD
ENDBRANCH   5  18
BRANCH   3  22
ATOM     22  C   LIG d   1       5.969  89.763 118.125  0.00  0.00     0.382 C 
ATOM     23  O   LIG d   1       5.396  90.630 118.828  0.00  0.00    -0.241 OA
ATOM     24  O   LIG d   1       7.129  89.410 118.411  0.00  0.00    -0.241 OA
ENDBRANCH   3  22
TORSDOF 7
ENDMDL
MODEL 6
REMARK VINA RESULT:      -4.0      3.082      5.190
REMARK  7 active torsions:
REMARK  status: ('A' for Active; 'I' for Inactive)
REMARK    1  A    between atoms: C_2  and  C_3 
REMARK    2  A    between atoms: C_3  and  O_6 
REMARK    3  A    between atoms: C_3  and  C_4 
REMARK    4  A    between atoms: C_7  and  O_6 
REMARK    5  A    between atoms: C_9  and  C_10 
REMARK    6  A    between atoms: N_15  and  C_14 
REMARK    7  A    between atoms: N_20  and  C_19 
REMARK       I    between atoms: C_22  and  N_20 
ROOT
ATOM      1  C   LIG d   1       4.613  88.949 115.338  0.00  0.00     0.161 C 
ATOM      2  C   LIG d   1       4.469  90.065 116.179  0.00  0.00     0.016 C 
ATOM      3  C   LIG d   1       3.233  90.460 116.742  0.00  0.00     0.038 C 
ATOM      4  C   LIG d   1       2.078  89.674 116.622  0.00  0.00     0.028 C 
ATOM      5  C   LIG d   1       2.062  88.809 115.366  0.00  0.00    -0.047 C 
ATOM      6  C   LIG d   1       3.386  88.015 115.286  0.00  0.00     0.091 C 
ENDROOT
BRANCH   1   7
ATOM      7  O   LIG d   1       5.792  88.206 115.709  0.00  0.00    -0.368 OA
BRANCH   7   8
ATOM      8  C   LIG d   1       6.193  88.301 117.098  0.00  0.00     0.119 C 
BRANCH   8   9
ATOM      9  C   LIG d   1       7.734  88.312 117.135  0.00  0.00     0.028 C 
ATOM     10  C   LIG d   1       8.298  89.642 117.662  0.00  0.00     0.006 C 
ENDBRANCH   8   9
BRANCH   8  11
ATOM     11  C   LIG d   1       5.778  87.053 117.884  0.00  0.00     0.028 C 
ATOM     12  C   LIG d   1       4.571  87.303 118.803  0.00  0.00     0.006 C 
ENDBRANCH   8  11
ENDBRANCH   7   8
ENDBRANCH   1   7
BRANCH   6  13
ATOM     13  N   LIG d   1       3.488  87.207 114.043  0.00  0.00    -0.311 N 
ATOM     14  C   LIG d   1       3.304  87.710 112.824  0.00  0.00     0.210 C 
ATOM     15  C   LIG d   1       3.436  86.700 111.680  0.00  0.00     0.109 C 
ATOM     16  O   LIG d   1       3.077  88.905 112.579  0.00  0.00    -0.276 OA
ATOM     17  H   LIG d   1       3.700  86.234 114.148  0.00  0.00     0.149 HD
ENDBRANCH   6  13
BRANCH   5  18
ATOM     18  N   LIG d   1       0.871  87.942 115.437  0.00  0.00     0.381 N 
ATOM     19  H   LIG d   1       1.080  87.123 115.973  0.00  0.00    -0.090 HD
ATOM     20  H   LIG d   1       0.621  87.655 114.507  0.00  0.00    -0.090 HD
ATOM     21  H   LIG d   1       0.113  88.436 115.855  0.00  0.00    -0.090 HD
ENDBRANCH   5  18
BRANCH   3  22
ATOM     22  C   LIG d   1       3.136  91.677 117.400  0.00  0.00     0.382 C 
ATOM     23  O   LIG d   1       3.943  92.600 117.134  0.00  0.00    -0.241 OA
ATOM     24  O   LIG d   1       2.280  91.848 118.289  0.00  0.00    -0.241 OA
ENDBRANCH   3  22
TORSDOF 7
ENDMDL
MODEL 7
REMARK VINA RESULT:      -4.0      5.838      8.626
REMARK  7 active torsions:
REMARK  status: ('A' for Active; 'I' for Inactive)
REMARK    1  A    between atoms: C_2  and  C_3 
REMARK    2  A    between atoms: C_3  and  O_6 
REMARK    3  A    between atoms: C_3  and  C_4 
REMARK    4  A    between atoms: C_7  and  O_6 
REMARK    5  A    between atoms: C_9  and  C_10 
REMARK    6  A    between atoms: N_15  and  C_14 
REMARK    7  A    between atoms: N_20  and  C_19 
REMARK       I    between atoms: C_22  and  N_20 
ROOT
ATOM      1  C   LIG d   1      -4.022  91.280 116.742  0.00  0.00     0.161 C 
ATOM      2  C   LIG d   1      -5.357  91.140 116.326  0.00  0.00     0.016 C 
ATOM      3  C   LIG d   1      -5.860  89.973 115.706  0.00  0.00     0.038 C 
ATOM      4  C   LIG d   1      -5.094  88.803 115.595  0.00  0.00     0.028 C 
ATOM      5  C   LIG d   1      -3.593  89.065 115.543  0.00  0.00    -0.047 C 
ATOM      6  C   LIG d   1      -3.201  89.974 116.730  0.00  0.00     0.091 C 
ENDROOT
BRANCH   1   7
ATOM      7  O   LIG d   1      -3.979  91.887 118.048  0.00  0.00    -0.368 OA
BRANCH   7   8
ATOM      8  C   LIG d   1      -4.027  93.335 118.080  0.00  0.00     0.119 C 
BRANCH   8   9
ATOM      9  C   LIG d   1      -2.759  93.824 118.807  0.00  0.00     0.028 C 
ATOM     10  C   LIG d   1      -1.562  93.984 117.856  0.00  0.00     0.006 C 
ENDBRANCH   8   9
BRANCH   8  11
ATOM     11  C   LIG d   1      -5.200  93.835 118.929  0.00  0.00     0.028 C 
ATOM     12  C   LIG d   1      -6.189  94.697 118.128  0.00  0.00     0.006 C 
ENDBRANCH   8  11
ENDBRANCH   7   8
ENDBRANCH   1   7
BRANCH   6  13
ATOM     13  N   LIG d   1      -1.762  90.348 116.706  0.00  0.00    -0.311 N 
ATOM     14  C   LIG d   1      -0.807  89.622 117.284  0.00  0.00     0.210 C 
ATOM     15  C   LIG d   1       0.608  90.198 117.159  0.00  0.00     0.109 C 
ATOM     16  O   LIG d   1      -0.991  88.540 117.860  0.00  0.00    -0.276 OA
ATOM     17  H   LIG d   1      -1.519  91.196 116.233  0.00  0.00     0.149 HD
ENDBRANCH   6  13
BRANCH   5  18
ATOM     18  N   LIG d   1      -2.911  87.757 115.567  0.00  0.00     0.381 N 
ATOM     19  H   LIG d   1      -3.099  87.262 114.718  0.00  0.00    -0.090 HD
ATOM     20  H   LIG d   1      -3.271  87.217 116.333  0.00  0.00    -0.090 HD
ATOM     21  H   LIG d   1      -1.929  87.886 115.674  0.00  0.00    -0.090 HD
ENDBRANCH   5  18
BRANCH   3  22
ATOM     22  C   LIG d   1      -7.131  89.983 115.152  0.00  0.00     0.382 C 
ATOM     23  O   LIG d   1      -8.014  89.210 115.596  0.00  0.00    -0.241 OA
ATOM     24  O   LIG d   1      -7.394  90.723 114.185  0.00  0.00    -0.241 OA
ENDBRANCH   3  22
TORSDOF 7
ENDMDL
MODEL 8
REMARK VINA RESULT:      -4.0      1.795      2.746
REMARK  7 active torsions:
REMARK  status: ('A' for Active; 'I' for Inactive)
REMARK    1  A    between atoms: C_2  and  C_3 
REMARK    2  A    between atoms: C_3  and  O_6 
REMARK    3  A    between atoms: C_3  and  C_4 
REMARK    4  A    between atoms: C_7  and  O_6 
REMARK    5  A    between atoms: C_9  and  C_10 
REMARK    6  A    between atoms: N_15  and  C_14 
REMARK    7  A    between atoms: N_20  and  C_19 
REMARK       I    between atoms: C_22  and  N_20 
ROOT
ATOM      1  C   LIG d   1       1.483  87.470 116.716  0.00  0.00     0.161 C 
ATOM      2  C   LIG d   1       0.104  87.262 116.884  0.00  0.00     0.016 C 
ATOM      3  C   LIG d   1      -0.820  88.310 117.101  0.00  0.00     0.038 C 
ATOM      4  C   LIG d   1      -0.445  89.659 117.013  0.00  0.00     0.028 C 
ATOM      5  C   LIG d   1       1.023  89.903 117.346  0.00  0.00    -0.047 C 
ATOM      6  C   LIG d   1       1.895  88.942 116.506  0.00  0.00     0.091 C 
ENDROOT
BRANCH   1   7
ATOM      7  O   LIG d   1       1.971  86.653 115.632  0.00  0.00    -0.368 OA
BRANCH   7   8
ATOM      8  C   LIG d   1       1.422  86.938 114.322  0.00  0.00     0.119 C 
BRANCH   8   9
ATOM      9  C   LIG d   1       0.790  85.636 113.792  0.00  0.00     0.028 C 
ATOM     10  C   LIG d   1      -0.508  85.891 113.007  0.00  0.00     0.006 C 
ENDBRANCH   8   9
BRANCH   8  11
ATOM     11  C   LIG d   1       2.525  87.291 113.320  0.00  0.00     0.028 C 
ATOM     12  C   LIG d   1       3.871  86.634 113.661  0.00  0.00     0.006 C 
ENDBRANCH   8  11
ENDBRANCH   7   8
ENDBRANCH   1   7
BRANCH   6  13
ATOM     13  N   LIG d   1       3.340  89.056 116.832  0.00  0.00    -0.311 N 
ATOM     14  C   LIG d   1       4.247  89.536 115.983  0.00  0.00     0.210 C 
ATOM     15  C   LIG d   1       5.685  89.547 116.512  0.00  0.00     0.109 C 
ATOM     16  O   LIG d   1       3.993  89.982 114.854  0.00  0.00    -0.276 OA
ATOM     17  H   LIG d   1       3.629  88.745 117.738  0.00  0.00     0.149 HD
ENDBRANCH   6  13
BRANCH   5  18
ATOM     18  N   LIG d   1       1.310  91.325 117.081  0.00  0.00     0.381 N 
ATOM     19  H   LIG d   1       0.919  91.591 116.199  0.00  0.00    -0.090 HD
ATOM     20  H   LIG d   1       2.306  91.453 117.036  0.00  0.00    -0.090 HD
ATOM     21  H   LIG d   1       0.928  91.891 117.806  0.00  0.00    -0.090 HD
ENDBRANCH   5  18
BRANCH   3  22
ATOM     22  C   LIG d   1      -2.128  88.012 117.450  0.00  0.00     0.382 C 
ATOM     23  O   LIG d   1      -3.076  88.419 116.736  0.00  0.00    -0.241 OA
ATOM     24  O   LIG d   1      -2.375  87.378 118.494  0.00  0.00    -0.241 OA
ENDBRANCH   3  22
TORSDOF 7
ENDMDL
MODEL 9
REMARK VINA RESULT:      -4.0      2.804      4.690
REMARK  7 active torsions:
REMARK  status: ('A' for Active; 'I' for Inactive)
REMARK    1  A    between atoms: C_2  and  C_3 
REMARK    2  A    between atoms: C_3  and  O_6 
REMARK    3  A    between atoms: C_3  and  C_4 
REMARK    4  A    between atoms: C_7  and  O_6 
REMARK    5  A    between atoms: C_9  and  C_10 
REMARK    6  A    between atoms: N_15  and  C_14 
REMARK    7  A    between atoms: N_20  and  C_19 
REMARK       I    between atoms: C_22  and  N_20 
ROOT
ATOM      1  C   LIG d   1       3.702  88.759 115.896  0.00  0.00     0.161 C 
ATOM      2  C   LIG d   1       3.860  90.011 116.513  0.00  0.00     0.016 C 
ATOM      3  C   LIG d   1       2.788  90.744 117.073  0.00  0.00     0.038 C 
ATOM      4  C   LIG d   1       1.500  90.201 117.190  0.00  0.00     0.028 C 
ATOM      5  C   LIG d   1       1.188  89.150 116.130  0.00  0.00    -0.047 C 
ATOM      6  C   LIG d   1       2.323  88.101 116.113  0.00  0.00     0.091 C 
ENDROOT
BRANCH   1   7
ATOM      7  O   LIG d   1       4.754  87.869 116.321  0.00  0.00    -0.368 OA
BRANCH   7   8
ATOM      8  C   LIG d   1       5.621  87.364 115.276  0.00  0.00     0.119 C 
BRANCH   8   9
ATOM      9  C   LIG d   1       7.044  87.269 115.861  0.00  0.00     0.028 C 
ATOM     10  C   LIG d   1       7.273  88.263 117.011  0.00  0.00     0.006 C 
ENDBRANCH   8   9
BRANCH   8  11
ATOM     11  C   LIG d   1       5.727  88.354 114.112  0.00  0.00     0.028 C 
ATOM     12  C   LIG d   1       5.636  87.671 112.738  0.00  0.00     0.006 C 
ENDBRANCH   8  11
ENDBRANCH   7   8
ENDBRANCH   1   7
BRANCH   6  13
ATOM     13  N   LIG d   1       2.138  87.082 115.047  0.00  0.00    -0.311 N 
ATOM     14  C   LIG d   1       2.123  87.375 113.748  0.00  0.00     0.210 C 
ATOM     15  C   LIG d   1       1.899  86.179 112.818  0.00  0.00     0.109 C 
ATOM     16  O   LIG d   1       2.306  88.508 113.276  0.00  0.00    -0.276 OA
ATOM     17  H   LIG d   1       2.014  86.133 115.340  0.00  0.00     0.149 HD
ENDBRANCH   6  13
BRANCH   5  18
ATOM     18  N   LIG d   1      -0.130  88.570 116.453  0.00  0.00     0.381 N 
ATOM     19  H   LIG d   1      -0.578  88.259 115.614  0.00  0.00    -0.090 HD
ATOM     20  H   LIG d   1      -0.704  89.280 116.872  0.00  0.00    -0.090 HD
ATOM     21  H   LIG d   1      -0.021  87.806 117.083  0.00  0.00    -0.090 HD
ENDBRANCH   5  18
BRANCH   3  22
ATOM     22  C   LIG d   1       2.992  92.051 117.488  0.00  0.00     0.382 C 
ATOM     23  O   LIG d   1       2.100  92.649 118.137  0.00  0.00    -0.241 OA
ATOM     24  O   LIG d   1       4.038  92.655 117.183  0.00  0.00    -0.241 OA
ENDBRANCH   3  22
TORSDOF 7
ENDMDL
