MODEL 1
REMARK VINA RESULT:      -4.7      0.000      0.000
REMARK  7 active torsions:
REMARK  status: ('A' for Active; 'I' for Inactive)
REMARK    1  A    between atoms: C_2  and  C_3 
REMARK    2  A    between atoms: C_3  and  O_6 
REMARK    3  A    between atoms: C_3  and  C_4 
REMARK    4  A    between atoms: C_7  and  O_6 
REMARK    5  A    between atoms: C_9  and  C_10 
REMARK    6  A    between atoms: N_15  and  C_14 
REMARK    7  A    between atoms: N_20  and  C_19 
REMARK       I    between atoms: C_22  and  N_20 
ROOT
ATOM      1  C   LIG d   1      -6.553  91.465 118.097  0.00  0.00     0.161 C 
ATOM      2  C   LIG d   1      -7.332  92.633 118.063  0.00  0.00     0.016 C 
ATOM      3  C   LIG d   1      -6.803  93.928 118.274  0.00  0.00     0.038 C 
ATOM      4  C   LIG d   1      -5.424  94.156 118.385  0.00  0.00     0.028 C 
ATOM      5  C   LIG d   1      -4.653  92.957 118.930  0.00  0.00    -0.047 C 
ATOM      6  C   LIG d   1      -5.028  91.704 118.107  0.00  0.00     0.091 C 
ENDROOT
BRANCH   1   7
ATOM      7  O   LIG d   1      -6.918  90.602 117.002  0.00  0.00    -0.368 OA
BRANCH   7   8
ATOM      8  C   LIG d   1      -7.322  91.263 115.777  0.00  0.00     0.119 C 
BRANCH   8   9
ATOM      9  C   LIG d   1      -8.647  90.621 115.321  0.00  0.00     0.028 C 
ATOM     10  C   LIG d   1      -8.904  89.263 115.996  0.00  0.00     0.006 C 
ENDBRANCH   8   9
BRANCH   8  11
ATOM     11  C   LIG d   1      -6.328  90.992 114.644  0.00  0.00     0.028 C 
ATOM     12  C   LIG d   1      -5.522  89.700 114.854  0.00  0.00     0.006 C 
ENDBRANCH   8  11
ENDBRANCH   7   8
ENDBRANCH   1   7
BRANCH   6  13
ATOM     13  N   LIG d   1      -4.383  90.470 118.627  0.00  0.00    -0.311 N 
ATOM     14  C   LIG d   1      -3.173  90.062 118.251  0.00  0.00     0.210 C 
ATOM     15  C   LIG d   1      -2.703  88.753 118.894  0.00  0.00     0.109 C 
ATOM     16  O   LIG d   1      -2.430  90.676 117.470  0.00  0.00    -0.276 OA
ATOM     17  H   LIG d   1      -4.903  89.928 119.289  0.00  0.00     0.149 HD
ENDBRANCH   6  13
BRANCH   5  18
ATOM     18  N   LIG d   1      -3.216  93.284 118.864  0.00  0.00     0.381 N 
ATOM     19  H   LIG d   1      -3.073  94.058 118.246  0.00  0.00    -0.090 HD
ATOM     20  H   LIG d   1      -2.720  92.491 118.497  0.00  0.00    -0.090 HD
ATOM     21  H   LIG d   1      -2.875  93.507 119.773  0.00  0.00    -0.090 HD
ENDBRANCH   5  18
BRANCH   3  22
ATOM     22  C   LIG d   1      -7.663  95.006 118.416  0.00  0.00     0.382 C 
ATOM     23  O   LIG d   1      -8.902  94.838 118.317  0.00  0.00    -0.241 OA
ATOM     24  O   LIG d   1      -7.212  96.153 118.597  0.00  0.00    -0.241 OA
ENDBRANCH   3  22
TORSDOF 7
ENDMDL
MODEL 2
REMARK VINA RESULT:      -4.3      7.994     11.048
REMARK  7 active torsions:
REMARK  status: ('A' for Active; 'I' for Inactive)
REMARK    1  A    between atoms: C_2  and  C_3 
REMARK    2  A    between atoms: C_3  and  O_6 
REMARK    3  A    between atoms: C_3  and  C_4 
REMARK    4  A    between atoms: C_7  and  O_6 
REMARK    5  A    between atoms: C_9  and  C_10 
REMARK    6  A    between atoms: N_15  and  C_14 
REMARK    7  A    between atoms: N_20  and  C_19 
REMARK       I    between atoms: C_22  and  N_20 
ROOT
ATOM      1  C   LIG d   1       2.237  86.867 115.472  0.00  0.00     0.161 C 
ATOM      2  C   LIG d   1       3.409  87.295 116.118  0.00  0.00     0.016 C 
ATOM      3  C   LIG d   1       4.590  87.656 115.430  0.00  0.00     0.038 C 
ATOM      4  C   LIG d   1       4.631  87.758 114.031  0.00  0.00     0.028 C 
ATOM      5  C   LIG d   1       3.627  86.851 113.328  0.00  0.00    -0.047 C 
ATOM      6  C   LIG d   1       2.228  87.079 113.944  0.00  0.00     0.091 C 
ENDROOT
BRANCH   1   7
ATOM      7  O   LIG d   1       1.089  87.499 116.073  0.00  0.00    -0.368 OA
BRANCH   7   8
ATOM      8  C   LIG d   1       1.283  88.042 117.402  0.00  0.00     0.119 C 
BRANCH   8   9
ATOM      9  C   LIG d   1       0.290  87.331 118.342  0.00  0.00     0.028 C 
ATOM     10  C   LIG d   1      -0.946  88.193 118.650  0.00  0.00     0.006 C 
ENDBRANCH   8   9
BRANCH   8  11
ATOM     11  C   LIG d   1       0.905  89.525 117.459  0.00  0.00     0.028 C 
ATOM     12  C   LIG d   1       2.124  90.444 117.641  0.00  0.00     0.006 C 
ENDBRANCH   8  11
ENDBRANCH   7   8
ENDBRANCH   1   7
BRANCH   6  13
ATOM     13  N   LIG d   1       1.201  86.170 113.370  0.00  0.00    -0.311 N 
ATOM     14  C   LIG d   1       0.404  86.509 112.359  0.00  0.00     0.210 C 
ATOM     15  C   LIG d   1      -0.598  85.431 111.935  0.00  0.00     0.109 C 
ATOM     16  O   LIG d   1       0.453  87.590 111.752  0.00  0.00    -0.276 OA
ATOM     17  H   LIG d   1       1.115  85.262 113.783  0.00  0.00     0.149 HD
ENDBRANCH   6  13
BRANCH   5  18
ATOM     18  N   LIG d   1       3.682  87.159 111.887  0.00  0.00     0.381 N 
ATOM     19  H   LIG d   1       2.753  87.240 111.522  0.00  0.00    -0.090 HD
ATOM     20  H   LIG d   1       4.143  86.405 111.410  0.00  0.00    -0.090 HD
ATOM     21  H   LIG d   1       4.179  88.009 111.738  0.00  0.00    -0.090 HD
ENDBRANCH   5  18
BRANCH   3  22
ATOM     22  C   LIG d   1       5.759  87.880 116.141  0.00  0.00     0.382 C 
ATOM     23  O   LIG d   1       6.819  87.300 115.805  0.00  0.00    -0.241 OA
ATOM     24  O   LIG d   1       5.757  88.621 117.142  0.00  0.00    -0.241 OA
ENDBRANCH   3  22
TORSDOF 7
ENDMDL
MODEL 3
REMARK VINA RESULT:      -4.2      7.218     10.508
REMARK  7 active torsions:
REMARK  status: ('A' for Active; 'I' for Inactive)
REMARK    1  A    between atoms: C_2  and  C_3 
REMARK    2  A    between atoms: C_3  and  O_6 
REMARK    3  A    between atoms: C_3  and  C_4 
REMARK    4  A    between atoms: C_7  and  O_6 
REMARK    5  A    between atoms: C_9  and  C_10 
REMARK    6  A    between atoms: N_15  and  C_14 
REMARK    7  A    between atoms: N_20  and  C_19 
REMARK       I    between atoms: C_22  and  N_20 
ROOT
ATOM      1  C   LIG d   1       2.732  88.170 116.130  0.00  0.00     0.161 C 
ATOM      2  C   LIG d   1       3.448  88.555 117.276  0.00  0.00     0.016 C 
ATOM      3  C   LIG d   1       4.683  89.240 117.227  0.00  0.00     0.038 C 
ATOM      4  C   LIG d   1       5.217  89.723 116.023  0.00  0.00     0.028 C 
ATOM      5  C   LIG d   1       4.783  88.918 114.802  0.00  0.00    -0.047 C 
ATOM      6  C   LIG d   1       3.243  88.786 114.811  0.00  0.00     0.091 C 
ENDROOT
BRANCH   1   7
ATOM      7  O   LIG d   1       1.331  88.459 116.309  0.00  0.00    -0.368 OA
BRANCH   7   8
ATOM      8  C   LIG d   1       0.935  88.898 117.632  0.00  0.00     0.119 C 
BRANCH   8   9
ATOM      9  C   LIG d   1      -0.107  87.892 118.160  0.00  0.00     0.028 C 
ATOM     10  C   LIG d   1       0.528  86.554 118.574  0.00  0.00     0.006 C 
ENDBRANCH   8   9
BRANCH   8  11
ATOM     11  C   LIG d   1       0.207  90.244 117.578  0.00  0.00     0.028 C 
ATOM     12  C   LIG d   1      -1.297  90.121 117.871  0.00  0.00     0.006 C 
ENDBRANCH   8  11
ENDBRANCH   7   8
ENDBRANCH   1   7
BRANCH   6  13
ATOM     13  N   LIG d   1       2.740  87.941 113.696  0.00  0.00    -0.311 N 
ATOM     14  C   LIG d   1       2.368  88.431 112.515  0.00  0.00     0.210 C 
ATOM     15  C   LIG d   1       1.862  87.389 111.512  0.00  0.00     0.109 C 
ATOM     16  O   LIG d   1       2.439  89.626 112.191  0.00  0.00    -0.276 OA
ATOM     17  H   LIG d   1       2.680  86.955 113.862  0.00  0.00     0.149 HD
ENDBRANCH   6  13
BRANCH   5  18
ATOM     18  N   LIG d   1       5.297  89.611 113.606  0.00  0.00     0.381 N 
ATOM     19  H   LIG d   1       4.775  89.329 112.801  0.00  0.00    -0.090 HD
ATOM     20  H   LIG d   1       6.257  89.350 113.467  0.00  0.00    -0.090 HD
ATOM     21  H   LIG d   1       5.228  90.597 113.727  0.00  0.00    -0.090 HD
ENDBRANCH   5  18
BRANCH   3  22
ATOM     22  C   LIG d   1       5.419  89.413 118.390  0.00  0.00     0.382 C 
ATOM     23  O   LIG d   1       5.979  88.428 118.930  0.00  0.00    -0.241 OA
ATOM     24  O   LIG d   1       5.494  90.533 118.929  0.00  0.00    -0.241 OA
ENDBRANCH   3  22
TORSDOF 7
ENDMDL
MODEL 4
REMARK VINA RESULT:      -4.2      9.098     11.452
REMARK  7 active torsions:
REMARK  status: ('A' for Active; 'I' for Inactive)
REMARK    1  A    between atoms: C_2  and  C_3 
REMARK    2  A    between atoms: C_3  and  O_6 
REMARK    3  A    between atoms: C_3  and  C_4 
REMARK    4  A    between atoms: C_7  and  O_6 
REMARK    5  A    between atoms: C_9  and  C_10 
REMARK    6  A    between atoms: N_15  and  C_14 
REMARK    7  A    between atoms: N_20  and  C_19 
REMARK       I    between atoms: C_22  and  N_20 
ROOT
ATOM      1  C   LIG d   1       4.751  89.418 116.144  0.00  0.00     0.161 C 
ATOM      2  C   LIG d   1       4.058  89.852 115.002  0.00  0.00     0.016 C 
ATOM      3  C   LIG d   1       3.259  88.999 114.206  0.00  0.00     0.038 C 
ATOM      4  C   LIG d   1       2.976  87.679 114.587  0.00  0.00     0.028 C 
ATOM      5  C   LIG d   1       4.060  87.055 115.461  0.00  0.00    -0.047 C 
ATOM      6  C   LIG d   1       4.365  88.008 116.639  0.00  0.00     0.091 C 
ENDROOT
BRANCH   1   7
ATOM      7  O   LIG d   1       4.595  90.381 117.205  0.00  0.00    -0.368 OA
BRANCH   7   8
ATOM      8  C   LIG d   1       3.429  91.238 117.122  0.00  0.00     0.119 C 
BRANCH   8   9
ATOM      9  C   LIG d   1       3.858  92.648 117.571  0.00  0.00     0.028 C 
ATOM     10  C   LIG d   1       4.991  92.614 118.611  0.00  0.00     0.006 C 
ENDBRANCH   8   9
BRANCH   8  11
ATOM     11  C   LIG d   1       2.348  90.806 118.118  0.00  0.00     0.028 C 
ATOM     12  C   LIG d   1       1.261  89.930 117.475  0.00  0.00     0.006 C 
ENDBRANCH   8  11
ENDBRANCH   7   8
ENDBRANCH   1   7
BRANCH   6  13
ATOM     13  N   LIG d   1       5.474  87.513 117.496  0.00  0.00    -0.311 N 
ATOM     14  C   LIG d   1       6.679  87.198 117.025  0.00  0.00     0.210 C 
ATOM     15  C   LIG d   1       7.670  86.688 118.076  0.00  0.00     0.109 C 
ATOM     16  O   LIG d   1       7.032  87.322 115.843  0.00  0.00    -0.276 OA
ATOM     17  H   LIG d   1       5.284  87.412 118.474  0.00  0.00     0.149 HD
ENDBRANCH   6  13
BRANCH   5  18
ATOM     18  N   LIG d   1       3.573  85.733 115.898  0.00  0.00     0.381 N 
ATOM     19  H   LIG d   1       2.573  85.729 115.917  0.00  0.00    -0.090 HD
ATOM     20  H   LIG d   1       3.907  85.556 116.829  0.00  0.00    -0.090 HD
ATOM     21  H   LIG d   1       3.904  85.026 115.279  0.00  0.00    -0.090 HD
ENDBRANCH   5  18
BRANCH   3  22
ATOM     22  C   LIG d   1       2.766  89.454 112.992  0.00  0.00     0.382 C 
ATOM     23  O   LIG d   1       1.963  88.747 112.337  0.00  0.00    -0.241 OA
ATOM     24  O   LIG d   1       3.149  90.542 112.523  0.00  0.00    -0.241 OA
ENDBRANCH   3  22
TORSDOF 7
ENDMDL
MODEL 5
REMARK VINA RESULT:      -4.1      4.902      7.691
REMARK  7 active torsions:
REMARK  status: ('A' for Active; 'I' for Inactive)
REMARK    1  A    between atoms: C_2  and  C_3 
REMARK    2  A    between atoms: C_3  and  O_6 
REMARK    3  A    between atoms: C_3  and  C_4 
REMARK    4  A    between atoms: C_7  and  O_6 
REMARK    5  A    between atoms: C_9  and  C_10 
REMARK    6  A    between atoms: N_15  and  C_14 
REMARK    7  A    between atoms: N_20  and  C_19 
REMARK       I    between atoms: C_22  and  N_20 
ROOT
ATOM      1  C   LIG d   1       0.674  89.806 118.928  0.00  0.00     0.161 C 
ATOM      2  C   LIG d   1      -0.620  89.268 118.833  0.00  0.00     0.016 C 
ATOM      3  C   LIG d   1      -1.733  89.999 118.358  0.00  0.00     0.038 C 
ATOM      4  C   LIG d   1      -1.597  91.279 117.801  0.00  0.00     0.028 C 
ATOM      5  C   LIG d   1      -0.398  92.050 118.341  0.00  0.00    -0.047 C 
ATOM      6  C   LIG d   1       0.864  91.164 118.221  0.00  0.00     0.091 C 
ENDROOT
BRANCH   1   7
ATOM      7  O   LIG d   1       1.638  88.850 118.443  0.00  0.00    -0.368 OA
BRANCH   7   8
ATOM      8  C   LIG d   1       1.732  88.715 117.003  0.00  0.00     0.119 C 
BRANCH   8   9
ATOM      9  C   LIG d   1       1.392  87.253 116.653  0.00  0.00     0.028 C 
ATOM     10  C   LIG d   1       1.653  86.293 117.825  0.00  0.00     0.006 C 
ENDBRANCH   8   9
BRANCH   8  11
ATOM     11  C   LIG d   1       3.169  88.925 116.517  0.00  0.00     0.028 C 
ATOM     12  C   LIG d   1       3.242  89.698 115.191  0.00  0.00     0.006 C 
ENDBRANCH   8  11
ENDBRANCH   7   8
ENDBRANCH   1   7
BRANCH   6  13
ATOM     13  N   LIG d   1       2.068  91.811 118.804  0.00  0.00    -0.311 N 
ATOM     14  C   LIG d   1       2.940  92.519 118.087  0.00  0.00     0.210 C 
ATOM     15  C   LIG d   1       4.122  93.083 118.881  0.00  0.00     0.109 C 
ATOM     16  O   LIG d   1       2.829  92.759 116.875  0.00  0.00    -0.276 OA
ATOM     17  H   LIG d   1       2.219  91.693 119.786  0.00  0.00     0.149 HD
ENDBRANCH   6  13
BRANCH   5  18
ATOM     18  N   LIG d   1      -0.296  93.308 117.577  0.00  0.00     0.381 N 
ATOM     19  H   LIG d   1       0.044  93.118 116.655  0.00  0.00    -0.090 HD
ATOM     20  H   LIG d   1       0.360  93.915 118.036  0.00  0.00    -0.090 HD
ATOM     21  H   LIG d   1      -1.188  93.748 117.525  0.00  0.00    -0.090 HD
ENDBRANCH   5  18
BRANCH   3  22
ATOM     22  C   LIG d   1      -3.007  89.463 118.476  0.00  0.00     0.382 C 
ATOM     23  O   LIG d   1      -4.008  90.154 118.167  0.00  0.00    -0.241 OA
ATOM     24  O   LIG d   1      -3.170  88.315 118.929  0.00  0.00    -0.241 OA
ENDBRANCH   3  22
TORSDOF 7
ENDMDL
MODEL 6
REMARK VINA RESULT:      -4.1      7.572     11.140
REMARK  7 active torsions:
REMARK  status: ('A' for Active; 'I' for Inactive)
REMARK    1  A    between atoms: C_2  and  C_3 
REMARK    2  A    between atoms: C_3  and  O_6 
REMARK    3  A    between atoms: C_3  and  C_4 
REMARK    4  A    between atoms: C_7  and  O_6 
REMARK    5  A    between atoms: C_9  and  C_10 
REMARK    6  A    between atoms: N_15  and  C_14 
REMARK    7  A    between atoms: N_20  and  C_19 
REMARK       I    between atoms: C_22  and  N_20 
ROOT
ATOM      1  C   LIG d   1       3.725  90.388 116.229  0.00  0.00     0.161 C 
ATOM      2  C   LIG d   1       5.046  89.910 116.264  0.00  0.00     0.016 C 
ATOM      3  C   LIG d   1       5.463  88.836 117.083  0.00  0.00     0.038 C 
ATOM      4  C   LIG d   1       4.549  88.063 117.815  0.00  0.00     0.028 C 
ATOM      5  C   LIG d   1       3.285  88.825 118.201  0.00  0.00    -0.047 C 
ATOM      6  C   LIG d   1       2.692  89.487 116.937  0.00  0.00     0.091 C 
ENDROOT
BRANCH   1   7
ATOM      7  O   LIG d   1       3.329  90.628 114.864  0.00  0.00    -0.368 OA
BRANCH   7   8
ATOM      8  C   LIG d   1       3.411  89.493 113.967  0.00  0.00     0.119 C 
BRANCH   8   9
ATOM      9  C   LIG d   1       4.786  89.549 113.274  0.00  0.00     0.028 C 
ATOM     10  C   LIG d   1       5.434  88.160 113.144  0.00  0.00     0.006 C 
ENDBRANCH   8   9
BRANCH   8  11
ATOM     11  C   LIG d   1       2.382  89.600 112.837  0.00  0.00     0.028 C 
ATOM     12  C   LIG d   1       2.098  88.250 112.161  0.00  0.00     0.006 C 
ENDBRANCH   8  11
ENDBRANCH   7   8
ENDBRANCH   1   7
BRANCH   6  13
ATOM     13  N   LIG d   1       1.500  90.321 117.240  0.00  0.00    -0.311 N 
ATOM     14  C   LIG d   1       0.260  89.839 117.283  0.00  0.00     0.210 C 
ATOM     15  C   LIG d   1      -0.826  90.874 117.594  0.00  0.00     0.109 C 
ATOM     16  O   LIG d   1      -0.041  88.646 117.126  0.00  0.00    -0.276 OA
ATOM     17  H   LIG d   1       1.657  91.295 117.411  0.00  0.00     0.149 HD
ENDBRANCH   6  13
BRANCH   5  18
ATOM     18  N   LIG d   1       2.364  87.864 118.837  0.00  0.00     0.381 N 
ATOM     19  H   LIG d   1       2.408  86.986 118.361  0.00  0.00    -0.090 HD
ATOM     20  H   LIG d   1       1.425  88.217 118.763  0.00  0.00    -0.090 HD
ATOM     21  H   LIG d   1       2.606  87.743 119.796  0.00  0.00    -0.090 HD
ENDBRANCH   5  18
BRANCH   3  22
ATOM     22  C   LIG d   1       6.814  88.550 117.206  0.00  0.00     0.382 C 
ATOM     23  O   LIG d   1       7.291  87.526 116.660  0.00  0.00    -0.241 OA
ATOM     24  O   LIG d   1       7.554  89.279 117.894  0.00  0.00    -0.241 OA
ENDBRANCH   3  22
TORSDOF 7
ENDMDL
MODEL 7
REMARK VINA RESULT:      -3.9      9.443     11.256
REMARK  7 active torsions:
REMARK  status: ('A' for Active; 'I' for Inactive)
REMARK    1  A    between atoms: C_2  and  C_3 
REMARK    2  A    between atoms: C_3  and  O_6 
REMARK    3  A    between atoms: C_3  and  C_4 
REMARK    4  A    between atoms: C_7  and  O_6 
REMARK    5  A    between atoms: C_9  and  C_10 
REMARK    6  A    between atoms: N_15  and  C_14 
REMARK    7  A    between atoms: N_20  and  C_19 
REMARK       I    between atoms: C_22  and  N_20 
ROOT
ATOM      1  C   LIG d   1       4.279  87.907 117.269  0.00  0.00     0.161 C 
ATOM      2  C   LIG d   1       3.399  88.988 117.097  0.00  0.00     0.016 C 
ATOM      3  C   LIG d   1       3.822  90.337 117.054  0.00  0.00     0.038 C 
ATOM      4  C   LIG d   1       5.180  90.687 117.030  0.00  0.00     0.028 C 
ATOM      5  C   LIG d   1       6.082  89.662 117.709  0.00  0.00    -0.047 C 
ATOM      6  C   LIG d   1       5.774  88.262 117.133  0.00  0.00     0.091 C 
ENDROOT
BRANCH   1   7
ATOM      7  O   LIG d   1       3.931  86.844 116.360  0.00  0.00    -0.368 OA
BRANCH   7   8
ATOM      8  C   LIG d   1       3.184  87.233 115.181  0.00  0.00     0.119 C 
BRANCH   8   9
ATOM      9  C   LIG d   1       2.107  86.158 114.939  0.00  0.00     0.028 C 
ATOM     10  C   LIG d   1       1.387  86.341 113.593  0.00  0.00     0.006 C 
ENDBRANCH   8   9
BRANCH   8  11
ATOM     11  C   LIG d   1       4.067  87.210 113.930  0.00  0.00     0.028 C 
ATOM     12  C   LIG d   1       4.606  88.600 113.555  0.00  0.00     0.006 C 
ENDBRANCH   8  11
ENDBRANCH   7   8
ENDBRANCH   1   7
BRANCH   6  13
ATOM     13  N   LIG d   1       6.554  87.189 117.803  0.00  0.00    -0.311 N 
ATOM     14  C   LIG d   1       7.529  86.507 117.204  0.00  0.00     0.210 C 
ATOM     15  C   LIG d   1       8.191  85.430 118.069  0.00  0.00     0.109 C 
ATOM     16  O   LIG d   1       7.929  86.714 116.048  0.00  0.00    -0.276 OA
ATOM     17  H   LIG d   1       6.316  86.977 118.752  0.00  0.00     0.149 HD
ENDBRANCH   6  13
BRANCH   5  18
ATOM     18  N   LIG d   1       7.479  90.083 117.490  0.00  0.00     0.381 N 
ATOM     19  H   LIG d   1       7.499  91.014 117.123  0.00  0.00    -0.090 HD
ATOM     20  H   LIG d   1       7.902  89.470 116.816  0.00  0.00    -0.090 HD
ATOM     21  H   LIG d   1       7.985  90.046 118.347  0.00  0.00    -0.090 HD
ENDBRANCH   5  18
BRANCH   3  22
ATOM     22  C   LIG d   1       2.880  91.354 117.076  0.00  0.00     0.382 C 
ATOM     23  O   LIG d   1       1.709  91.116 117.460  0.00  0.00    -0.241 OA
ATOM     24  O   LIG d   1       3.173  92.495 116.674  0.00  0.00    -0.241 OA
ENDBRANCH   3  22
TORSDOF 7
ENDMDL
MODEL 8
REMARK VINA RESULT:      -3.9      2.047      4.393
REMARK  7 active torsions:
REMARK  status: ('A' for Active; 'I' for Inactive)
REMARK    1  A    between atoms: C_2  and  C_3 
REMARK    2  A    between atoms: C_3  and  O_6 
REMARK    3  A    between atoms: C_3  and  C_4 
REMARK    4  A    between atoms: C_7  and  O_6 
REMARK    5  A    between atoms: C_9  and  C_10 
REMARK    6  A    between atoms: N_15  and  C_14 
REMARK    7  A    between atoms: N_20  and  C_19 
REMARK       I    between atoms: C_22  and  N_20 
ROOT
ATOM      1  C   LIG d   1      -5.151  91.791 117.416  0.00  0.00     0.161 C 
ATOM      2  C   LIG d   1      -5.418  92.936 118.185  0.00  0.00     0.016 C 
ATOM      3  C   LIG d   1      -6.532  93.779 117.966  0.00  0.00     0.038 C 
ATOM      4  C   LIG d   1      -7.544  93.447 117.053  0.00  0.00     0.028 C 
ATOM      5  C   LIG d   1      -7.060  92.567 115.905  0.00  0.00    -0.047 C 
ATOM      6  C   LIG d   1      -6.303  91.352 116.489  0.00  0.00     0.091 C 
ENDROOT
BRANCH   1   7
ATOM      7  O   LIG d   1      -4.759  90.704 118.277  0.00  0.00    -0.368 OA
BRANCH   7   8
ATOM      8  C   LIG d   1      -3.360  90.661 118.653  0.00  0.00     0.119 C 
BRANCH   8   9
ATOM      9  C   LIG d   1      -2.557  91.336 117.525  0.00  0.00     0.028 C 
ATOM     10  C   LIG d   1      -1.867  92.630 117.989  0.00  0.00     0.006 C 
ENDBRANCH   8   9
BRANCH   8  11
ATOM     11  C   LIG d   1      -2.844  89.220 118.712  0.00  0.00     0.028 C 
ATOM     12  C   LIG d   1      -1.358  89.104 118.338  0.00  0.00     0.006 C 
ENDBRANCH   8  11
ENDBRANCH   7   8
ENDBRANCH   1   7
BRANCH   6  13
ATOM     13  N   LIG d   1      -5.723  90.484 115.431  0.00  0.00    -0.311 N 
ATOM     14  C   LIG d   1      -6.440  89.613 114.723  0.00  0.00     0.210 C 
ATOM     15  C   LIG d   1      -5.642  88.803 113.696  0.00  0.00     0.109 C 
ATOM     16  O   LIG d   1      -7.666  89.456 114.826  0.00  0.00    -0.276 OA
ATOM     17  H   LIG d   1      -4.740  90.569 115.259  0.00  0.00     0.149 HD
ENDBRANCH   6  13
BRANCH   5  18
ATOM     18  N   LIG d   1      -8.240  92.185 115.108  0.00  0.00     0.381 N 
ATOM     19  H   LIG d   1      -8.587  91.300 115.419  0.00  0.00    -0.090 HD
ATOM     20  H   LIG d   1      -7.968  92.096 114.145  0.00  0.00    -0.090 HD
ATOM     21  H   LIG d   1      -8.951  92.878 115.196  0.00  0.00    -0.090 HD
ENDBRANCH   5  18
BRANCH   3  22
ATOM     22  C   LIG d   1      -6.620  94.989 118.637  0.00  0.00     0.382 C 
ATOM     23  O   LIG d   1      -7.745  95.471 118.914  0.00  0.00    -0.241 OA
ATOM     24  O   LIG d   1      -5.591  95.626 118.929  0.00  0.00    -0.241 OA
ENDBRANCH   3  22
TORSDOF 7
ENDMDL
MODEL 9
REMARK VINA RESULT:      -3.7      2.836      5.456
REMARK  7 active torsions:
REMARK  status: ('A' for Active; 'I' for Inactive)
REMARK    1  A    between atoms: C_2  and  C_3 
REMARK    2  A    between atoms: C_3  and  O_6 
REMARK    3  A    between atoms: C_3  and  C_4 
REMARK    4  A    between atoms: C_7  and  O_6 
REMARK    5  A    between atoms: C_9  and  C_10 
REMARK    6  A    between atoms: N_15  and  C_14 
REMARK    7  A    between atoms: N_20  and  C_19 
REMARK       I    between atoms: C_22  and  N_20 
ROOT
ATOM      1  C   LIG d   1      -3.152  92.600 117.939  0.00  0.00     0.161 C 
ATOM      2  C   LIG d   1      -4.339  92.571 117.187  0.00  0.00     0.016 C 
ATOM      3  C   LIG d   1      -5.011  91.376 116.840  0.00  0.00     0.038 C 
ATOM      4  C   LIG d   1      -4.622  90.130 117.354  0.00  0.00     0.028 C 
ATOM      5  C   LIG d   1      -3.139  90.055 117.703  0.00  0.00    -0.047 C 
ATOM      6  C   LIG d   1      -2.774  91.258 118.602  0.00  0.00     0.091 C 
ENDROOT
BRANCH   1   7
ATOM      7  O   LIG d   1      -3.227  93.644 118.930  0.00  0.00    -0.368 OA
BRANCH   7   8
ATOM      8  C   LIG d   1      -2.198  94.662 118.861  0.00  0.00     0.119 C 
BRANCH   8   9
ATOM      9  C   LIG d   1      -2.900  96.033 118.883  0.00  0.00     0.028 C 
ATOM     10  C   LIG d   1      -1.906  97.203 118.801  0.00  0.00     0.006 C 
ENDBRANCH   8   9
BRANCH   8  11
ATOM     11  C   LIG d   1      -1.451  94.610 117.525  0.00  0.00     0.028 C 
ATOM     12  C   LIG d   1       0.076  94.583 117.697  0.00  0.00     0.006 C 
ENDBRANCH   8  11
ENDBRANCH   7   8
ENDBRANCH   1   7
BRANCH   6  13
ATOM     13  N   LIG d   1      -1.323  91.308 118.921  0.00  0.00    -0.311 N 
ATOM     14  C   LIG d   1      -0.367  91.077 118.023  0.00  0.00     0.210 C 
ATOM     15  C   LIG d   1       1.063  91.159 118.566  0.00  0.00     0.109 C 
ATOM     16  O   LIG d   1      -0.566  90.843 116.821  0.00  0.00    -0.276 OA
ATOM     17  H   LIG d   1      -1.071  91.521 119.866  0.00  0.00     0.149 HD
ENDBRANCH   6  13
BRANCH   5  18
ATOM     18  N   LIG d   1      -2.900  88.753 118.353  0.00  0.00     0.381 N 
ATOM     19  H   LIG d   1      -2.683  88.893 119.320  0.00  0.00    -0.090 HD
ATOM     20  H   LIG d   1      -2.111  88.311 117.914  0.00  0.00    -0.090 HD
ATOM     21  H   LIG d   1      -3.706  88.175 118.266  0.00  0.00    -0.090 HD
ENDBRANCH   5  18
BRANCH   3  22
ATOM     22  C   LIG d   1      -6.063  91.417 115.938  0.00  0.00     0.382 C 
ATOM     23  O   LIG d   1      -6.164  92.377 115.137  0.00  0.00    -0.241 OA
ATOM     24  O   LIG d   1      -6.936  90.529 115.945  0.00  0.00    -0.241 OA
ENDBRANCH   3  22
TORSDOF 7
ENDMDL
