MODEL 1
REMARK VINA RESULT:      -5.2      0.000      0.000
REMARK  7 active torsions:
REMARK  status: ('A' for Active; 'I' for Inactive)
REMARK    1  A    between atoms: C_2  and  C_3 
REMARK    2  A    between atoms: C_3  and  O_6 
REMARK    3  A    between atoms: C_3  and  C_4 
REMARK    4  A    between atoms: C_7  and  O_6 
REMARK    5  A    between atoms: C_9  and  C_10 
REMARK    6  A    between atoms: N_15  and  C_14 
REMARK    7  A    between atoms: N_20  and  C_19 
REMARK       I    between atoms: C_22  and  N_20 
ROOT
ATOM      1  C   LIG d   1       2.844  89.071 115.694  0.00  0.00     0.161 C 
ATOM      2  C   LIG d   1       2.105  88.274 114.805  0.00  0.00     0.016 C 
ATOM      3  C   LIG d   1       2.562  87.918 113.515  0.00  0.00     0.038 C 
ATOM      4  C   LIG d   1       3.864  88.211 113.083  0.00  0.00     0.028 C 
ATOM      5  C   LIG d   1       4.460  89.446 113.751  0.00  0.00    -0.047 C 
ATOM      6  C   LIG d   1       4.312  89.307 115.284  0.00  0.00     0.091 C 
ENDROOT
BRANCH   1   7
ATOM      7  O   LIG d   1       2.779  88.511 117.021  0.00  0.00    -0.368 OA
BRANCH   7   8
ATOM      8  C   LIG d   1       1.982  89.243 117.984  0.00  0.00     0.119 C 
BRANCH   8   9
ATOM      9  C   LIG d   1       0.673  88.458 118.194  0.00  0.00     0.028 C 
ATOM     10  C   LIG d   1      -0.511  89.073 117.429  0.00  0.00     0.006 C 
ENDBRANCH   8   9
BRANCH   8  11
ATOM     11  C   LIG d   1       1.552  90.605 117.430  0.00  0.00     0.028 C 
ATOM     12  C   LIG d   1       2.159  91.783 118.210  0.00  0.00     0.006 C 
ENDBRANCH   8  11
ENDBRANCH   7   8
ENDBRANCH   1   7
BRANCH   6  13
ATOM     13  N   LIG d   1       4.794  90.511 116.010  0.00  0.00    -0.311 N 
ATOM     14  C   LIG d   1       5.617  90.455 117.056  0.00  0.00     0.210 C 
ATOM     15  C   LIG d   1       5.974  91.812 117.671  0.00  0.00     0.109 C 
ATOM     16  O   LIG d   1       6.111  89.413 117.512  0.00  0.00    -0.276 OA
ATOM     17  H   LIG d   1       4.467  91.400 115.687  0.00  0.00     0.149 HD
ENDBRANCH   6  13
BRANCH   5  18
ATOM     18  N   LIG d   1       5.864  89.555 113.313  0.00  0.00     0.381 N 
ATOM     19  H   LIG d   1       5.941  89.289 112.352  0.00  0.00    -0.090 HD
ATOM     20  H   LIG d   1       6.425  88.927 113.860  0.00  0.00    -0.090 HD
ATOM     21  H   LIG d   1       6.187  90.490 113.433  0.00  0.00    -0.090 HD
ENDBRANCH   5  18
BRANCH   3  22
ATOM     22  C   LIG d   1       1.698  87.294 112.627  0.00  0.00     0.382 C 
ATOM     23  O   LIG d   1       2.038  87.134 111.430  0.00  0.00    -0.241 OA
ATOM     24  O   LIG d   1       0.566  86.930 112.998  0.00  0.00    -0.241 OA
ENDBRANCH   3  22
TORSDOF 7
ENDMDL
MODEL 2
REMARK VINA RESULT:      -5.1      2.189      5.127
REMARK  7 active torsions:
REMARK  status: ('A' for Active; 'I' for Inactive)
REMARK    1  A    between atoms: C_2  and  C_3 
REMARK    2  A    between atoms: C_3  and  O_6 
REMARK    3  A    between atoms: C_3  and  C_4 
REMARK    4  A    between atoms: C_7  and  O_6 
REMARK    5  A    between atoms: C_9  and  C_10 
REMARK    6  A    between atoms: N_15  and  C_14 
REMARK    7  A    between atoms: N_20  and  C_19 
REMARK       I    between atoms: C_22  and  N_20 
ROOT
ATOM      1  C   LIG d   1       1.996  88.485 115.344  0.00  0.00     0.161 C 
ATOM      2  C   LIG d   1       0.743  88.351 115.963  0.00  0.00     0.016 C 
ATOM      3  C   LIG d   1       0.295  89.196 117.004  0.00  0.00     0.038 C 
ATOM      4  C   LIG d   1       1.014  90.335 117.396  0.00  0.00     0.028 C 
ATOM      5  C   LIG d   1       2.514  90.220 117.147  0.00  0.00    -0.047 C 
ATOM      6  C   LIG d   1       2.748  89.790 115.681  0.00  0.00     0.091 C 
ENDROOT
BRANCH   1   7
ATOM      7  O   LIG d   1       1.853  88.344 113.916  0.00  0.00    -0.368 OA
BRANCH   7   8
ATOM      8  C   LIG d   1       1.810  86.987 113.411  0.00  0.00     0.119 C 
BRANCH   8   9
ATOM      9  C   LIG d   1       3.257  86.458 113.378  0.00  0.00     0.028 C 
ATOM     10  C   LIG d   1       3.941  86.706 112.023  0.00  0.00     0.006 C 
ENDBRANCH   8   9
BRANCH   8  11
ATOM     11  C   LIG d   1       1.330  86.948 111.957  0.00  0.00     0.028 C 
ATOM     12  C   LIG d   1      -0.032  86.254 111.797  0.00  0.00     0.006 C 
ENDBRANCH   8  11
ENDBRANCH   7   8
ENDBRANCH   1   7
BRANCH   6  13
ATOM     13  N   LIG d   1       4.186  89.572 115.377  0.00  0.00    -0.311 N 
ATOM     14  C   LIG d   1       4.721  89.779 114.175  0.00  0.00     0.210 C 
ATOM     15  C   LIG d   1       6.219  89.474 114.072  0.00  0.00     0.109 C 
ATOM     16  O   LIG d   1       4.104  90.218 113.193  0.00  0.00    -0.276 OA
ATOM     17  H   LIG d   1       4.766  89.245 116.125  0.00  0.00     0.149 HD
ENDBRANCH   6  13
BRANCH   5  18
ATOM     18  N   LIG d   1       3.121  91.524 117.471  0.00  0.00     0.381 N 
ATOM     19  H   LIG d   1       2.437  92.122 117.889  0.00  0.00    -0.090 HD
ATOM     20  H   LIG d   1       3.439  91.955 116.621  0.00  0.00    -0.090 HD
ATOM     21  H   LIG d   1       3.888  91.398 118.095  0.00  0.00    -0.090 HD
ENDBRANCH   5  18
BRANCH   3  22
ATOM     22  C   LIG d   1      -0.867  88.882 117.693  0.00  0.00     0.382 C 
ATOM     23  O   LIG d   1      -1.957  88.794 117.077  0.00  0.00    -0.241 OA
ATOM     24  O   LIG d   1      -0.847  88.729 118.929  0.00  0.00    -0.241 OA
ENDBRANCH   3  22
TORSDOF 7
ENDMDL
MODEL 3
REMARK VINA RESULT:      -4.9      1.538      2.116
REMARK  7 active torsions:
REMARK  status: ('A' for Active; 'I' for Inactive)
REMARK    1  A    between atoms: C_2  and  C_3 
REMARK    2  A    between atoms: C_3  and  O_6 
REMARK    3  A    between atoms: C_3  and  C_4 
REMARK    4  A    between atoms: C_7  and  O_6 
REMARK    5  A    between atoms: C_9  and  C_10 
REMARK    6  A    between atoms: N_15  and  C_14 
REMARK    7  A    between atoms: N_20  and  C_19 
REMARK       I    between atoms: C_22  and  N_20 
ROOT
ATOM      1  C   LIG d   1       3.162  88.954 115.888  0.00  0.00     0.161 C 
ATOM      2  C   LIG d   1       2.360  88.257 114.970  0.00  0.00     0.016 C 
ATOM      3  C   LIG d   1       2.721  88.054 113.618  0.00  0.00     0.038 C 
ATOM      4  C   LIG d   1       3.988  88.406 113.129  0.00  0.00     0.028 C 
ATOM      5  C   LIG d   1       4.631  89.562 113.888  0.00  0.00    -0.047 C 
ATOM      6  C   LIG d   1       4.596  89.249 115.401  0.00  0.00     0.091 C 
ENDROOT
BRANCH   1   7
ATOM      7  O   LIG d   1       3.194  88.247 117.144  0.00  0.00    -0.368 OA
BRANCH   7   8
ATOM      8  C   LIG d   1       2.879  86.834 117.087  0.00  0.00     0.119 C 
BRANCH   8   9
ATOM      9  C   LIG d   1       2.106  86.480 118.373  0.00  0.00     0.028 C 
ATOM     10  C   LIG d   1       1.114  87.582 118.783  0.00  0.00     0.006 C 
ENDBRANCH   8   9
BRANCH   8  11
ATOM     11  C   LIG d   1       4.148  85.977 117.129  0.00  0.00     0.028 C 
ATOM     12  C   LIG d   1       5.298  86.653 117.892  0.00  0.00     0.006 C 
ENDBRANCH   8  11
ENDBRANCH   7   8
ENDBRANCH   1   7
BRANCH   6  13
ATOM     13  N   LIG d   1       5.129  90.366 116.224  0.00  0.00    -0.311 N 
ATOM     14  C   LIG d   1       6.370  90.394 116.706  0.00  0.00     0.210 C 
ATOM     15  C   LIG d   1       6.710  91.629 117.546  0.00  0.00     0.109 C 
ATOM     16  O   LIG d   1       7.232  89.528 116.491  0.00  0.00    -0.276 OA
ATOM     17  H   LIG d   1       4.507  91.125 116.420  0.00  0.00     0.149 HD
ENDBRANCH   6  13
BRANCH   5  18
ATOM     18  N   LIG d   1       5.999  89.733 113.365  0.00  0.00     0.381 N 
ATOM     19  H   LIG d   1       6.330  88.865 112.992  0.00  0.00    -0.090 HD
ATOM     20  H   LIG d   1       6.605  90.004 114.119  0.00  0.00    -0.090 HD
ATOM     21  H   LIG d   1       6.008  90.432 112.655  0.00  0.00    -0.090 HD
ENDBRANCH   5  18
BRANCH   3  22
ATOM     22  C   LIG d   1       1.795  87.528 112.730  0.00  0.00     0.382 C 
ATOM     23  O   LIG d   1       2.128  87.293 111.543  0.00  0.00    -0.241 OA
ATOM     24  O   LIG d   1       0.620  87.326 113.089  0.00  0.00    -0.241 OA
ENDBRANCH   3  22
TORSDOF 7
ENDMDL
MODEL 4
REMARK VINA RESULT:      -4.6      2.560      5.094
REMARK  7 active torsions:
REMARK  status: ('A' for Active; 'I' for Inactive)
REMARK    1  A    between atoms: C_2  and  C_3 
REMARK    2  A    between atoms: C_3  and  O_6 
REMARK    3  A    between atoms: C_3  and  C_4 
REMARK    4  A    between atoms: C_7  and  O_6 
REMARK    5  A    between atoms: C_9  and  C_10 
REMARK    6  A    between atoms: N_15  and  C_14 
REMARK    7  A    between atoms: N_20  and  C_19 
REMARK       I    between atoms: C_22  and  N_20 
ROOT
ATOM      1  C   LIG d   1       1.547  89.242 116.815  0.00  0.00     0.161 C 
ATOM      2  C   LIG d   1       0.174  88.962 116.901  0.00  0.00     0.016 C 
ATOM      3  C   LIG d   1      -0.753  89.802 117.560  0.00  0.00     0.038 C 
ATOM      4  C   LIG d   1      -0.389  91.065 118.051  0.00  0.00     0.028 C 
ATOM      5  C   LIG d   1       1.084  91.165 118.433  0.00  0.00    -0.047 C 
ATOM      6  C   LIG d   1       1.945  90.669 117.249  0.00  0.00     0.091 C 
ENDROOT
BRANCH   1   7
ATOM      7  O   LIG d   1       2.019  88.974 115.480  0.00  0.00    -0.368 OA
BRANCH   7   8
ATOM      8  C   LIG d   1       2.839  87.791 115.318  0.00  0.00     0.119 C 
BRANCH   8   9
ATOM      9  C   LIG d   1       4.288  88.261 115.086  0.00  0.00     0.028 C 
ATOM     10  C   LIG d   1       4.361  89.557 114.262  0.00  0.00     0.006 C 
ENDBRANCH   8   9
BRANCH   8  11
ATOM     11  C   LIG d   1       2.456  87.017 114.053  0.00  0.00     0.028 C 
ATOM     12  C   LIG d   1       1.251  87.628 113.322  0.00  0.00     0.006 C 
ENDBRANCH   8  11
ENDBRANCH   7   8
ENDBRANCH   1   7
BRANCH   6  13
ATOM     13  N   LIG d   1       3.396  90.654 117.569  0.00  0.00    -0.311 N 
ATOM     14  C   LIG d   1       4.198  91.701 117.387  0.00  0.00     0.210 C 
ATOM     15  C   LIG d   1       5.664  91.467 117.764  0.00  0.00     0.109 C 
ATOM     16  O   LIG d   1       3.828  92.812 116.979  0.00  0.00    -0.276 OA
ATOM     17  H   LIG d   1       3.773  89.801 117.935  0.00  0.00     0.149 HD
ENDBRANCH   6  13
BRANCH   5  18
ATOM     18  N   LIG d   1       1.356  92.568 118.797  0.00  0.00     0.381 N 
ATOM     19  H   LIG d   1       0.974  92.764 119.701  0.00  0.00    -0.090 HD
ATOM     20  H   LIG d   1       0.909  93.170 118.129  0.00  0.00    -0.090 HD
ATOM     21  H   LIG d   1       2.338  92.735 118.801  0.00  0.00    -0.090 HD
ENDBRANCH   5  18
BRANCH   3  22
ATOM     22  C   LIG d   1      -2.052  89.364 117.767  0.00  0.00     0.382 C 
ATOM     23  O   LIG d   1      -2.746  89.872 118.681  0.00  0.00    -0.241 OA
ATOM     24  O   LIG d   1      -2.523  88.437 117.082  0.00  0.00    -0.241 OA
ENDBRANCH   3  22
TORSDOF 7
ENDMDL
MODEL 5
REMARK VINA RESULT:      -4.5      1.497      4.947
REMARK  7 active torsions:
REMARK  status: ('A' for Active; 'I' for Inactive)
REMARK    1  A    between atoms: C_2  and  C_3 
REMARK    2  A    between atoms: C_3  and  O_6 
REMARK    3  A    between atoms: C_3  and  C_4 
REMARK    4  A    between atoms: C_7  and  O_6 
REMARK    5  A    between atoms: C_9  and  C_10 
REMARK    6  A    between atoms: N_15  and  C_14 
REMARK    7  A    between atoms: N_20  and  C_19 
REMARK       I    between atoms: C_22  and  N_20 
ROOT
ATOM      1  C   LIG d   1       4.325  88.078 116.235  0.00  0.00     0.161 C 
ATOM      2  C   LIG d   1       5.107  88.835 117.124  0.00  0.00     0.016 C 
ATOM      3  C   LIG d   1       6.054  89.797 116.702  0.00  0.00     0.038 C 
ATOM      4  C   LIG d   1       6.176  90.177 115.358  0.00  0.00     0.028 C 
ATOM      5  C   LIG d   1       5.766  89.082 114.379  0.00  0.00    -0.047 C 
ATOM      6  C   LIG d   1       4.365  88.558 114.769  0.00  0.00     0.091 C 
ENDROOT
BRANCH   1   7
ATOM      7  O   LIG d   1       2.965  88.022 116.707  0.00  0.00    -0.368 OA
BRANCH   7   8
ATOM      8  C   LIG d   1       2.124  89.151 116.364  0.00  0.00     0.119 C 
BRANCH   8   9
ATOM      9  C   LIG d   1       1.949  90.002 117.637  0.00  0.00     0.028 C 
ATOM     10  C   LIG d   1       2.561  91.405 117.494  0.00  0.00     0.006 C 
ENDBRANCH   8   9
BRANCH   8  11
ATOM     11  C   LIG d   1       0.712  88.699 115.982  0.00  0.00     0.028 C 
ATOM     12  C   LIG d   1      -0.343  89.092 117.028  0.00  0.00     0.006 C 
ENDBRANCH   8  11
ENDBRANCH   7   8
ENDBRANCH   1   7
BRANCH   6  13
ATOM     13  N   LIG d   1       3.925  87.426 113.913  0.00  0.00    -0.311 N 
ATOM     14  C   LIG d   1       2.920  87.513 113.043  0.00  0.00     0.210 C 
ATOM     15  C   LIG d   1       2.616  86.222 112.275  0.00  0.00     0.109 C 
ATOM     16  O   LIG d   1       2.272  88.545 112.811  0.00  0.00    -0.276 OA
ATOM     17  H   LIG d   1       4.416  86.559 114.014  0.00  0.00     0.149 HD
ENDBRANCH   6  13
BRANCH   5  18
ATOM     18  N   LIG d   1       5.811  89.657 113.021  0.00  0.00     0.381 N 
ATOM     19  H   LIG d   1       5.236  90.475 112.981  0.00  0.00    -0.090 HD
ATOM     20  H   LIG d   1       5.447  88.984 112.370  0.00  0.00    -0.090 HD
ATOM     21  H   LIG d   1       6.749  89.890 112.780  0.00  0.00    -0.090 HD
ENDBRANCH   5  18
BRANCH   3  22
ATOM     22  C   LIG d   1       6.919  90.360 117.628  0.00  0.00     0.382 C 
ATOM     23  O   LIG d   1       8.155  90.169 117.528  0.00  0.00    -0.241 OA
ATOM     24  O   LIG d   1       6.476  91.021 118.586  0.00  0.00    -0.241 OA
ENDBRANCH   3  22
TORSDOF 7
ENDMDL
MODEL 6
REMARK VINA RESULT:      -4.3      1.983      4.464
REMARK  7 active torsions:
REMARK  status: ('A' for Active; 'I' for Inactive)
REMARK    1  A    between atoms: C_2  and  C_3 
REMARK    2  A    between atoms: C_3  and  O_6 
REMARK    3  A    between atoms: C_3  and  C_4 
REMARK    4  A    between atoms: C_7  and  O_6 
REMARK    5  A    between atoms: C_9  and  C_10 
REMARK    6  A    between atoms: N_15  and  C_14 
REMARK    7  A    between atoms: N_20  and  C_19 
REMARK       I    between atoms: C_22  and  N_20 
ROOT
ATOM      1  C   LIG d   1       2.867  88.045 116.420  0.00  0.00     0.161 C 
ATOM      2  C   LIG d   1       1.515  88.416 116.523  0.00  0.00     0.016 C 
ATOM      3  C   LIG d   1       1.090  89.694 116.953  0.00  0.00     0.038 C 
ATOM      4  C   LIG d   1       1.995  90.744 117.167  0.00  0.00     0.028 C 
ATOM      5  C   LIG d   1       3.390  90.270 117.563  0.00  0.00    -0.047 C 
ATOM      6  C   LIG d   1       3.869  89.212 116.543  0.00  0.00     0.091 C 
ENDROOT
BRANCH   1   7
ATOM      7  O   LIG d   1       3.084  87.326 115.190  0.00  0.00    -0.368 OA
BRANCH   7   8
ATOM      8  C   LIG d   1       2.865  88.072 113.968  0.00  0.00     0.119 C 
BRANCH   8   9
ATOM      9  C   LIG d   1       1.647  87.451 113.257  0.00  0.00     0.028 C 
ATOM     10  C   LIG d   1       2.005  86.872 111.878  0.00  0.00     0.006 C 
ENDBRANCH   8   9
BRANCH   8  11
ATOM     11  C   LIG d   1       4.034  87.901 112.993  0.00  0.00     0.028 C 
ATOM     12  C   LIG d   1       5.059  89.043 113.085  0.00  0.00     0.006 C 
ENDBRANCH   8  11
ENDBRANCH   7   8
ENDBRANCH   1   7
BRANCH   6  13
ATOM     13  N   LIG d   1       5.190  88.635 116.903  0.00  0.00    -0.311 N 
ATOM     14  C   LIG d   1       6.351  89.180 116.544  0.00  0.00     0.210 C 
ATOM     15  C   LIG d   1       7.595  88.412 117.003  0.00  0.00     0.109 C 
ATOM     16  O   LIG d   1       6.469  90.243 115.917  0.00  0.00    -0.276 OA
ATOM     17  H   LIG d   1       5.187  87.788 117.438  0.00  0.00     0.149 HD
ENDBRANCH   6  13
BRANCH   5  18
ATOM     18  N   LIG d   1       4.264  91.456 117.620  0.00  0.00     0.381 N 
ATOM     19  H   LIG d   1       4.824  91.425 118.449  0.00  0.00    -0.090 HD
ATOM     20  H   LIG d   1       3.691  92.281 117.657  0.00  0.00    -0.090 HD
ATOM     21  H   LIG d   1       4.850  91.487 116.815  0.00  0.00    -0.090 HD
ENDBRANCH   5  18
BRANCH   3  22
ATOM     22  C   LIG d   1      -0.254  89.920 117.212  0.00  0.00     0.382 C 
ATOM     23  O   LIG d   1      -1.109  89.066 116.875  0.00  0.00    -0.241 OA
ATOM     24  O   LIG d   1      -0.625  90.985 117.739  0.00  0.00    -0.241 OA
ENDBRANCH   3  22
TORSDOF 7
ENDMDL
MODEL 7
REMARK VINA RESULT:      -4.0      2.588      5.789
REMARK  7 active torsions:
REMARK  status: ('A' for Active; 'I' for Inactive)
REMARK    1  A    between atoms: C_2  and  C_3 
REMARK    2  A    between atoms: C_3  and  O_6 
REMARK    3  A    between atoms: C_3  and  C_4 
REMARK    4  A    between atoms: C_7  and  O_6 
REMARK    5  A    between atoms: C_9  and  C_10 
REMARK    6  A    between atoms: N_15  and  C_14 
REMARK    7  A    between atoms: N_20  and  C_19 
REMARK       I    between atoms: C_22  and  N_20 
ROOT
ATOM      1  C   LIG d   1       4.965  89.332 115.381  0.00  0.00     0.161 C 
ATOM      2  C   LIG d   1       4.712  90.467 116.168  0.00  0.00     0.016 C 
ATOM      3  C   LIG d   1       3.470  90.720 116.793  0.00  0.00     0.038 C 
ATOM      4  C   LIG d   1       2.436  89.772 116.798  0.00  0.00     0.028 C 
ATOM      5  C   LIG d   1       2.468  88.835 115.595  0.00  0.00    -0.047 C 
ATOM      6  C   LIG d   1       3.885  88.233 115.466  0.00  0.00     0.091 C 
ENDROOT
BRANCH   1   7
ATOM      7  O   LIG d   1       6.260  88.789 115.708  0.00  0.00    -0.368 OA
BRANCH   7   8
ATOM      8  C   LIG d   1       6.533  88.597 117.118  0.00  0.00     0.119 C 
BRANCH   8   9
ATOM      9  C   LIG d   1       7.923  89.197 117.406  0.00  0.00     0.028 C 
ATOM     10  C   LIG d   1       7.842  90.511 118.200  0.00  0.00     0.006 C 
ENDBRANCH   8   9
BRANCH   8  11
ATOM     11  C   LIG d   1       6.652  87.111 117.465  0.00  0.00     0.028 C 
ATOM     12  C   LIG d   1       8.011  86.513 117.067  0.00  0.00     0.006 C 
ENDBRANCH   8  11
ENDBRANCH   7   8
ENDBRANCH   1   7
BRANCH   6  13
ATOM     13  N   LIG d   1       4.027  87.369 114.264  0.00  0.00    -0.311 N 
ATOM     14  C   LIG d   1       3.460  87.646 113.092  0.00  0.00     0.210 C 
ATOM     15  C   LIG d   1       3.717  86.613 111.989  0.00  0.00     0.109 C 
ATOM     16  O   LIG d   1       2.796  88.665 112.850  0.00  0.00    -0.276 OA
ATOM     17  H   LIG d   1       4.576  86.537 114.363  0.00  0.00     0.149 HD
ENDBRANCH   6  13
BRANCH   5  18
ATOM     18  N   LIG d   1       1.422  87.815 115.797  0.00  0.00     0.381 N 
ATOM     19  H   LIG d   1       1.765  87.092 116.398  0.00  0.00    -0.090 HD
ATOM     20  H   LIG d   1       1.193  87.404 114.909  0.00  0.00    -0.090 HD
ATOM     21  H   LIG d   1       0.611  88.232 116.197  0.00  0.00    -0.090 HD
ENDBRANCH   5  18
BRANCH   3  22
ATOM     22  C   LIG d   1       3.238  91.950 117.390  0.00  0.00     0.382 C 
ATOM     23  O   LIG d   1       3.992  92.921 117.139  0.00  0.00    -0.241 OA
ATOM     24  O   LIG d   1       2.311  92.090 118.210  0.00  0.00    -0.241 OA
ENDBRANCH   3  22
TORSDOF 7
ENDMDL
MODEL 8
REMARK VINA RESULT:      -4.0      2.394      5.573
REMARK  7 active torsions:
REMARK  status: ('A' for Active; 'I' for Inactive)
REMARK    1  A    between atoms: C_2  and  C_3 
REMARK    2  A    between atoms: C_3  and  O_6 
REMARK    3  A    between atoms: C_3  and  C_4 
REMARK    4  A    between atoms: C_7  and  O_6 
REMARK    5  A    between atoms: C_9  and  C_10 
REMARK    6  A    between atoms: N_15  and  C_14 
REMARK    7  A    between atoms: N_20  and  C_19 
REMARK       I    between atoms: C_22  and  N_20 
ROOT
ATOM      1  C   LIG d   1       3.907  89.579 115.274  0.00  0.00     0.161 C 
ATOM      2  C   LIG d   1       5.280  89.298 115.370  0.00  0.00     0.016 C 
ATOM      3  C   LIG d   1       5.895  88.816 116.548  0.00  0.00     0.038 C 
ATOM      4  C   LIG d   1       5.147  88.436 117.673  0.00  0.00     0.028 C 
ATOM      5  C   LIG d   1       3.820  89.176 117.796  0.00  0.00    -0.047 C 
ATOM      6  C   LIG d   1       3.058  89.065 116.456  0.00  0.00     0.091 C 
ENDROOT
BRANCH   1   7
ATOM      7  O   LIG d   1       3.390  89.071 114.028  0.00  0.00    -0.368 OA
BRANCH   7   8
ATOM      8  C   LIG d   1       3.502  87.640 113.827  0.00  0.00     0.119 C 
BRANCH   8   9
ATOM      9  C   LIG d   1       4.284  87.416 112.518  0.00  0.00     0.028 C 
ATOM     10  C   LIG d   1       3.644  86.337 111.630  0.00  0.00     0.006 C 
ENDBRANCH   8   9
BRANCH   8  11
ATOM     11  C   LIG d   1       2.130  87.001 113.594  0.00  0.00     0.028 C 
ATOM     12  C   LIG d   1       1.011  88.040 113.421  0.00  0.00     0.006 C 
ENDBRANCH   8  11
ENDBRANCH   7   8
ENDBRANCH   1   7
BRANCH   6  13
ATOM     13  N   LIG d   1       1.785  89.833 116.462  0.00  0.00    -0.311 N 
ATOM     14  C   LIG d   1       0.619  89.316 116.843  0.00  0.00     0.210 C 
ATOM     15  C   LIG d   1      -0.574  90.273 116.754  0.00  0.00     0.109 C 
ATOM     16  O   LIG d   1       0.464  88.164 117.277  0.00  0.00    -0.276 OA
ATOM     17  H   LIG d   1       1.825  90.785 116.155  0.00  0.00     0.149 HD
ENDBRANCH   6  13
BRANCH   5  18
ATOM     18  N   LIG d   1       3.084  88.586 118.930  0.00  0.00     0.381 N 
ATOM     19  H   LIG d   1       3.473  88.912 119.792  0.00  0.00    -0.090 HD
ATOM     20  H   LIG d   1       3.183  87.586 118.897  0.00  0.00    -0.090 HD
ATOM     21  H   LIG d   1       2.120  88.833 118.877  0.00  0.00    -0.090 HD
ENDBRANCH   5  18
BRANCH   3  22
ATOM     22  C   LIG d   1       7.278  88.747 116.623  0.00  0.00     0.382 C 
ATOM     23  O   LIG d   1       7.870  87.684 116.320  0.00  0.00    -0.241 OA
ATOM     24  O   LIG d   1       7.938  89.721 117.032  0.00  0.00    -0.241 OA
ENDBRANCH   3  22
TORSDOF 7
ENDMDL
MODEL 9
REMARK VINA RESULT:      -3.9      1.804      2.471
REMARK  7 active torsions:
REMARK  status: ('A' for Active; 'I' for Inactive)
REMARK    1  A    between atoms: C_2  and  C_3 
REMARK    2  A    between atoms: C_3  and  O_6 
REMARK    3  A    between atoms: C_3  and  C_4 
REMARK    4  A    between atoms: C_7  and  O_6 
REMARK    5  A    between atoms: C_9  and  C_10 
REMARK    6  A    between atoms: N_15  and  C_14 
REMARK    7  A    between atoms: N_20  and  C_19 
REMARK       I    between atoms: C_22  and  N_20 
ROOT
ATOM      1  C   LIG d   1       1.737  89.374 116.462  0.00  0.00     0.161 C 
ATOM      2  C   LIG d   1       1.158  88.797 115.320  0.00  0.00     0.016 C 
ATOM      3  C   LIG d   1       1.812  87.834 114.517  0.00  0.00     0.038 C 
ATOM      4  C   LIG d   1       3.039  87.268 114.891  0.00  0.00     0.028 C 
ATOM      5  C   LIG d   1       3.889  88.185 115.764  0.00  0.00    -0.047 C 
ATOM      6  C   LIG d   1       3.031  88.687 116.948  0.00  0.00     0.091 C 
ENDROOT
BRANCH   1   7
ATOM      7  O   LIG d   1       0.768  89.428 117.528  0.00  0.00    -0.368 OA
BRANCH   7   8
ATOM      8  C   LIG d   1      -0.042  90.627 117.592  0.00  0.00     0.119 C 
BRANCH   8   9
ATOM      9  C   LIG d   1       0.270  91.326 118.929  0.00  0.00     0.028 C 
ATOM     10  C   LIG d   1       1.461  92.293 118.822  0.00  0.00     0.006 C 
ENDBRANCH   8   9
BRANCH   8  11
ATOM     11  C   LIG d   1      -1.535  90.289 117.650  0.00  0.00     0.028 C 
ATOM     12  C   LIG d   1      -1.798  88.799 117.919  0.00  0.00     0.006 C 
ENDBRANCH   8  11
ENDBRANCH   7   8
ENDBRANCH   1   7
BRANCH   6  13
ATOM     13  N   LIG d   1       3.760  89.657 117.806  0.00  0.00    -0.311 N 
ATOM     14  C   LIG d   1       4.433  90.700 117.324  0.00  0.00     0.210 C 
ATOM     15  C   LIG d   1       5.130  91.563 118.380  0.00  0.00     0.109 C 
ATOM     16  O   LIG d   1       4.491  91.011 116.125  0.00  0.00    -0.276 OA
ATOM     17  H   LIG d   1       3.739  89.497 118.794  0.00  0.00     0.149 HD
ENDBRANCH   6  13
BRANCH   5  18
ATOM     18  N   LIG d   1       5.074  87.419 116.194  0.00  0.00     0.381 N 
ATOM     19  H   LIG d   1       4.917  87.032 117.103  0.00  0.00    -0.090 HD
ATOM     20  H   LIG d   1       5.861  88.042 116.247  0.00  0.00    -0.090 HD
ATOM     21  H   LIG d   1       5.263  86.689 115.542  0.00  0.00    -0.090 HD
ENDBRANCH   5  18
BRANCH   3  22
ATOM     22  C   LIG d   1       1.255  87.458 113.304  0.00  0.00     0.382 C 
ATOM     23  O   LIG d   1       1.655  87.987 112.240  0.00  0.00    -0.241 OA
ATOM     24  O   LIG d   1       0.326  86.628 113.266  0.00  0.00    -0.241 OA
ENDBRANCH   3  22
TORSDOF 7
ENDMDL
