MODEL 1
REMARK VINA RESULT:      -4.7      0.000      0.000
REMARK  7 active torsions:
REMARK  status: ('A' for Active; 'I' for Inactive)
REMARK    1  A    between atoms: C_2  and  C_3 
REMARK    2  A    between atoms: C_3  and  O_6 
REMARK    3  A    between atoms: C_3  and  C_4 
REMARK    4  A    between atoms: C_7  and  O_6 
REMARK    5  A    between atoms: C_9  and  C_10 
REMARK    6  A    between atoms: N_15  and  C_14 
REMARK    7  A    between atoms: N_20  and  C_19 
REMARK       I    between atoms: C_22  and  N_20 
ROOT
ATOM      1  C   LIG d   1       3.153  88.403 115.880  0.00  0.00     0.161 C 
ATOM      2  C   LIG d   1       3.635  89.170 116.954  0.00  0.00     0.016 C 
ATOM      3  C   LIG d   1       4.773  90.004 116.865  0.00  0.00     0.038 C 
ATOM      4  C   LIG d   1       5.422  90.245 115.645  0.00  0.00     0.028 C 
ATOM      5  C   LIG d   1       5.278  89.102 114.646  0.00  0.00    -0.047 C 
ATOM      6  C   LIG d   1       3.781  88.739 114.512  0.00  0.00     0.091 C 
ENDROOT
BRANCH   1   7
ATOM      7  O   LIG d   1       1.717  88.507 115.811  0.00  0.00    -0.368 OA
BRANCH   7   8
ATOM      8  C   LIG d   1       1.055  88.999 117.002  0.00  0.00     0.119 C 
BRANCH   8   9
ATOM      9  C   LIG d   1      -0.019  87.967 117.396  0.00  0.00     0.028 C 
ATOM     10  C   LIG d   1      -1.354  88.626 117.779  0.00  0.00     0.006 C 
ENDBRANCH   8   9
BRANCH   8  11
ATOM     11  C   LIG d   1       0.288  90.294 116.719  0.00  0.00     0.028 C 
ATOM     12  C   LIG d   1       0.889  91.512 117.438  0.00  0.00     0.006 C 
ENDBRANCH   8  11
ENDBRANCH   7   8
ENDBRANCH   1   7
BRANCH   6  13
ATOM     13  N   LIG d   1       3.560  87.573 113.617  0.00  0.00    -0.311 N 
ATOM     14  C   LIG d   1       2.785  87.618 112.534  0.00  0.00     0.210 C 
ATOM     15  C   LIG d   1       2.677  86.299 111.762  0.00  0.00     0.109 C 
ATOM     16  O   LIG d   1       2.204  88.632 112.121  0.00  0.00    -0.276 OA
ATOM     17  H   LIG d   1       4.019  86.717 113.860  0.00  0.00     0.149 HD
ENDBRANCH   6  13
BRANCH   5  18
ATOM     18  N   LIG d   1       5.882  89.543 113.375  0.00  0.00     0.381 N 
ATOM     19  H   LIG d   1       5.162  89.743 112.709  0.00  0.00    -0.090 HD
ATOM     20  H   LIG d   1       6.451  88.800 113.010  0.00  0.00    -0.090 HD
ATOM     21  H   LIG d   1       6.439  90.355 113.525  0.00  0.00    -0.090 HD
ENDBRANCH   5  18
BRANCH   3  22
ATOM     22  C   LIG d   1       5.297  90.576 118.014  0.00  0.00     0.382 C 
ATOM     23  O   LIG d   1       5.049  91.775 118.287  0.00  0.00    -0.241 OA
ATOM     24  O   LIG d   1       6.050  89.921 118.759  0.00  0.00    -0.241 OA
ENDBRANCH   3  22
TORSDOF 7
ENDMDL
MODEL 2
REMARK VINA RESULT:      -4.6      2.648      5.290
REMARK  7 active torsions:
REMARK  status: ('A' for Active; 'I' for Inactive)
REMARK    1  A    between atoms: C_2  and  C_3 
REMARK    2  A    between atoms: C_3  and  O_6 
REMARK    3  A    between atoms: C_3  and  C_4 
REMARK    4  A    between atoms: C_7  and  O_6 
REMARK    5  A    between atoms: C_9  and  C_10 
REMARK    6  A    between atoms: N_15  and  C_14 
REMARK    7  A    between atoms: N_20  and  C_19 
REMARK       I    between atoms: C_22  and  N_20 
ROOT
ATOM      1  C   LIG d   1       1.498  88.483 116.431  0.00  0.00     0.161 C 
ATOM      2  C   LIG d   1       0.161  88.405 116.855  0.00  0.00     0.016 C 
ATOM      3  C   LIG d   1      -0.548  89.499 117.402  0.00  0.00     0.038 C 
ATOM      4  C   LIG d   1      -0.010  90.794 117.423  0.00  0.00     0.028 C 
ATOM      5  C   LIG d   1       1.514  90.817 117.472  0.00  0.00    -0.047 C 
ATOM      6  C   LIG d   1       2.066  89.916 116.344  0.00  0.00     0.091 C 
ENDROOT
BRANCH   1   7
ATOM      7  O   LIG d   1       1.652  87.806 115.169  0.00  0.00    -0.368 OA
BRANCH   7   8
ATOM      8  C   LIG d   1       2.203  86.467 115.227  0.00  0.00     0.119 C 
BRANCH   8   9
ATOM      9  C   LIG d   1       3.077  86.381 116.493  0.00  0.00     0.028 C 
ATOM     10  C   LIG d   1       4.577  86.281 116.165  0.00  0.00     0.006 C 
ENDBRANCH   8   9
BRANCH   8  11
ATOM     11  C   LIG d   1       3.157  86.206 114.057  0.00  0.00     0.028 C 
ATOM     12  C   LIG d   1       2.969  87.202 112.902  0.00  0.00     0.006 C 
ENDBRANCH   8  11
ENDBRANCH   7   8
ENDBRANCH   1   7
BRANCH   6  13
ATOM     13  N   LIG d   1       3.548  89.815 116.373  0.00  0.00    -0.311 N 
ATOM     14  C   LIG d   1       4.318  90.017 115.305  0.00  0.00     0.210 C 
ATOM     15  C   LIG d   1       5.820  89.843 115.549  0.00  0.00     0.109 C 
ATOM     16  O   LIG d   1       3.901  90.355 114.187  0.00  0.00    -0.276 OA
ATOM     17  H   LIG d   1       3.972  89.575 117.248  0.00  0.00     0.149 HD
ENDBRANCH   6  13
BRANCH   5  18
ATOM     18  N   LIG d   1       1.943  92.223 117.350  0.00  0.00     0.381 N 
ATOM     19  H   LIG d   1       2.463  92.490 118.162  0.00  0.00    -0.090 HD
ATOM     20  H   LIG d   1       1.128  92.808 117.291  0.00  0.00    -0.090 HD
ATOM     21  H   LIG d   1       2.504  92.339 116.535  0.00  0.00    -0.090 HD
ENDBRANCH   5  18
BRANCH   3  22
ATOM     22  C   LIG d   1      -1.795  89.294 117.972  0.00  0.00     0.382 C 
ATOM     23  O   LIG d   1      -2.138  88.142 118.332  0.00  0.00    -0.241 OA
ATOM     24  O   LIG d   1      -2.599  90.238 118.089  0.00  0.00    -0.241 OA
ENDBRANCH   3  22
TORSDOF 7
ENDMDL
MODEL 3
REMARK VINA RESULT:      -4.5      7.031      9.680
REMARK  7 active torsions:
REMARK  status: ('A' for Active; 'I' for Inactive)
REMARK    1  A    between atoms: C_2  and  C_3 
REMARK    2  A    between atoms: C_3  and  O_6 
REMARK    3  A    between atoms: C_3  and  C_4 
REMARK    4  A    between atoms: C_7  and  O_6 
REMARK    5  A    between atoms: C_9  and  C_10 
REMARK    6  A    between atoms: N_15  and  C_14 
REMARK    7  A    between atoms: N_20  and  C_19 
REMARK       I    between atoms: C_22  and  N_20 
ROOT
ATOM      1  C   LIG d   1      -5.604  91.191 118.232  0.00  0.00     0.161 C 
ATOM      2  C   LIG d   1      -6.241  92.442 118.186  0.00  0.00     0.016 C 
ATOM      3  C   LIG d   1      -5.552  93.672 118.300  0.00  0.00     0.038 C 
ATOM      4  C   LIG d   1      -4.151  93.737 118.317  0.00  0.00     0.028 C 
ATOM      5  C   LIG d   1      -3.492  92.480 118.874  0.00  0.00    -0.047 C 
ATOM      6  C   LIG d   1      -4.065  91.246 118.139  0.00  0.00     0.091 C 
ENDROOT
BRANCH   1   7
ATOM      7  O   LIG d   1      -6.138  90.332 117.206  0.00  0.00    -0.368 OA
BRANCH   7   8
ATOM      8  C   LIG d   1      -7.141  90.920 116.341  0.00  0.00     0.119 C 
BRANCH   8   9
ATOM      9  C   LIG d   1      -7.796  89.774 115.546  0.00  0.00     0.028 C 
ATOM     10  C   LIG d   1      -8.838  89.005 116.376  0.00  0.00     0.006 C 
ENDBRANCH   8   9
BRANCH   8  11
ATOM     11  C   LIG d   1      -6.504  91.832 115.288  0.00  0.00     0.028 C 
ATOM     12  C   LIG d   1      -7.404  92.044 114.060  0.00  0.00     0.006 C 
ENDBRANCH   8  11
ENDBRANCH   7   8
ENDBRANCH   1   7
BRANCH   6  13
ATOM     13  N   LIG d   1      -3.535  89.967 118.680  0.00  0.00    -0.311 N 
ATOM     14  C   LIG d   1      -2.410  89.399 118.251  0.00  0.00     0.210 C 
ATOM     15  C   LIG d   1      -2.055  88.072 118.930  0.00  0.00     0.109 C 
ATOM     16  O   LIG d   1      -1.655  89.884 117.395  0.00  0.00    -0.276 OA
ATOM     17  H   LIG d   1      -4.069  89.521 119.401  0.00  0.00     0.149 HD
ENDBRANCH   6  13
BRANCH   5  18
ATOM     18  N   LIG d   1      -2.034  92.628 118.705  0.00  0.00     0.381 N 
ATOM     19  H   LIG d   1      -1.824  92.840 117.751  0.00  0.00    -0.090 HD
ATOM     20  H   LIG d   1      -1.590  91.759 118.941  0.00  0.00    -0.090 HD
ATOM     21  H   LIG d   1      -1.695  93.355 119.297  0.00  0.00    -0.090 HD
ENDBRANCH   5  18
BRANCH   3  22
ATOM     22  C   LIG d   1      -6.269  94.851 118.439  0.00  0.00     0.382 C 
ATOM     23  O   LIG d   1      -7.516  94.846 118.301  0.00  0.00    -0.241 OA
ATOM     24  O   LIG d   1      -5.679  95.926 118.657  0.00  0.00    -0.241 OA
ENDBRANCH   3  22
TORSDOF 7
ENDMDL
MODEL 4
REMARK VINA RESULT:      -4.4      1.759      4.793
REMARK  7 active torsions:
REMARK  status: ('A' for Active; 'I' for Inactive)
REMARK    1  A    between atoms: C_2  and  C_3 
REMARK    2  A    between atoms: C_3  and  O_6 
REMARK    3  A    between atoms: C_3  and  C_4 
REMARK    4  A    between atoms: C_7  and  O_6 
REMARK    5  A    between atoms: C_9  and  C_10 
REMARK    6  A    between atoms: N_15  and  C_14 
REMARK    7  A    between atoms: N_20  and  C_19 
REMARK       I    between atoms: C_22  and  N_20 
ROOT
ATOM      1  C   LIG d   1       2.735  88.203 115.274  0.00  0.00     0.161 C 
ATOM      2  C   LIG d   1       2.533  87.265 114.247  0.00  0.00     0.016 C 
ATOM      3  C   LIG d   1       3.318  87.217 113.072  0.00  0.00     0.038 C 
ATOM      4  C   LIG d   1       4.462  88.012 112.911  0.00  0.00     0.028 C 
ATOM      5  C   LIG d   1       4.407  89.318 113.696  0.00  0.00    -0.047 C 
ATOM      6  C   LIG d   1       4.048  89.006 115.167  0.00  0.00     0.091 C 
ENDROOT
BRANCH   1   7
ATOM      7  O   LIG d   1       2.650  87.550 116.556  0.00  0.00    -0.368 OA
BRANCH   7   8
ATOM      8  C   LIG d   1       1.584  87.996 117.429  0.00  0.00     0.119 C 
BRANCH   8   9
ATOM      9  C   LIG d   1       0.715  86.768 117.764  0.00  0.00     0.028 C 
ATOM     10  C   LIG d   1       1.429  85.442 117.453  0.00  0.00     0.006 C 
ENDBRANCH   8   9
BRANCH   8  11
ATOM     11  C   LIG d   1       0.647  88.972 116.711  0.00  0.00     0.028 C 
ATOM     12  C   LIG d   1       0.531  90.325 117.430  0.00  0.00     0.006 C 
ENDBRANCH   8  11
ENDBRANCH   7   8
ENDBRANCH   1   7
BRANCH   6  13
ATOM     13  N   LIG d   1       3.891  90.236 115.985  0.00  0.00    -0.311 N 
ATOM     14  C   LIG d   1       4.887  90.790 116.675  0.00  0.00     0.210 C 
ATOM     15  C   LIG d   1       4.505  92.044 117.468  0.00  0.00     0.109 C 
ATOM     16  O   LIG d   1       6.057  90.381 116.679  0.00  0.00    -0.276 OA
ATOM     17  H   LIG d   1       2.981  90.652 116.013  0.00  0.00     0.149 HD
ENDBRANCH   6  13
BRANCH   5  18
ATOM     18  N   LIG d   1       5.716  89.982 113.548  0.00  0.00     0.381 N 
ATOM     19  H   LIG d   1       6.423  89.443 114.007  0.00  0.00    -0.090 HD
ATOM     20  H   LIG d   1       5.674  90.885 113.988  0.00  0.00    -0.090 HD
ATOM     21  H   LIG d   1       5.939  90.085 112.583  0.00  0.00    -0.090 HD
ENDBRANCH   5  18
BRANCH   3  22
ATOM     22  C   LIG d   1       2.936  86.393 112.024  0.00  0.00     0.382 C 
ATOM     23  O   LIG d   1       3.707  85.486 111.627  0.00  0.00    -0.241 OA
ATOM     24  O   LIG d   1       1.849  86.573 111.443  0.00  0.00    -0.241 OA
ENDBRANCH   3  22
TORSDOF 7
ENDMDL
MODEL 5
REMARK VINA RESULT:      -4.4      2.936      6.035
REMARK  7 active torsions:
REMARK  status: ('A' for Active; 'I' for Inactive)
REMARK    1  A    between atoms: C_2  and  C_3 
REMARK    2  A    between atoms: C_3  and  O_6 
REMARK    3  A    between atoms: C_3  and  C_4 
REMARK    4  A    between atoms: C_7  and  O_6 
REMARK    5  A    between atoms: C_9  and  C_10 
REMARK    6  A    between atoms: N_15  and  C_14 
REMARK    7  A    between atoms: N_20  and  C_19 
REMARK       I    between atoms: C_22  and  N_20 
ROOT
ATOM      1  C   LIG d   1       1.308  89.523 116.877  0.00  0.00     0.161 C 
ATOM      2  C   LIG d   1      -0.084  89.382 116.999  0.00  0.00     0.016 C 
ATOM      3  C   LIG d   1      -0.901  90.296 117.702  0.00  0.00     0.038 C 
ATOM      4  C   LIG d   1      -0.396  91.504 118.207  0.00  0.00     0.028 C 
ATOM      5  C   LIG d   1       1.090  91.445 118.546  0.00  0.00    -0.047 C 
ATOM      6  C   LIG d   1       1.861  90.892 117.326  0.00  0.00     0.091 C 
ENDROOT
BRANCH   1   7
ATOM      7  O   LIG d   1       1.712  89.240 115.522  0.00  0.00    -0.368 OA
BRANCH   7   8
ATOM      8  C   LIG d   1       2.719  88.212 115.359  0.00  0.00     0.119 C 
BRANCH   8   9
ATOM      9  C   LIG d   1       3.470  88.505 114.045  0.00  0.00     0.028 C 
ATOM     10  C   LIG d   1       4.384  89.736 114.153  0.00  0.00     0.006 C 
ENDBRANCH   8   9
BRANCH   8  11
ATOM     11  C   LIG d   1       2.082  86.833 115.163  0.00  0.00     0.028 C 
ATOM     12  C   LIG d   1       2.075  86.383 113.694  0.00  0.00     0.006 C 
ENDBRANCH   8  11
ENDBRANCH   7   8
ENDBRANCH   1   7
BRANCH   6  13
ATOM     13  N   LIG d   1       3.312  90.723 117.602  0.00  0.00    -0.311 N 
ATOM     14  C   LIG d   1       4.215  91.676 117.382  0.00  0.00     0.210 C 
ATOM     15  C   LIG d   1       5.659  91.288 117.716  0.00  0.00     0.109 C 
ATOM     16  O   LIG d   1       3.955  92.818 116.973  0.00  0.00    -0.276 OA
ATOM     17  H   LIG d   1       3.607  89.838 117.965  0.00  0.00     0.149 HD
ENDBRANCH   6  13
BRANCH   5  18
ATOM     18  N   LIG d   1       1.513  92.805 118.930  0.00  0.00     0.381 N 
ATOM     19  H   LIG d   1       0.821  93.222 119.520  0.00  0.00    -0.090 HD
ATOM     20  H   LIG d   1       1.599  93.365 118.100  0.00  0.00    -0.090 HD
ATOM     21  H   LIG d   1       2.388  92.768 119.406  0.00  0.00    -0.090 HD
ENDBRANCH   5  18
BRANCH   3  22
ATOM     22  C   LIG d   1      -2.231  89.987 117.941  0.00  0.00     0.382 C 
ATOM     23  O   LIG d   1      -3.028  90.886 118.303  0.00  0.00    -0.241 OA
ATOM     24  O   LIG d   1      -2.634  88.813 117.842  0.00  0.00    -0.241 OA
ENDBRANCH   3  22
TORSDOF 7
ENDMDL
MODEL 6
REMARK VINA RESULT:      -4.2      2.888      4.537
REMARK  7 active torsions:
REMARK  status: ('A' for Active; 'I' for Inactive)
REMARK    1  A    between atoms: C_2  and  C_3 
REMARK    2  A    between atoms: C_3  and  O_6 
REMARK    3  A    between atoms: C_3  and  C_4 
REMARK    4  A    between atoms: C_7  and  O_6 
REMARK    5  A    between atoms: C_9  and  C_10 
REMARK    6  A    between atoms: N_15  and  C_14 
REMARK    7  A    between atoms: N_20  and  C_19 
REMARK       I    between atoms: C_22  and  N_20 
ROOT
ATOM      1  C   LIG d   1       4.436  88.039 116.587  0.00  0.00     0.161 C 
ATOM      2  C   LIG d   1       3.594  89.163 116.563  0.00  0.00     0.016 C 
ATOM      3  C   LIG d   1       4.031  90.471 116.873  0.00  0.00     0.038 C 
ATOM      4  C   LIG d   1       5.386  90.769 117.084  0.00  0.00     0.028 C 
ATOM      5  C   LIG d   1       6.191  89.587 117.615  0.00  0.00    -0.047 C 
ATOM      6  C   LIG d   1       5.941  88.362 116.707  0.00  0.00     0.091 C 
ENDROOT
BRANCH   1   7
ATOM      7  O   LIG d   1       4.190  87.219 115.428  0.00  0.00    -0.368 OA
BRANCH   7   8
ATOM      8  C   LIG d   1       3.544  87.874 114.309  0.00  0.00     0.119 C 
BRANCH   8   9
ATOM      9  C   LIG d   1       2.526  86.880 113.716  0.00  0.00     0.028 C 
ATOM     10  C   LIG d   1       1.946  85.930 114.778  0.00  0.00     0.006 C 
ENDBRANCH   8   9
BRANCH   8  11
ATOM     11  C   LIG d   1       4.539  88.157 113.180  0.00  0.00     0.028 C 
ATOM     12  C   LIG d   1       5.259  89.505 113.345  0.00  0.00     0.006 C 
ENDBRANCH   8  11
ENDBRANCH   7   8
ENDBRANCH   1   7
BRANCH   6  13
ATOM     13  N   LIG d   1       6.624  87.139 117.203  0.00  0.00    -0.311 N 
ATOM     14  C   LIG d   1       7.807  86.726 116.751  0.00  0.00     0.210 C 
ATOM     15  C   LIG d   1       8.324  85.430 117.384  0.00  0.00     0.109 C 
ATOM     16  O   LIG d   1       8.492  87.327 115.910  0.00  0.00    -0.276 OA
ATOM     17  H   LIG d   1       6.154  86.608 117.910  0.00  0.00     0.149 HD
ENDBRANCH   6  13
BRANCH   5  18
ATOM     18  N   LIG d   1       7.607  89.996 117.657  0.00  0.00     0.381 N 
ATOM     19  H   LIG d   1       8.184  89.200 117.843  0.00  0.00    -0.090 HD
ATOM     20  H   LIG d   1       7.733  90.657 118.404  0.00  0.00    -0.090 HD
ATOM     21  H   LIG d   1       7.869  90.410 116.790  0.00  0.00    -0.090 HD
ENDBRANCH   5  18
BRANCH   3  22
ATOM     22  C   LIG d   1       3.103  91.491 117.015  0.00  0.00     0.382 C 
ATOM     23  O   LIG d   1       3.484  92.686 117.048  0.00  0.00    -0.241 OA
ATOM     24  O   LIG d   1       1.893  91.229 117.154  0.00  0.00    -0.241 OA
ENDBRANCH   3  22
TORSDOF 7
ENDMDL
MODEL 7
REMARK VINA RESULT:      -4.2      1.893      4.516
REMARK  7 active torsions:
REMARK  status: ('A' for Active; 'I' for Inactive)
REMARK    1  A    between atoms: C_2  and  C_3 
REMARK    2  A    between atoms: C_3  and  O_6 
REMARK    3  A    between atoms: C_3  and  C_4 
REMARK    4  A    between atoms: C_7  and  O_6 
REMARK    5  A    between atoms: C_9  and  C_10 
REMARK    6  A    between atoms: N_15  and  C_14 
REMARK    7  A    between atoms: N_20  and  C_19 
REMARK       I    between atoms: C_22  and  N_20 
ROOT
ATOM      1  C   LIG d   1       3.095  89.715 116.609  0.00  0.00     0.161 C 
ATOM      2  C   LIG d   1       2.780  89.094 115.389  0.00  0.00     0.016 C 
ATOM      3  C   LIG d   1       3.749  88.744 114.421  0.00  0.00     0.038 C 
ATOM      4  C   LIG d   1       5.125  88.856 114.675  0.00  0.00     0.028 C 
ATOM      5  C   LIG d   1       5.467  89.943 115.688  0.00  0.00    -0.047 C 
ATOM      6  C   LIG d   1       4.599  89.743 116.951  0.00  0.00     0.091 C 
ENDROOT
BRANCH   1   7
ATOM      7  O   LIG d   1       2.350  89.098 117.678  0.00  0.00    -0.368 OA
BRANCH   7   8
ATOM      8  C   LIG d   1       1.391  89.944 118.358  0.00  0.00     0.119 C 
BRANCH   8   9
ATOM      9  C   LIG d   1       0.177  89.069 118.723  0.00  0.00     0.028 C 
ATOM     10  C   LIG d   1      -0.452  88.395 117.492  0.00  0.00     0.006 C 
ENDBRANCH   8   9
BRANCH   8  11
ATOM     11  C   LIG d   1       0.843  91.028 117.424  0.00  0.00     0.028 C 
ATOM     12  C   LIG d   1      -0.053  92.043 118.150  0.00  0.00     0.006 C 
ENDBRANCH   8  11
ENDBRANCH   7   8
ENDBRANCH   1   7
BRANCH   6  13
ATOM     13  N   LIG d   1       4.811  90.814 117.960  0.00  0.00    -0.311 N 
ATOM     14  C   LIG d   1       4.454  92.083 117.768  0.00  0.00     0.210 C 
ATOM     15  C   LIG d   1       4.781  93.029 118.927  0.00  0.00     0.109 C 
ATOM     16  O   LIG d   1       3.868  92.508 116.761  0.00  0.00    -0.276 OA
ATOM     17  H   LIG d   1       5.252  90.551 118.819  0.00  0.00     0.149 HD
ENDBRANCH   6  13
BRANCH   5  18
ATOM     18  N   LIG d   1       6.914  89.858 115.961  0.00  0.00     0.381 N 
ATOM     19  H   LIG d   1       7.198  90.633 116.527  0.00  0.00    -0.090 HD
ATOM     20  H   LIG d   1       7.413  89.904 115.090  0.00  0.00    -0.090 HD
ATOM     21  H   LIG d   1       7.123  89.003 116.427  0.00  0.00    -0.090 HD
ENDBRANCH   5  18
BRANCH   3  22
ATOM     22  C   LIG d   1       3.344  88.314 113.167  0.00  0.00     0.382 C 
ATOM     23  O   LIG d   1       3.925  87.347 112.618  0.00  0.00    -0.241 OA
ATOM     24  O   LIG d   1       2.434  88.908 112.559  0.00  0.00    -0.241 OA
ENDBRANCH   3  22
TORSDOF 7
ENDMDL
MODEL 8
REMARK VINA RESULT:      -4.1      6.974      9.634
REMARK  7 active torsions:
REMARK  status: ('A' for Active; 'I' for Inactive)
REMARK    1  A    between atoms: C_2  and  C_3 
REMARK    2  A    between atoms: C_3  and  O_6 
REMARK    3  A    between atoms: C_3  and  C_4 
REMARK    4  A    between atoms: C_7  and  O_6 
REMARK    5  A    between atoms: C_9  and  C_10 
REMARK    6  A    between atoms: N_15  and  C_14 
REMARK    7  A    between atoms: N_20  and  C_19 
REMARK       I    between atoms: C_22  and  N_20 
ROOT
ATOM      1  C   LIG d   1      -4.986  91.101 117.065  0.00  0.00     0.161 C 
ATOM      2  C   LIG d   1      -3.896  90.295 117.433  0.00  0.00     0.016 C 
ATOM      3  C   LIG d   1      -2.827  90.753 118.237  0.00  0.00     0.038 C 
ATOM      4  C   LIG d   1      -2.851  92.011 118.857  0.00  0.00     0.028 C 
ATOM      5  C   LIG d   1      -3.688  93.041 118.105  0.00  0.00    -0.047 C 
ATOM      6  C   LIG d   1      -5.085  92.442 117.822  0.00  0.00     0.091 C 
ENDROOT
BRANCH   1   7
ATOM      7  O   LIG d   1      -6.213  90.357 117.203  0.00  0.00    -0.368 OA
BRANCH   7   8
ATOM      8  C   LIG d   1      -6.782  89.833 115.977  0.00  0.00     0.119 C 
BRANCH   8   9
ATOM      9  C   LIG d   1      -6.242  90.688 114.814  0.00  0.00     0.028 C 
ATOM     10  C   LIG d   1      -7.338  91.545 114.158  0.00  0.00     0.006 C 
ENDBRANCH   8   9
BRANCH   8  11
ATOM     11  C   LIG d   1      -8.302  90.018 115.945  0.00  0.00     0.028 C 
ATOM     12  C   LIG d   1      -9.066  88.731 116.292  0.00  0.00     0.006 C 
ENDBRANCH   8  11
ENDBRANCH   7   8
ENDBRANCH   1   7
BRANCH   6  13
ATOM     13  N   LIG d   1      -5.939  93.352 117.016  0.00  0.00    -0.311 N 
ATOM     14  C   LIG d   1      -7.215  93.604 117.302  0.00  0.00     0.210 C 
ATOM     15  C   LIG d   1      -7.920  94.556 116.330  0.00  0.00     0.109 C 
ATOM     16  O   LIG d   1      -7.822  93.155 118.286  0.00  0.00    -0.276 OA
ATOM     17  H   LIG d   1      -5.518  93.784 116.217  0.00  0.00     0.149 HD
ENDBRANCH   6  13
BRANCH   5  18
ATOM     18  N   LIG d   1      -3.739  94.262 118.930  0.00  0.00     0.381 N 
ATOM     19  H   LIG d   1      -3.033  94.222 119.638  0.00  0.00    -0.090 HD
ATOM     20  H   LIG d   1      -4.635  94.313 119.380  0.00  0.00    -0.090 HD
ATOM     21  H   LIG d   1      -3.600  95.066 118.358  0.00  0.00    -0.090 HD
ENDBRANCH   5  18
BRANCH   3  22
ATOM     22  C   LIG d   1      -1.699  89.962 118.396  0.00  0.00     0.382 C 
ATOM     23  O   LIG d   1      -0.636  90.466 118.832  0.00  0.00    -0.241 OA
ATOM     24  O   LIG d   1      -1.718  88.761 118.067  0.00  0.00    -0.241 OA
ENDBRANCH   3  22
TORSDOF 7
ENDMDL
MODEL 9
REMARK VINA RESULT:      -4.0      2.365      5.080
REMARK  7 active torsions:
REMARK  status: ('A' for Active; 'I' for Inactive)
REMARK    1  A    between atoms: C_2  and  C_3 
REMARK    2  A    between atoms: C_3  and  O_6 
REMARK    3  A    between atoms: C_3  and  C_4 
REMARK    4  A    between atoms: C_7  and  O_6 
REMARK    5  A    between atoms: C_9  and  C_10 
REMARK    6  A    between atoms: N_15  and  C_14 
REMARK    7  A    between atoms: N_20  and  C_19 
REMARK       I    between atoms: C_22  and  N_20 
ROOT
ATOM      1  C   LIG d   1       2.730  89.561 115.716  0.00  0.00     0.161 C 
ATOM      2  C   LIG d   1       1.425  89.867 116.139  0.00  0.00     0.016 C 
ATOM      3  C   LIG d   1       1.114  90.971 116.966  0.00  0.00     0.038 C 
ATOM      4  C   LIG d   1       2.072  91.938 117.304  0.00  0.00     0.028 C 
ATOM      5  C   LIG d   1       3.498  91.398 117.318  0.00  0.00    -0.047 C 
ATOM      6  C   LIG d   1       3.772  90.668 115.983  0.00  0.00     0.091 C 
ENDROOT
BRANCH   1   7
ATOM      7  O   LIG d   1       2.720  89.209 114.319  0.00  0.00    -0.368 OA
BRANCH   7   8
ATOM      8  C   LIG d   1       3.314  87.932 113.979  0.00  0.00     0.119 C 
BRANCH   8   9
ATOM      9  C   LIG d   1       2.729  87.495 112.622  0.00  0.00     0.028 C 
ATOM     10  C   LIG d   1       3.663  86.541 111.860  0.00  0.00     0.006 C 
ENDBRANCH   8   9
BRANCH   8  11
ATOM     11  C   LIG d   1       2.897  86.842 114.971  0.00  0.00     0.028 C 
ATOM     12  C   LIG d   1       4.085  86.001 115.465  0.00  0.00     0.006 C 
ENDBRANCH   8  11
ENDBRANCH   7   8
ENDBRANCH   1   7
BRANCH   6  13
ATOM     13  N   LIG d   1       5.117  90.037 115.947  0.00  0.00    -0.311 N 
ATOM     14  C   LIG d   1       5.521  89.121 116.827  0.00  0.00     0.210 C 
ATOM     15  C   LIG d   1       6.952  88.615 116.621  0.00  0.00     0.109 C 
ATOM     16  O   LIG d   1       4.819  88.658 117.738  0.00  0.00    -0.276 OA
ATOM     17  H   LIG d   1       5.740  90.332 115.222  0.00  0.00     0.149 HD
ENDBRANCH   6  13
BRANCH   5  18
ATOM     18  N   LIG d   1       4.404  92.539 117.549  0.00  0.00     0.381 N 
ATOM     19  H   LIG d   1       3.871  93.354 117.776  0.00  0.00    -0.090 HD
ATOM     20  H   LIG d   1       4.918  92.722 116.705  0.00  0.00    -0.090 HD
ATOM     21  H   LIG d   1       5.035  92.329 118.291  0.00  0.00    -0.090 HD
ENDBRANCH   5  18
BRANCH   3  22
ATOM     22  C   LIG d   1      -0.161  91.094 117.497  0.00  0.00     0.382 C 
ATOM     23  O   LIG d   1      -0.949  90.117 117.469  0.00  0.00    -0.241 OA
ATOM     24  O   LIG d   1      -0.550  92.182 117.963  0.00  0.00    -0.241 OA
ENDBRANCH   3  22
TORSDOF 7
ENDMDL
