MODEL 1
REMARK VINA RESULT:      -5.5      0.000      0.000
REMARK  7 active torsions:
REMARK  status: ('A' for Active; 'I' for Inactive)
REMARK    1  A    between atoms: C_2  and  C_3 
REMARK    2  A    between atoms: C_3  and  O_6 
REMARK    3  A    between atoms: C_3  and  C_4 
REMARK    4  A    between atoms: C_7  and  O_6 
REMARK    5  A    between atoms: C_9  and  C_10 
REMARK    6  A    between atoms: N_15  and  C_14 
REMARK    7  A    between atoms: N_20  and  C_19 
REMARK       I    between atoms: C_22  and  N_20 
ROOT
ATOM      1  C   LIG d   1      -4.883  90.320 116.667  0.00  0.00     0.161 C 
ATOM      2  C   LIG d   1      -4.234  89.379 115.851  0.00  0.00     0.016 C 
ATOM      3  C   LIG d   1      -4.775  88.897 114.637  0.00  0.00     0.038 C 
ATOM      4  C   LIG d   1      -5.942  89.440 114.078  0.00  0.00     0.028 C 
ATOM      5  C   LIG d   1      -6.891  90.031 115.114  0.00  0.00    -0.047 C 
ATOM      6  C   LIG d   1      -6.103  91.006 116.018  0.00  0.00     0.091 C 
ENDROOT
BRANCH   1   7
ATOM      7  O   LIG d   1      -3.936  91.307 117.122  0.00  0.00    -0.368 OA
BRANCH   7   8
ATOM      8  C   LIG d   1      -2.618  90.815 117.465  0.00  0.00     0.119 C 
BRANCH   8   9
ATOM      9  C   LIG d   1      -2.715  90.163 118.858  0.00  0.00     0.028 C 
ATOM     10  C   LIG d   1      -1.971  88.819 118.930  0.00  0.00     0.006 C 
ENDBRANCH   8   9
BRANCH   8  11
ATOM     11  C   LIG d   1      -1.618  91.965 117.625  0.00  0.00     0.028 C 
ATOM     12  C   LIG d   1      -2.302  93.333 117.770  0.00  0.00     0.006 C 
ENDBRANCH   8  11
ENDBRANCH   7   8
ENDBRANCH   1   7
BRANCH   6  13
ATOM     13  N   LIG d   1      -6.939  91.565 117.113  0.00  0.00    -0.311 N 
ATOM     14  C   LIG d   1      -7.485  92.780 117.071  0.00  0.00     0.210 C 
ATOM     15  C   LIG d   1      -8.294  93.168 118.313  0.00  0.00     0.109 C 
ATOM     16  O   LIG d   1      -7.403  93.559 116.110  0.00  0.00    -0.276 OA
ATOM     17  H   LIG d   1      -7.083  90.988 117.918  0.00  0.00     0.149 HD
ENDBRANCH   6  13
BRANCH   5  18
ATOM     18  N   LIG d   1      -7.996  90.683 114.385  0.00  0.00     0.381 N 
ATOM     19  H   LIG d   1      -8.792  90.772 114.985  0.00  0.00    -0.090 HD
ATOM     20  H   LIG d   1      -8.253  90.108 113.603  0.00  0.00    -0.090 HD
ATOM     21  H   LIG d   1      -7.710  91.582 114.066  0.00  0.00    -0.090 HD
ENDBRANCH   5  18
BRANCH   3  22
ATOM     22  C   LIG d   1      -4.169  87.831 113.989  0.00  0.00     0.382 C 
ATOM     23  O   LIG d   1      -4.310  87.688 112.751  0.00  0.00    -0.241 OA
ATOM     24  O   LIG d   1      -3.519  86.987 114.634  0.00  0.00    -0.241 OA
ENDBRANCH   3  22
TORSDOF 7
ENDMDL
MODEL 2
REMARK VINA RESULT:      -5.4      0.688      1.825
REMARK  7 active torsions:
REMARK  status: ('A' for Active; 'I' for Inactive)
REMARK    1  A    between atoms: C_2  and  C_3 
REMARK    2  A    between atoms: C_3  and  O_6 
REMARK    3  A    between atoms: C_3  and  C_4 
REMARK    4  A    between atoms: C_7  and  O_6 
REMARK    5  A    between atoms: C_9  and  C_10 
REMARK    6  A    between atoms: N_15  and  C_14 
REMARK    7  A    between atoms: N_20  and  C_19 
REMARK       I    between atoms: C_22  and  N_20 
ROOT
ATOM      1  C   LIG d   1      -4.659  90.208 116.616  0.00  0.00     0.161 C 
ATOM      2  C   LIG d   1      -4.048  89.258 115.780  0.00  0.00     0.016 C 
ATOM      3  C   LIG d   1      -4.637  88.778 114.588  0.00  0.00     0.038 C 
ATOM      4  C   LIG d   1      -5.817  89.330 114.069  0.00  0.00     0.028 C 
ATOM      5  C   LIG d   1      -6.724  89.933 115.136  0.00  0.00    -0.047 C 
ATOM      6  C   LIG d   1      -5.895  90.904 116.008  0.00  0.00     0.091 C 
ENDROOT
BRANCH   1   7
ATOM      7  O   LIG d   1      -3.688  91.188 117.034  0.00  0.00    -0.368 OA
BRANCH   7   8
ATOM      8  C   LIG d   1      -3.167  91.035 118.377  0.00  0.00     0.119 C 
BRANCH   8   9
ATOM      9  C   LIG d   1      -2.860  92.445 118.918  0.00  0.00     0.028 C 
ATOM     10  C   LIG d   1      -4.047  93.409 118.750  0.00  0.00     0.006 C 
ENDBRANCH   8   9
BRANCH   8  11
ATOM     11  C   LIG d   1      -1.823  90.301 118.373  0.00  0.00     0.028 C 
ATOM     12  C   LIG d   1      -1.923  88.872 118.930  0.00  0.00     0.006 C 
ENDBRANCH   8  11
ENDBRANCH   7   8
ENDBRANCH   1   7
BRANCH   6  13
ATOM     13  N   LIG d   1      -6.687  91.474 117.130  0.00  0.00    -0.311 N 
ATOM     14  C   LIG d   1      -7.349  92.627 117.048  0.00  0.00     0.210 C 
ATOM     15  C   LIG d   1      -8.084  93.042 118.326  0.00  0.00     0.109 C 
ATOM     16  O   LIG d   1      -7.424  93.328 116.028  0.00  0.00    -0.276 OA
ATOM     17  H   LIG d   1      -6.706  90.954 117.985  0.00  0.00     0.149 HD
ENDBRANCH   6  13
BRANCH   5  18
ATOM     18  N   LIG d   1      -7.847  90.593 114.444  0.00  0.00     0.381 N 
ATOM     19  H   LIG d   1      -7.496  91.224 113.752  0.00  0.00    -0.090 HD
ATOM     20  H   LIG d   1      -8.375  91.124 115.115  0.00  0.00    -0.090 HD
ATOM     21  H   LIG d   1      -8.433  89.910 114.016  0.00  0.00    -0.090 HD
ENDBRANCH   5  18
BRANCH   3  22
ATOM     22  C   LIG d   1      -4.063  87.705 113.923  0.00  0.00     0.382 C 
ATOM     23  O   LIG d   1      -3.538  86.771 114.575  0.00  0.00    -0.241 OA
ATOM     24  O   LIG d   1      -4.025  87.681 112.678  0.00  0.00    -0.241 OA
ENDBRANCH   3  22
TORSDOF 7
ENDMDL
MODEL 3
REMARK VINA RESULT:      -5.2      2.528      6.094
REMARK  7 active torsions:
REMARK  status: ('A' for Active; 'I' for Inactive)
REMARK    1  A    between atoms: C_2  and  C_3 
REMARK    2  A    between atoms: C_3  and  O_6 
REMARK    3  A    between atoms: C_3  and  C_4 
REMARK    4  A    between atoms: C_7  and  O_6 
REMARK    5  A    between atoms: C_9  and  C_10 
REMARK    6  A    between atoms: N_15  and  C_14 
REMARK    7  A    between atoms: N_20  and  C_19 
REMARK       I    between atoms: C_22  and  N_20 
ROOT
ATOM      1  C   LIG d   1      -6.216  90.945 118.016  0.00  0.00     0.161 C 
ATOM      2  C   LIG d   1      -7.351  91.769 117.937  0.00  0.00     0.016 C 
ATOM      3  C   LIG d   1      -7.310  93.171 118.115  0.00  0.00     0.038 C 
ATOM      4  C   LIG d   1      -6.098  93.867 118.236  0.00  0.00     0.028 C 
ATOM      5  C   LIG d   1      -4.971  93.025 118.826  0.00  0.00    -0.047 C 
ATOM      6  C   LIG d   1      -4.870  91.700 118.036  0.00  0.00     0.091 C 
ENDROOT
BRANCH   1   7
ATOM      7  O   LIG d   1      -6.235  89.983 116.943  0.00  0.00    -0.368 OA
BRANCH   7   8
ATOM      8  C   LIG d   1      -5.837  90.475 115.639  0.00  0.00     0.119 C 
BRANCH   8   9
ATOM      9  C   LIG d   1      -7.122  90.717 114.824  0.00  0.00     0.028 C 
ATOM     10  C   LIG d   1      -7.341  92.204 114.500  0.00  0.00     0.006 C 
ENDBRANCH   8   9
BRANCH   8  11
ATOM     11  C   LIG d   1      -5.055  89.414 114.858  0.00  0.00     0.028 C 
ATOM     12  C   LIG d   1      -3.870  88.843 115.652  0.00  0.00     0.006 C 
ENDBRANCH   8  11
ENDBRANCH   7   8
ENDBRANCH   1   7
BRANCH   6  13
ATOM     13  N   LIG d   1      -3.848  90.781 118.601  0.00  0.00    -0.311 N 
ATOM     14  C   LIG d   1      -2.566  90.797 118.239  0.00  0.00     0.210 C 
ATOM     15  C   LIG d   1      -1.685  89.752 118.929  0.00  0.00     0.109 C 
ATOM     16  O   LIG d   1      -2.069  91.600 117.435  0.00  0.00    -0.276 OA
ATOM     17  H   LIG d   1      -4.159  90.117 119.284  0.00  0.00     0.149 HD
ENDBRANCH   6  13
BRANCH   5  18
ATOM     18  N   LIG d   1      -3.736  93.829 118.767  0.00  0.00     0.381 N 
ATOM     19  H   LIG d   1      -3.226  93.607 117.935  0.00  0.00    -0.090 HD
ATOM     20  H   LIG d   1      -3.162  93.601 119.559  0.00  0.00    -0.090 HD
ATOM     21  H   LIG d   1      -3.960  94.800 118.778  0.00  0.00    -0.090 HD
ENDBRANCH   5  18
BRANCH   3  22
ATOM     22  C   LIG d   1      -8.493  93.887 118.214  0.00  0.00     0.382 C 
ATOM     23  O   LIG d   1      -8.614  94.984 117.617  0.00  0.00    -0.241 OA
ATOM     24  O   LIG d   1      -9.425  93.471 118.928  0.00  0.00    -0.241 OA
ENDBRANCH   3  22
TORSDOF 7
ENDMDL
MODEL 4
REMARK VINA RESULT:      -5.0      2.360      5.350
REMARK  7 active torsions:
REMARK  status: ('A' for Active; 'I' for Inactive)
REMARK    1  A    between atoms: C_2  and  C_3 
REMARK    2  A    between atoms: C_3  and  O_6 
REMARK    3  A    between atoms: C_3  and  C_4 
REMARK    4  A    between atoms: C_7  and  O_6 
REMARK    5  A    between atoms: C_9  and  C_10 
REMARK    6  A    between atoms: N_15  and  C_14 
REMARK    7  A    between atoms: N_20  and  C_19 
REMARK       I    between atoms: C_22  and  N_20 
ROOT
ATOM      1  C   LIG d   1      -4.902  92.202 117.976  0.00  0.00     0.161 C 
ATOM      2  C   LIG d   1      -3.651  92.751 118.304  0.00  0.00     0.016 C 
ATOM      3  C   LIG d   1      -2.422  92.117 118.010  0.00  0.00     0.038 C 
ATOM      4  C   LIG d   1      -2.356  90.955 117.226  0.00  0.00     0.028 C 
ATOM      5  C   LIG d   1      -3.616  90.099 117.306  0.00  0.00    -0.047 C 
ATOM      6  C   LIG d   1      -4.847  90.990 117.024  0.00  0.00     0.091 C 
ENDROOT
BRANCH   1   7
ATOM      7  O   LIG d   1      -5.758  93.227 117.434  0.00  0.00    -0.368 OA
BRANCH   7   8
ATOM      8  C   LIG d   1      -6.839  93.674 118.288  0.00  0.00     0.119 C 
BRANCH   8   9
ATOM      9  C   LIG d   1      -8.099  93.806 117.411  0.00  0.00     0.028 C 
ATOM     10  C   LIG d   1      -7.948  93.093 116.056  0.00  0.00     0.006 C 
ENDBRANCH   8   9
BRANCH   8  11
ATOM     11  C   LIG d   1      -6.575  95.080 118.833  0.00  0.00     0.028 C 
ATOM     12  C   LIG d   1      -7.510  96.139 118.227  0.00  0.00     0.006 C 
ENDBRANCH   8  11
ENDBRANCH   7   8
ENDBRANCH   1   7
BRANCH   6  13
ATOM     13  N   LIG d   1      -6.127  90.248 117.164  0.00  0.00    -0.311 N 
ATOM     14  C   LIG d   1      -6.737  89.640 116.149  0.00  0.00     0.210 C 
ATOM     15  C   LIG d   1      -8.057  88.950 116.507  0.00  0.00     0.109 C 
ATOM     16  O   LIG d   1      -6.295  89.578 114.992  0.00  0.00    -0.276 OA
ATOM     17  H   LIG d   1      -6.541  90.221 118.076  0.00  0.00     0.149 HD
ENDBRANCH   6  13
BRANCH   5  18
ATOM     18  N   LIG d   1      -3.466  88.996 116.338  0.00  0.00     0.381 N 
ATOM     19  H   LIG d   1      -2.495  88.802 116.192  0.00  0.00    -0.090 HD
ATOM     20  H   LIG d   1      -3.867  89.276 115.461  0.00  0.00    -0.090 HD
ATOM     21  H   LIG d   1      -3.927  88.180 116.677  0.00  0.00    -0.090 HD
ENDBRANCH   5  18
BRANCH   3  22
ATOM     22  C   LIG d   1      -1.244  92.626 118.535  0.00  0.00     0.382 C 
ATOM     23  O   LIG d   1      -1.100  93.865 118.667  0.00  0.00    -0.241 OA
ATOM     24  O   LIG d   1      -0.306  91.863 118.836  0.00  0.00    -0.241 OA
ENDBRANCH   3  22
TORSDOF 7
ENDMDL
MODEL 5
REMARK VINA RESULT:      -4.6      8.897     11.593
REMARK  7 active torsions:
REMARK  status: ('A' for Active; 'I' for Inactive)
REMARK    1  A    between atoms: C_2  and  C_3 
REMARK    2  A    between atoms: C_3  and  O_6 
REMARK    3  A    between atoms: C_3  and  C_4 
REMARK    4  A    between atoms: C_7  and  O_6 
REMARK    5  A    between atoms: C_9  and  C_10 
REMARK    6  A    between atoms: N_15  and  C_14 
REMARK    7  A    between atoms: N_20  and  C_19 
REMARK       I    between atoms: C_22  and  N_20 
ROOT
ATOM      1  C   LIG d   1       4.347  87.703 115.949  0.00  0.00     0.161 C 
ATOM      2  C   LIG d   1       3.331  88.662 115.793  0.00  0.00     0.016 C 
ATOM      3  C   LIG d   1       3.477  90.018 116.165  0.00  0.00     0.038 C 
ATOM      4  C   LIG d   1       4.709  90.544 116.581  0.00  0.00     0.028 C 
ATOM      5  C   LIG d   1       5.622  89.509 117.231  0.00  0.00    -0.047 C 
ATOM      6  C   LIG d   1       5.734  88.282 116.297  0.00  0.00     0.091 C 
ENDROOT
BRANCH   1   7
ATOM      7  O   LIG d   1       4.429  86.882 114.767  0.00  0.00    -0.368 OA
BRANCH   7   8
ATOM      8  C   LIG d   1       3.997  87.500 113.530  0.00  0.00     0.119 C 
BRANCH   8   9
ATOM      9  C   LIG d   1       3.260  86.425 112.708  0.00  0.00     0.028 C 
ATOM     10  C   LIG d   1       4.094  85.924 111.516  0.00  0.00     0.006 C 
ENDBRANCH   8   9
BRANCH   8  11
ATOM     11  C   LIG d   1       5.192  87.920 112.670  0.00  0.00     0.028 C 
ATOM     12  C   LIG d   1       5.593  89.389 112.882  0.00  0.00     0.006 C 
ENDBRANCH   8  11
ENDBRANCH   7   8
ENDBRANCH   1   7
BRANCH   6  13
ATOM     13  N   LIG d   1       6.541  87.187 116.895  0.00  0.00    -0.311 N 
ATOM     14  C   LIG d   1       7.852  87.051 116.700  0.00  0.00     0.210 C 
ATOM     15  C   LIG d   1       8.487  85.841 117.392  0.00  0.00     0.109 C 
ATOM     16  O   LIG d   1       8.554  87.836 116.045  0.00  0.00    -0.276 OA
ATOM     17  H   LIG d   1       6.056  86.523 117.467  0.00  0.00     0.149 HD
ENDBRANCH   6  13
BRANCH   5  18
ATOM     18  N   LIG d   1       6.920  90.159 117.490  0.00  0.00     0.381 N 
ATOM     19  H   LIG d   1       6.781  91.135 117.664  0.00  0.00    -0.090 HD
ATOM     20  H   LIG d   1       7.500  90.064 116.675  0.00  0.00    -0.090 HD
ATOM     21  H   LIG d   1       7.364  89.735 118.275  0.00  0.00    -0.090 HD
ENDBRANCH   5  18
BRANCH   3  22
ATOM     22  C   LIG d   1       2.372  90.855 116.160  0.00  0.00     0.382 C 
ATOM     23  O   LIG d   1       1.289  90.460 115.663  0.00  0.00    -0.241 OA
ATOM     24  O   LIG d   1       2.455  92.014 116.607  0.00  0.00    -0.241 OA
ENDBRANCH   3  22
TORSDOF 7
ENDMDL
MODEL 6
REMARK VINA RESULT:      -4.4      5.110      7.589
REMARK  7 active torsions:
REMARK  status: ('A' for Active; 'I' for Inactive)
REMARK    1  A    between atoms: C_2  and  C_3 
REMARK    2  A    between atoms: C_3  and  O_6 
REMARK    3  A    between atoms: C_3  and  C_4 
REMARK    4  A    between atoms: C_7  and  O_6 
REMARK    5  A    between atoms: C_9  and  C_10 
REMARK    6  A    between atoms: N_15  and  C_14 
REMARK    7  A    between atoms: N_20  and  C_19 
REMARK       I    between atoms: C_22  and  N_20 
ROOT
ATOM      1  C   LIG d   1       1.022  88.965 118.099  0.00  0.00     0.161 C 
ATOM      2  C   LIG d   1      -0.332  88.595 118.054  0.00  0.00     0.016 C 
ATOM      3  C   LIG d   1      -1.368  89.479 117.676  0.00  0.00     0.038 C 
ATOM      4  C   LIG d   1      -1.102  90.760 117.169  0.00  0.00     0.028 C 
ATOM      5  C   LIG d   1       0.210  91.350 117.674  0.00  0.00    -0.047 C 
ATOM      6  C   LIG d   1       1.343  90.325 117.443  0.00  0.00     0.091 C 
ENDROOT
BRANCH   1   7
ATOM      7  O   LIG d   1       1.833  87.925 117.518  0.00  0.00    -0.368 OA
BRANCH   7   8
ATOM      8  C   LIG d   1       1.749  87.780 116.079  0.00  0.00     0.119 C 
BRANCH   8   9
ATOM      9  C   LIG d   1       1.460  86.297 115.779  0.00  0.00     0.028 C 
ATOM     10  C   LIG d   1       0.090  86.090 115.111  0.00  0.00     0.006 C 
ENDBRANCH   8   9
BRANCH   8  11
ATOM     11  C   LIG d   1       3.095  88.074 115.410  0.00  0.00     0.028 C 
ATOM     12  C   LIG d   1       4.294  87.741 116.312  0.00  0.00     0.006 C 
ENDBRANCH   8  11
ENDBRANCH   7   8
ENDBRANCH   1   7
BRANCH   6  13
ATOM     13  N   LIG d   1       2.647  90.789 117.986  0.00  0.00    -0.311 N 
ATOM     14  C   LIG d   1       3.593  91.355 117.237  0.00  0.00     0.210 C 
ATOM     15  C   LIG d   1       4.869  91.742 117.991  0.00  0.00     0.109 C 
ATOM     16  O   LIG d   1       3.483  91.602 116.027  0.00  0.00    -0.276 OA
ATOM     17  H   LIG d   1       2.807  90.656 118.965  0.00  0.00     0.149 HD
ENDBRANCH   6  13
BRANCH   5  18
ATOM     18  N   LIG d   1       0.429  92.624 116.962  0.00  0.00     0.381 N 
ATOM     19  H   LIG d   1       1.203  92.533 116.336  0.00  0.00    -0.090 HD
ATOM     20  H   LIG d   1       0.649  93.338 117.634  0.00  0.00    -0.090 HD
ATOM     21  H   LIG d   1      -0.391  92.876 116.455  0.00  0.00    -0.090 HD
ENDBRANCH   5  18
BRANCH   3  22
ATOM     22  C   LIG d   1      -2.691  89.098 117.842  0.00  0.00     0.382 C 
ATOM     23  O   LIG d   1      -3.522  89.304 116.925  0.00  0.00    -0.241 OA
ATOM     24  O   LIG d   1      -3.073  88.591 118.913  0.00  0.00    -0.241 OA
ENDBRANCH   3  22
TORSDOF 7
ENDMDL
MODEL 7
REMARK VINA RESULT:      -4.0      2.565      5.135
REMARK  7 active torsions:
REMARK  status: ('A' for Active; 'I' for Inactive)
REMARK    1  A    between atoms: C_2  and  C_3 
REMARK    2  A    between atoms: C_3  and  O_6 
REMARK    3  A    between atoms: C_3  and  C_4 
REMARK    4  A    between atoms: C_7  and  O_6 
REMARK    5  A    between atoms: C_9  and  C_10 
REMARK    6  A    between atoms: N_15  and  C_14 
REMARK    7  A    between atoms: N_20  and  C_19 
REMARK       I    between atoms: C_22  and  N_20 
ROOT
ATOM      1  C   LIG d   1      -4.312  92.275 117.487  0.00  0.00     0.161 C 
ATOM      2  C   LIG d   1      -4.927  91.445 116.535  0.00  0.00     0.016 C 
ATOM      3  C   LIG d   1      -4.411  90.185 116.152  0.00  0.00     0.038 C 
ATOM      4  C   LIG d   1      -3.320  89.599 116.811  0.00  0.00     0.028 C 
ATOM      5  C   LIG d   1      -2.367  90.618 117.428  0.00  0.00    -0.047 C 
ATOM      6  C   LIG d   1      -3.182  91.604 118.296  0.00  0.00     0.091 C 
ENDROOT
BRANCH   1   7
ATOM      7  O   LIG d   1      -5.307  92.821 118.374  0.00  0.00    -0.368 OA
BRANCH   7   8
ATOM      8  C   LIG d   1      -6.240  93.760 117.785  0.00  0.00     0.119 C 
BRANCH   8   9
ATOM      9  C   LIG d   1      -6.435  94.912 118.790  0.00  0.00     0.028 C 
ATOM     10  C   LIG d   1      -7.539  95.890 118.354  0.00  0.00     0.006 C 
ENDBRANCH   8   9
BRANCH   8  11
ATOM     11  C   LIG d   1      -7.627  93.134 117.612  0.00  0.00     0.028 C 
ATOM     12  C   LIG d   1      -8.081  93.086 116.145  0.00  0.00     0.006 C 
ENDBRANCH   8  11
ENDBRANCH   7   8
ENDBRANCH   1   7
BRANCH   6  13
ATOM     13  N   LIG d   1      -2.337  92.685 118.870  0.00  0.00    -0.311 N 
ATOM     14  C   LIG d   1      -1.569  93.484 118.132  0.00  0.00     0.210 C 
ATOM     15  C   LIG d   1      -0.764  94.519 118.925  0.00  0.00     0.109 C 
ATOM     16  O   LIG d   1      -1.502  93.456 116.894  0.00  0.00    -0.276 OA
ATOM     17  H   LIG d   1      -2.356  92.798 119.864  0.00  0.00     0.149 HD
ENDBRANCH   6  13
BRANCH   5  18
ATOM     18  N   LIG d   1      -1.354  89.871 118.198  0.00  0.00     0.381 N 
ATOM     19  H   LIG d   1      -1.774  89.472 119.013  0.00  0.00    -0.090 HD
ATOM     20  H   LIG d   1      -0.636  90.509 118.493  0.00  0.00    -0.090 HD
ATOM     21  H   LIG d   1      -0.959  89.152 117.633  0.00  0.00    -0.090 HD
ENDBRANCH   5  18
BRANCH   3  22
ATOM     22  C   LIG d   1      -4.966  89.515 115.073  0.00  0.00     0.382 C 
ATOM     23  O   LIG d   1      -4.445  88.450 114.660  0.00  0.00    -0.241 OA
ATOM     24  O   LIG d   1      -5.954  89.984 114.478  0.00  0.00    -0.241 OA
ENDBRANCH   3  22
TORSDOF 7
ENDMDL
MODEL 8
REMARK VINA RESULT:      -4.0      8.273     11.138
REMARK  7 active torsions:
REMARK  status: ('A' for Active; 'I' for Inactive)
REMARK    1  A    between atoms: C_2  and  C_3 
REMARK    2  A    between atoms: C_3  and  O_6 
REMARK    3  A    between atoms: C_3  and  C_4 
REMARK    4  A    between atoms: C_7  and  O_6 
REMARK    5  A    between atoms: C_9  and  C_10 
REMARK    6  A    between atoms: N_15  and  C_14 
REMARK    7  A    between atoms: N_20  and  C_19 
REMARK       I    between atoms: C_22  and  N_20 
ROOT
ATOM      1  C   LIG d   1       3.693  89.269 115.719  0.00  0.00     0.161 C 
ATOM      2  C   LIG d   1       2.748  90.294 115.883  0.00  0.00     0.016 C 
ATOM      3  C   LIG d   1       2.900  91.353 116.808  0.00  0.00     0.038 C 
ATOM      4  C   LIG d   1       4.087  91.541 117.531  0.00  0.00     0.028 C 
ATOM      5  C   LIG d   1       4.863  90.249 117.769  0.00  0.00    -0.047 C 
ATOM      6  C   LIG d   1       5.046  89.518 116.419  0.00  0.00     0.091 C 
ENDROOT
BRANCH   1   7
ATOM      7  O   LIG d   1       3.896  89.010 114.316  0.00  0.00    -0.368 OA
BRANCH   7   8
ATOM      8  C   LIG d   1       4.165  87.633 113.954  0.00  0.00     0.119 C 
BRANCH   8   9
ATOM      9  C   LIG d   1       5.127  87.651 112.750  0.00  0.00     0.028 C 
ATOM     10  C   LIG d   1       6.084  88.855 112.781  0.00  0.00     0.006 C 
ENDBRANCH   8   9
BRANCH   8  11
ATOM     11  C   LIG d   1       2.900  86.932 113.451  0.00  0.00     0.028 C 
ATOM     12  C   LIG d   1       2.900  86.722 111.928  0.00  0.00     0.006 C 
ENDBRANCH   8  11
ENDBRANCH   7   8
ENDBRANCH   1   7
BRANCH   6  13
ATOM     13  N   LIG d   1       5.721  88.203 116.574  0.00  0.00    -0.311 N 
ATOM     14  C   LIG d   1       7.041  88.043 116.496  0.00  0.00     0.210 C 
ATOM     15  C   LIG d   1       7.529  86.601 116.665  0.00  0.00     0.109 C 
ATOM     16  O   LIG d   1       7.857  88.964 116.335  0.00  0.00    -0.276 OA
ATOM     17  H   LIG d   1       5.137  87.407 116.739  0.00  0.00     0.149 HD
ENDBRANCH   6  13
BRANCH   5  18
ATOM     18  N   LIG d   1       6.142  90.609 118.410  0.00  0.00     0.381 N 
ATOM     19  H   LIG d   1       5.966  91.108 119.259  0.00  0.00    -0.090 HD
ATOM     20  H   LIG d   1       6.658  91.209 117.791  0.00  0.00    -0.090 HD
ATOM     21  H   LIG d   1       6.669  89.786 118.603  0.00  0.00    -0.090 HD
ENDBRANCH   5  18
BRANCH   3  22
ATOM     22  C   LIG d   1       1.840  92.214 117.047  0.00  0.00     0.382 C 
ATOM     23  O   LIG d   1       2.025  93.268 117.702  0.00  0.00    -0.241 OA
ATOM     24  O   LIG d   1       0.693  91.929 116.654  0.00  0.00    -0.241 OA
ENDBRANCH   3  22
TORSDOF 7
ENDMDL
MODEL 9
REMARK VINA RESULT:      -3.8      2.788      5.968
REMARK  7 active torsions:
REMARK  status: ('A' for Active; 'I' for Inactive)
REMARK    1  A    between atoms: C_2  and  C_3 
REMARK    2  A    between atoms: C_3  and  O_6 
REMARK    3  A    between atoms: C_3  and  C_4 
REMARK    4  A    between atoms: C_7  and  O_6 
REMARK    5  A    between atoms: C_9  and  C_10 
REMARK    6  A    between atoms: N_15  and  C_14 
REMARK    7  A    between atoms: N_20  and  C_19 
REMARK       I    between atoms: C_22  and  N_20 
ROOT
ATOM      1  C   LIG d   1      -4.940  92.134 117.746  0.00  0.00     0.161 C 
ATOM      2  C   LIG d   1      -6.319  92.399 117.786  0.00  0.00     0.016 C 
ATOM      3  C   LIG d   1      -6.861  93.647 118.171  0.00  0.00     0.038 C 
ATOM      4  C   LIG d   1      -6.049  94.768 118.400  0.00  0.00     0.028 C 
ATOM      5  C   LIG d   1      -4.640  94.412 118.863  0.00  0.00    -0.047 C 
ATOM      6  C   LIG d   1      -4.038  93.378 117.885  0.00  0.00     0.091 C 
ENDROOT
BRANCH   1   7
ATOM      7  O   LIG d   1      -4.616  91.412 116.541  0.00  0.00    -0.368 OA
BRANCH   7   8
ATOM      8  C   LIG d   1      -3.665  90.328 116.684  0.00  0.00     0.119 C 
BRANCH   8   9
ATOM      9  C   LIG d   1      -4.144  89.171 115.786  0.00  0.00     0.028 C 
ATOM     10  C   LIG d   1      -5.313  89.580 114.875  0.00  0.00     0.006 C 
ENDBRANCH   8   9
BRANCH   8  11
ATOM     11  C   LIG d   1      -3.672  89.765 118.108  0.00  0.00     0.028 C 
ATOM     12  C   LIG d   1      -2.512  88.791 118.370  0.00  0.00     0.006 C 
ENDBRANCH   8  11
ENDBRANCH   7   8
ENDBRANCH   1   7
BRANCH   6  13
ATOM     13  N   LIG d   1      -2.693  92.912 118.311  0.00  0.00    -0.311 N 
ATOM     14  C   LIG d   1      -1.567  93.566 118.030  0.00  0.00     0.210 C 
ATOM     15  C   LIG d   1      -0.287  92.902 118.546  0.00  0.00     0.109 C 
ATOM     16  O   LIG d   1      -1.510  94.650 117.430  0.00  0.00    -0.276 OA
ATOM     17  H   LIG d   1      -2.649  92.057 118.830  0.00  0.00     0.149 HD
ENDBRANCH   6  13
BRANCH   5  18
ATOM     18  N   LIG d   1      -3.864  95.665 118.930  0.00  0.00     0.381 N 
ATOM     19  H   LIG d   1      -2.978  95.538 118.482  0.00  0.00    -0.090 HD
ATOM     20  H   LIG d   1      -3.700  95.894 119.894  0.00  0.00    -0.090 HD
ATOM     21  H   LIG d   1      -4.366  96.402 118.487  0.00  0.00    -0.090 HD
ENDBRANCH   5  18
BRANCH   3  22
ATOM     22  C   LIG d   1      -8.227  93.771 118.371  0.00  0.00     0.382 C 
ATOM     23  O   LIG d   1      -8.867  92.844 118.922  0.00  0.00    -0.241 OA
ATOM     24  O   LIG d   1      -8.836  94.780 117.966  0.00  0.00    -0.241 OA
ENDBRANCH   3  22
TORSDOF 7
ENDMDL
