MODEL 1
REMARK VINA RESULT:      -5.1      0.000      0.000
REMARK  7 active torsions:
REMARK  status: ('A' for Active; 'I' for Inactive)
REMARK    1  A    between atoms: C_2  and  C_3 
REMARK    2  A    between atoms: C_3  and  O_6 
REMARK    3  A    between atoms: C_3  and  C_4 
REMARK    4  A    between atoms: C_7  and  O_6 
REMARK    5  A    between atoms: C_9  and  C_10 
REMARK    6  A    between atoms: N_15  and  C_14 
REMARK    7  A    between atoms: N_20  and  C_19 
REMARK       I    between atoms: C_22  and  N_20 
ROOT
ATOM      1  C   LIG d   1       2.839  88.594 115.347  0.00  0.00     0.161 C 
ATOM      2  C   LIG d   1       2.024  87.787 114.535  0.00  0.00     0.016 C 
ATOM      3  C   LIG d   1       2.485  87.147 113.362  0.00  0.00     0.038 C 
ATOM      4  C   LIG d   1       3.841  87.147 113.002  0.00  0.00     0.028 C 
ATOM      5  C   LIG d   1       4.604  88.364 113.514  0.00  0.00    -0.047 C 
ATOM      6  C   LIG d   1       4.347  88.515 115.031  0.00  0.00     0.091 C 
ENDROOT
BRANCH   1   7
ATOM      7  O   LIG d   1       2.602  88.287 116.735  0.00  0.00    -0.368 OA
BRANCH   7   8
ATOM      8  C   LIG d   1       1.985  89.335 117.523  0.00  0.00     0.119 C 
BRANCH   8   9
ATOM      9  C   LIG d   1       0.541  88.892 117.833  0.00  0.00     0.028 C 
ATOM     10  C   LIG d   1      -0.506  89.787 117.149  0.00  0.00     0.006 C 
ENDBRANCH   8   9
BRANCH   8  11
ATOM     11  C   LIG d   1       1.848  90.630 116.718  0.00  0.00     0.028 C 
ATOM     12  C   LIG d   1       2.550  91.823 117.385  0.00  0.00     0.006 C 
ENDBRANCH   8  11
ENDBRANCH   7   8
ENDBRANCH   1   7
BRANCH   6  13
ATOM     13  N   LIG d   1       4.989  89.730 115.596  0.00  0.00    -0.311 N 
ATOM     14  C   LIG d   1       5.645  89.741 116.755  0.00  0.00     0.210 C 
ATOM     15  C   LIG d   1       6.213  91.104 117.164  0.00  0.00     0.109 C 
ATOM     16  O   LIG d   1       5.836  88.745 117.469  0.00  0.00    -0.276 OA
ATOM     17  H   LIG d   1       4.909  90.577 115.067  0.00  0.00     0.149 HD
ENDBRANCH   6  13
BRANCH   5  18
ATOM     18  N   LIG d   1       6.029  88.167 113.186  0.00  0.00     0.381 N 
ATOM     19  H   LIG d   1       6.592  88.783 113.738  0.00  0.00    -0.090 HD
ATOM     20  H   LIG d   1       6.173  88.392 112.217  0.00  0.00    -0.090 HD
ATOM     21  H   LIG d   1       6.291  87.222 113.358  0.00  0.00    -0.090 HD
ENDBRANCH   5  18
BRANCH   3  22
ATOM     22  C   LIG d   1       1.578  86.530 112.514  0.00  0.00     0.382 C 
ATOM     23  O   LIG d   1       1.986  85.921 111.496  0.00  0.00    -0.241 OA
ATOM     24  O   LIG d   1       0.354  86.612 112.731  0.00  0.00    -0.241 OA
ENDBRANCH   3  22
TORSDOF 7
ENDMDL
MODEL 2
REMARK VINA RESULT:      -4.7      2.656      5.957
REMARK  7 active torsions:
REMARK  status: ('A' for Active; 'I' for Inactive)
REMARK    1  A    between atoms: C_2  and  C_3 
REMARK    2  A    between atoms: C_3  and  O_6 
REMARK    3  A    between atoms: C_3  and  C_4 
REMARK    4  A    between atoms: C_7  and  O_6 
REMARK    5  A    between atoms: C_9  and  C_10 
REMARK    6  A    between atoms: N_15  and  C_14 
REMARK    7  A    between atoms: N_20  and  C_19 
REMARK       I    between atoms: C_22  and  N_20 
ROOT
ATOM      1  C   LIG d   1       3.771  88.819 115.930  0.00  0.00     0.161 C 
ATOM      2  C   LIG d   1       4.069  90.037 116.564  0.00  0.00     0.016 C 
ATOM      3  C   LIG d   1       3.080  90.948 117.003  0.00  0.00     0.038 C 
ATOM      4  C   LIG d   1       1.714  90.631 116.972  0.00  0.00     0.028 C 
ATOM      5  C   LIG d   1       1.349  89.631 115.880  0.00  0.00    -0.047 C 
ATOM      6  C   LIG d   1       2.286  88.406 115.988  0.00  0.00     0.091 C 
ENDROOT
BRANCH   1   7
ATOM      7  O   LIG d   1       4.604  87.773 116.467  0.00  0.00    -0.368 OA
BRANCH   7   8
ATOM      8  C   LIG d   1       5.888  87.586 115.823  0.00  0.00     0.119 C 
BRANCH   8   9
ATOM      9  C   LIG d   1       5.634  86.872 114.481  0.00  0.00     0.028 C 
ATOM     10  C   LIG d   1       5.132  85.430 114.669  0.00  0.00     0.006 C 
ENDBRANCH   8   9
BRANCH   8  11
ATOM     11  C   LIG d   1       6.781  86.635 116.625  0.00  0.00     0.028 C 
ATOM     12  C   LIG d   1       7.691  87.370 117.622  0.00  0.00     0.006 C 
ENDBRANCH   8  11
ENDBRANCH   7   8
ENDBRANCH   1   7
BRANCH   6  13
ATOM     13  N   LIG d   1       2.052  87.416 114.904  0.00  0.00    -0.311 N 
ATOM     14  C   LIG d   1       2.272  87.674 113.616  0.00  0.00     0.210 C 
ATOM     15  C   LIG d   1       1.947  86.521 112.661  0.00  0.00     0.109 C 
ATOM     16  O   LIG d   1       2.736  88.737 113.177  0.00  0.00    -0.276 OA
ATOM     17  H   LIG d   1       1.705  86.517 115.175  0.00  0.00     0.149 HD
ENDBRANCH   6  13
BRANCH   5  18
ATOM     18  N   LIG d   1      -0.075  89.286 116.050  0.00  0.00     0.381 N 
ATOM     19  H   LIG d   1      -0.333  89.377 117.012  0.00  0.00    -0.090 HD
ATOM     20  H   LIG d   1      -0.213  88.329 115.775  0.00  0.00    -0.090 HD
ATOM     21  H   LIG d   1      -0.640  89.885 115.489  0.00  0.00    -0.090 HD
ENDBRANCH   5  18
BRANCH   3  22
ATOM     22  C   LIG d   1       3.454  92.209 117.442  0.00  0.00     0.382 C 
ATOM     23  O   LIG d   1       2.646  92.910 118.098  0.00  0.00    -0.241 OA
ATOM     24  O   LIG d   1       4.574  92.672 117.154  0.00  0.00    -0.241 OA
ENDBRANCH   3  22
TORSDOF 7
ENDMDL
MODEL 3
REMARK VINA RESULT:      -4.6      2.534      5.922
REMARK  7 active torsions:
REMARK  status: ('A' for Active; 'I' for Inactive)
REMARK    1  A    between atoms: C_2  and  C_3 
REMARK    2  A    between atoms: C_3  and  O_6 
REMARK    3  A    between atoms: C_3  and  C_4 
REMARK    4  A    between atoms: C_7  and  O_6 
REMARK    5  A    between atoms: C_9  and  C_10 
REMARK    6  A    between atoms: N_15  and  C_14 
REMARK    7  A    between atoms: N_20  and  C_19 
REMARK       I    between atoms: C_22  and  N_20 
ROOT
ATOM      1  C   LIG d   1       4.202  89.377 115.276  0.00  0.00     0.161 C 
ATOM      2  C   LIG d   1       4.433  90.412 116.198  0.00  0.00     0.016 C 
ATOM      3  C   LIG d   1       3.411  91.001 116.978  0.00  0.00     0.038 C 
ATOM      4  C   LIG d   1       2.106  90.489 117.000  0.00  0.00     0.028 C 
ATOM      5  C   LIG d   1       1.715  89.772 115.711  0.00  0.00    -0.047 C 
ATOM      6  C   LIG d   1       2.804  88.731 115.367  0.00  0.00     0.091 C 
ENDROOT
BRANCH   1   7
ATOM      7  O   LIG d   1       5.227  88.373 115.402  0.00  0.00    -0.368 OA
BRANCH   7   8
ATOM      8  C   LIG d   1       5.425  87.826 116.730  0.00  0.00     0.119 C 
BRANCH   8   9
ATOM      9  C   LIG d   1       6.915  87.993 117.082  0.00  0.00     0.028 C 
ATOM     10  C   LIG d   1       7.131  88.893 118.311  0.00  0.00     0.006 C 
ENDBRANCH   8   9
BRANCH   8  11
ATOM     11  C   LIG d   1       5.169  86.316 116.754  0.00  0.00     0.028 C 
ATOM     12  C   LIG d   1       5.600  85.618 115.455  0.00  0.00     0.006 C 
ENDBRANCH   8  11
ENDBRANCH   7   8
ENDBRANCH   1   7
BRANCH   6  13
ATOM     13  N   LIG d   1       2.542  88.043 114.076  0.00  0.00    -0.311 N 
ATOM     14  C   LIG d   1       2.285  86.739 113.978  0.00  0.00     0.210 C 
ATOM     15  C   LIG d   1       2.063  86.229 112.551  0.00  0.00     0.109 C 
ATOM     16  O   LIG d   1       2.187  85.964 114.941  0.00  0.00    -0.276 OA
ATOM     17  H   LIG d   1       2.570  88.603 113.246  0.00  0.00     0.149 HD
ENDBRANCH   6  13
BRANCH   5  18
ATOM     18  N   LIG d   1       0.385  89.171 115.922  0.00  0.00     0.381 N 
ATOM     19  H   LIG d   1      -0.324  89.870 115.819  0.00  0.00    -0.090 HD
ATOM     20  H   LIG d   1       0.336  88.808 116.858  0.00  0.00    -0.090 HD
ATOM     21  H   LIG d   1       0.235  88.436 115.266  0.00  0.00    -0.090 HD
ENDBRANCH   5  18
BRANCH   3  22
ATOM     22  C   LIG d   1       3.684  92.142 117.719  0.00  0.00     0.382 C 
ATOM     23  O   LIG d   1       4.495  92.994 117.282  0.00  0.00    -0.241 OA
ATOM     24  O   LIG d   1       3.163  92.308 118.838  0.00  0.00    -0.241 OA
ENDBRANCH   3  22
TORSDOF 7
ENDMDL
MODEL 4
REMARK VINA RESULT:      -4.5      1.943      4.937
REMARK  7 active torsions:
REMARK  status: ('A' for Active; 'I' for Inactive)
REMARK    1  A    between atoms: C_2  and  C_3 
REMARK    2  A    between atoms: C_3  and  O_6 
REMARK    3  A    between atoms: C_3  and  C_4 
REMARK    4  A    between atoms: C_7  and  O_6 
REMARK    5  A    between atoms: C_9  and  C_10 
REMARK    6  A    between atoms: N_15  and  C_14 
REMARK    7  A    between atoms: N_20  and  C_19 
REMARK       I    between atoms: C_22  and  N_20 
ROOT
ATOM      1  C   LIG d   1       2.541  89.027 116.807  0.00  0.00     0.161 C 
ATOM      2  C   LIG d   1       3.152  89.969 117.652  0.00  0.00     0.016 C 
ATOM      3  C   LIG d   1       4.303  90.706 117.291  0.00  0.00     0.038 C 
ATOM      4  C   LIG d   1       4.836  90.662 115.994  0.00  0.00     0.028 C 
ATOM      5  C   LIG d   1       4.555  89.351 115.268  0.00  0.00    -0.047 C 
ATOM      6  C   LIG d   1       3.041  89.047 115.348  0.00  0.00     0.091 C 
ENDROOT
BRANCH   1   7
ATOM      7  O   LIG d   1       1.109  89.191 116.848  0.00  0.00    -0.368 OA
BRANCH   7   8
ATOM      8  C   LIG d   1       0.612  90.233 117.724  0.00  0.00     0.119 C 
BRANCH   8   9
ATOM      9  C   LIG d   1      -0.653  89.691 118.416  0.00  0.00     0.028 C 
ATOM     10  C   LIG d   1      -1.927  89.939 117.591  0.00  0.00     0.006 C 
ENDBRANCH   8   9
BRANCH   8  11
ATOM     11  C   LIG d   1       0.146  91.455 116.927  0.00  0.00     0.028 C 
ATOM     12  C   LIG d   1       0.508  92.784 117.608  0.00  0.00     0.006 C 
ENDBRANCH   8  11
ENDBRANCH   7   8
ENDBRANCH   1   7
BRANCH   6  13
ATOM     13  N   LIG d   1       2.693  87.739 114.735  0.00  0.00    -0.311 N 
ATOM     14  C   LIG d   1       2.425  87.584 113.440  0.00  0.00     0.210 C 
ATOM     15  C   LIG d   1       2.069  86.154 113.019  0.00  0.00     0.109 C 
ATOM     16  O   LIG d   1       2.479  88.489 112.593  0.00  0.00    -0.276 OA
ATOM     17  H   LIG d   1       2.656  86.945 115.344  0.00  0.00     0.149 HD
ENDBRANCH   6  13
BRANCH   5  18
ATOM     18  N   LIG d   1       5.044  89.494 113.884  0.00  0.00     0.381 N 
ATOM     19  H   LIG d   1       6.018  89.267 113.844  0.00  0.00    -0.090 HD
ATOM     20  H   LIG d   1       4.931  90.450 113.596  0.00  0.00    -0.090 HD
ATOM     21  H   LIG d   1       4.531  88.893 113.277  0.00  0.00    -0.090 HD
ENDBRANCH   5  18
BRANCH   3  22
ATOM     22  C   LIG d   1       4.958  91.469 118.246  0.00  0.00     0.382 C 
ATOM     23  O   LIG d   1       4.657  92.678 118.396  0.00  0.00    -0.241 OA
ATOM     24  O   LIG d   1       5.875  90.976 118.929  0.00  0.00    -0.241 OA
ENDBRANCH   3  22
TORSDOF 7
ENDMDL
MODEL 5
REMARK VINA RESULT:      -4.4      2.017      4.999
REMARK  7 active torsions:
REMARK  status: ('A' for Active; 'I' for Inactive)
REMARK    1  A    between atoms: C_2  and  C_3 
REMARK    2  A    between atoms: C_3  and  O_6 
REMARK    3  A    between atoms: C_3  and  C_4 
REMARK    4  A    between atoms: C_7  and  O_6 
REMARK    5  A    between atoms: C_9  and  C_10 
REMARK    6  A    between atoms: N_15  and  C_14 
REMARK    7  A    between atoms: N_20  and  C_19 
REMARK       I    between atoms: C_22  and  N_20 
ROOT
ATOM      1  C   LIG d   1       3.037  88.809 115.180  0.00  0.00     0.161 C 
ATOM      2  C   LIG d   1       1.743  89.262 115.485  0.00  0.00     0.016 C 
ATOM      3  C   LIG d   1       1.481  90.316 116.390  0.00  0.00     0.038 C 
ATOM      4  C   LIG d   1       2.510  91.094 116.941  0.00  0.00     0.028 C 
ATOM      5  C   LIG d   1       3.836  90.350 117.054  0.00  0.00    -0.047 C 
ATOM      6  C   LIG d   1       4.176  89.718 115.685  0.00  0.00     0.091 C 
ENDROOT
BRANCH   1   7
ATOM      7  O   LIG d   1       3.158  88.596 113.759  0.00  0.00    -0.368 OA
BRANCH   7   8
ATOM      8  C   LIG d   1       3.114  87.218 113.315  0.00  0.00     0.119 C 
BRANCH   8   9
ATOM      9  C   LIG d   1       4.562  86.778 113.028  0.00  0.00     0.028 C 
ATOM     10  C   LIG d   1       4.907  85.430 113.685  0.00  0.00     0.006 C 
ENDBRANCH   8   9
BRANCH   8  11
ATOM     11  C   LIG d   1       2.378  87.087 111.978  0.00  0.00     0.028 C 
ATOM     12  C   LIG d   1       1.240  86.055 112.022  0.00  0.00     0.006 C 
ENDBRANCH   8  11
ENDBRANCH   7   8
ENDBRANCH   1   7
BRANCH   6  13
ATOM     13  N   LIG d   1       5.417  88.901 115.731  0.00  0.00    -0.311 N 
ATOM     14  C   LIG d   1       5.556  87.821 116.498  0.00  0.00     0.210 C 
ATOM     15  C   LIG d   1       6.923  87.136 116.409  0.00  0.00     0.109 C 
ATOM     16  O   LIG d   1       4.666  87.346 117.219  0.00  0.00    -0.276 OA
ATOM     17  H   LIG d   1       6.179  89.196 115.153  0.00  0.00     0.149 HD
ENDBRANCH   6  13
BRANCH   5  18
ATOM     18  N   LIG d   1       4.852  91.317 117.513  0.00  0.00     0.381 N 
ATOM     19  H   LIG d   1       5.625  91.322 116.879  0.00  0.00    -0.090 HD
ATOM     20  H   LIG d   1       5.187  91.032 118.417  0.00  0.00    -0.090 HD
ATOM     21  H   LIG d   1       4.453  92.228 117.571  0.00  0.00    -0.090 HD
ENDBRANCH   5  18
BRANCH   3  22
ATOM     22  C   LIG d   1       0.177  90.576 116.784  0.00  0.00     0.382 C 
ATOM     23  O   LIG d   1      -0.169  91.746 117.077  0.00  0.00    -0.241 OA
ATOM     24  O   LIG d   1      -0.647  89.648 116.892  0.00  0.00    -0.241 OA
ENDBRANCH   3  22
TORSDOF 7
ENDMDL
MODEL 6
REMARK VINA RESULT:      -4.4      1.416      2.044
REMARK  7 active torsions:
REMARK  status: ('A' for Active; 'I' for Inactive)
REMARK    1  A    between atoms: C_2  and  C_3 
REMARK    2  A    between atoms: C_3  and  O_6 
REMARK    3  A    between atoms: C_3  and  C_4 
REMARK    4  A    between atoms: C_7  and  O_6 
REMARK    5  A    between atoms: C_9  and  C_10 
REMARK    6  A    between atoms: N_15  and  C_14 
REMARK    7  A    between atoms: N_20  and  C_19 
REMARK       I    between atoms: C_22  and  N_20 
ROOT
ATOM      1  C   LIG d   1       2.667  88.829 116.262  0.00  0.00     0.161 C 
ATOM      2  C   LIG d   1       2.009  88.308 115.136  0.00  0.00     0.016 C 
ATOM      3  C   LIG d   1       2.656  87.531 114.148  0.00  0.00     0.038 C 
ATOM      4  C   LIG d   1       3.979  87.091 114.298  0.00  0.00     0.028 C 
ATOM      5  C   LIG d   1       4.828  88.011 115.170  0.00  0.00    -0.047 C 
ATOM      6  C   LIG d   1       4.085  88.267 116.501  0.00  0.00     0.091 C 
ENDROOT
BRANCH   1   7
ATOM      7  O   LIG d   1       1.850  88.642 117.435  0.00  0.00    -0.368 OA
BRANCH   7   8
ATOM      8  C   LIG d   1       0.891  89.690 117.718  0.00  0.00     0.119 C 
BRANCH   8   9
ATOM      9  C   LIG d   1       1.634  90.804 118.481  0.00  0.00     0.028 C 
ATOM     10  C   LIG d   1       1.679  92.125 117.695  0.00  0.00     0.006 C 
ENDBRANCH   8   9
BRANCH   8  11
ATOM     11  C   LIG d   1      -0.201  89.203 118.674  0.00  0.00     0.028 C 
ATOM     12  C   LIG d   1      -1.574  89.827 118.378  0.00  0.00     0.006 C 
ENDBRANCH   8  11
ENDBRANCH   7   8
ENDBRANCH   1   7
BRANCH   6  13
ATOM     13  N   LIG d   1       4.806  89.226 117.378  0.00  0.00    -0.311 N 
ATOM     14  C   LIG d   1       5.091  90.477 117.019  0.00  0.00     0.210 C 
ATOM     15  C   LIG d   1       5.859  91.290 118.065  0.00  0.00     0.109 C 
ATOM     16  O   LIG d   1       4.751  91.000 115.947  0.00  0.00    -0.276 OA
ATOM     17  H   LIG d   1       5.092  88.894 118.278  0.00  0.00     0.149 HD
ENDBRANCH   6  13
BRANCH   5  18
ATOM     18  N   LIG d   1       6.140  87.365 115.355  0.00  0.00     0.381 N 
ATOM     19  H   LIG d   1       6.171  86.507 114.840  0.00  0.00    -0.090 HD
ATOM     20  H   LIG d   1       6.263  87.152 116.330  0.00  0.00    -0.090 HD
ATOM     21  H   LIG d   1       6.867  87.972 115.046  0.00  0.00    -0.090 HD
ENDBRANCH   5  18
BRANCH   3  22
ATOM     22  C   LIG d   1       1.988  87.218 112.974  0.00  0.00     0.382 C 
ATOM     23  O   LIG d   1       2.407  87.660 111.877  0.00  0.00    -0.241 OA
ATOM     24  O   LIG d   1       0.946  86.536 113.002  0.00  0.00    -0.241 OA
ENDBRANCH   3  22
TORSDOF 7
ENDMDL
MODEL 7
REMARK VINA RESULT:      -4.1      2.823      5.381
REMARK  7 active torsions:
REMARK  status: ('A' for Active; 'I' for Inactive)
REMARK    1  A    between atoms: C_2  and  C_3 
REMARK    2  A    between atoms: C_3  and  O_6 
REMARK    3  A    between atoms: C_3  and  C_4 
REMARK    4  A    between atoms: C_7  and  O_6 
REMARK    5  A    between atoms: C_9  and  C_10 
REMARK    6  A    between atoms: N_15  and  C_14 
REMARK    7  A    between atoms: N_20  and  C_19 
REMARK       I    between atoms: C_22  and  N_20 
ROOT
ATOM      1  C   LIG d   1       1.216  89.626 116.702  0.00  0.00     0.161 C 
ATOM      2  C   LIG d   1      -0.173  89.616 116.918  0.00  0.00     0.016 C 
ATOM      3  C   LIG d   1      -0.840  90.558 117.734  0.00  0.00     0.038 C 
ATOM      4  C   LIG d   1      -0.180  91.672 118.272  0.00  0.00     0.028 C 
ATOM      5  C   LIG d   1       1.311  91.443 118.497  0.00  0.00    -0.047 C 
ATOM      6  C   LIG d   1       1.937  90.899 117.192  0.00  0.00     0.091 C 
ENDROOT
BRANCH   1   7
ATOM      7  O   LIG d   1       1.495  89.397 115.307  0.00  0.00    -0.368 OA
BRANCH   7   8
ATOM      8  C   LIG d   1       1.872  88.045 114.946  0.00  0.00     0.119 C 
BRANCH   8   9
ATOM      9  C   LIG d   1       2.820  87.521 116.042  0.00  0.00     0.028 C 
ATOM     10  C   LIG d   1       2.631  86.019 116.313  0.00  0.00     0.006 C 
ENDBRANCH   8   9
BRANCH   8  11
ATOM     11  C   LIG d   1       2.694  88.022 113.654  0.00  0.00     0.028 C 
ATOM     12  C   LIG d   1       4.175  88.365 113.883  0.00  0.00     0.006 C 
ENDBRANCH   8  11
ENDBRANCH   7   8
ENDBRANCH   1   7
BRANCH   6  13
ATOM     13  N   LIG d   1       3.377  90.567 117.350  0.00  0.00    -0.311 N 
ATOM     14  C   LIG d   1       4.353  91.467 117.237  0.00  0.00     0.210 C 
ATOM     15  C   LIG d   1       5.769  90.910 117.416  0.00  0.00     0.109 C 
ATOM     16  O   LIG d   1       4.179  92.678 117.038  0.00  0.00    -0.276 OA
ATOM     17  H   LIG d   1       3.607  89.612 117.544  0.00  0.00     0.149 HD
ENDBRANCH   6  13
BRANCH   5  18
ATOM     18  N   LIG d   1       1.900  92.724 118.930  0.00  0.00     0.381 N 
ATOM     19  H   LIG d   1       2.175  93.258 118.130  0.00  0.00    -0.090 HD
ATOM     20  H   LIG d   1       2.719  92.536 119.480  0.00  0.00    -0.090 HD
ATOM     21  H   LIG d   1       1.238  93.238 119.470  0.00  0.00    -0.090 HD
ENDBRANCH   5  18
BRANCH   3  22
ATOM     22  C   LIG d   1      -2.177  90.368 118.051  0.00  0.00     0.382 C 
ATOM     23  O   LIG d   1      -2.555  89.278 118.543  0.00  0.00    -0.241 OA
ATOM     24  O   LIG d   1      -3.016  91.257 117.809  0.00  0.00    -0.241 OA
ENDBRANCH   3  22
TORSDOF 7
ENDMDL
MODEL 8
REMARK VINA RESULT:      -4.0      2.233      4.778
REMARK  7 active torsions:
REMARK  status: ('A' for Active; 'I' for Inactive)
REMARK    1  A    between atoms: C_2  and  C_3 
REMARK    2  A    between atoms: C_3  and  O_6 
REMARK    3  A    between atoms: C_3  and  C_4 
REMARK    4  A    between atoms: C_7  and  O_6 
REMARK    5  A    between atoms: C_9  and  C_10 
REMARK    6  A    between atoms: N_15  and  C_14 
REMARK    7  A    between atoms: N_20  and  C_19 
REMARK       I    between atoms: C_22  and  N_20 
ROOT
ATOM      1  C   LIG d   1       2.833  87.333 116.236  0.00  0.00     0.161 C 
ATOM      2  C   LIG d   1       1.788  88.267 116.149  0.00  0.00     0.016 C 
ATOM      3  C   LIG d   1       1.919  89.620 116.536  0.00  0.00     0.038 C 
ATOM      4  C   LIG d   1       3.157  90.171 116.898  0.00  0.00     0.028 C 
ATOM      5  C   LIG d   1       4.127  89.150 117.483  0.00  0.00    -0.047 C 
ATOM      6  C   LIG d   1       4.222  87.942 116.524  0.00  0.00     0.091 C 
ENDROOT
BRANCH   1   7
ATOM      7  O   LIG d   1       2.875  86.533 115.038  0.00  0.00    -0.368 OA
BRANCH   7   8
ATOM      8  C   LIG d   1       2.756  87.253 113.786  0.00  0.00     0.119 C 
BRANCH   8   9
ATOM      9  C   LIG d   1       1.645  86.571 112.964  0.00  0.00     0.028 C 
ATOM     10  C   LIG d   1       1.920  86.621 111.452  0.00  0.00     0.006 C 
ENDBRANCH   8   9
BRANCH   8  11
ATOM     11  C   LIG d   1       4.027  87.116 112.942  0.00  0.00     0.028 C 
ATOM     12  C   LIG d   1       4.936  85.970 113.414  0.00  0.00     0.006 C 
ENDBRANCH   8  11
ENDBRANCH   7   8
ENDBRANCH   1   7
BRANCH   6  13
ATOM     13  N   LIG d   1       5.085  86.858 117.061  0.00  0.00    -0.311 N 
ATOM     14  C   LIG d   1       6.383  86.749 116.782  0.00  0.00     0.210 C 
ATOM     15  C   LIG d   1       7.083  85.547 117.424  0.00  0.00     0.109 C 
ATOM     16  O   LIG d   1       7.028  87.551 116.091  0.00  0.00    -0.276 OA
ATOM     17  H   LIG d   1       4.650  86.181 117.656  0.00  0.00     0.149 HD
ENDBRANCH   6  13
BRANCH   5  18
ATOM     18  N   LIG d   1       5.420  89.830 117.686  0.00  0.00     0.381 N 
ATOM     19  H   LIG d   1       6.035  89.238 118.208  0.00  0.00    -0.090 HD
ATOM     20  H   LIG d   1       5.266  90.669 118.216  0.00  0.00    -0.090 HD
ATOM     21  H   LIG d   1       5.830  90.053 116.806  0.00  0.00    -0.090 HD
ENDBRANCH   5  18
BRANCH   3  22
ATOM     22  C   LIG d   1       0.794  90.428 116.602  0.00  0.00     0.382 C 
ATOM     23  O   LIG d   1       0.921  91.671 116.718  0.00  0.00    -0.241 OA
ATOM     24  O   LIG d   1      -0.346  89.927 116.591  0.00  0.00    -0.241 OA
ENDBRANCH   3  22
TORSDOF 7
ENDMDL
MODEL 9
REMARK VINA RESULT:      -4.0      1.769      4.940
REMARK  7 active torsions:
REMARK  status: ('A' for Active; 'I' for Inactive)
REMARK    1  A    between atoms: C_2  and  C_3 
REMARK    2  A    between atoms: C_3  and  O_6 
REMARK    3  A    between atoms: C_3  and  C_4 
REMARK    4  A    between atoms: C_7  and  O_6 
REMARK    5  A    between atoms: C_9  and  C_10 
REMARK    6  A    between atoms: N_15  and  C_14 
REMARK    7  A    between atoms: N_20  and  C_19 
REMARK       I    between atoms: C_22  and  N_20 
ROOT
ATOM      1  C   LIG d   1       3.783  87.744 116.639  0.00  0.00     0.161 C 
ATOM      2  C   LIG d   1       4.368  88.564 117.618  0.00  0.00     0.016 C 
ATOM      3  C   LIG d   1       5.105  89.732 117.316  0.00  0.00     0.038 C 
ATOM      4  C   LIG d   1       5.179  90.246 116.012  0.00  0.00     0.028 C 
ATOM      5  C   LIG d   1       5.030  89.180 114.932  0.00  0.00    -0.047 C 
ATOM      6  C   LIG d   1       3.759  88.348 115.219  0.00  0.00     0.091 C 
ENDROOT
BRANCH   1   7
ATOM      7  O   LIG d   1       2.452  87.370 117.047  0.00  0.00    -0.368 OA
BRANCH   7   8
ATOM      8  C   LIG d   1       1.714  88.363 117.800  0.00  0.00     0.119 C 
BRANCH   8   9
ATOM      9  C   LIG d   1       0.965  87.626 118.928  0.00  0.00     0.028 C 
ATOM     10  C   LIG d   1       1.114  86.098 118.831  0.00  0.00     0.006 C 
ENDBRANCH   8   9
BRANCH   8  11
ATOM     11  C   LIG d   1       0.621  89.012 116.945  0.00  0.00     0.028 C 
ATOM     12  C   LIG d   1       0.113  90.338 117.533  0.00  0.00     0.006 C 
ENDBRANCH   8  11
ENDBRANCH   7   8
ENDBRANCH   1   7
BRANCH   6  13
ATOM     13  N   LIG d   1       3.584  87.229 114.257  0.00  0.00    -0.311 N 
ATOM     14  C   LIG d   1       2.918  87.347 113.109  0.00  0.00     0.210 C 
ATOM     15  C   LIG d   1       2.840  86.065 112.274  0.00  0.00     0.109 C 
ATOM     16  O   LIG d   1       2.414  88.399 112.689  0.00  0.00    -0.276 OA
ATOM     17  H   LIG d   1       3.988  86.347 114.505  0.00  0.00     0.149 HD
ENDBRANCH   6  13
BRANCH   5  18
ATOM     18  N   LIG d   1       4.987  89.869 113.628  0.00  0.00     0.381 N 
ATOM     19  H   LIG d   1       5.702  89.505 113.030  0.00  0.00    -0.090 HD
ATOM     20  H   LIG d   1       5.165  90.847 113.772  0.00  0.00    -0.090 HD
ATOM     21  H   LIG d   1       4.094  89.744 113.206  0.00  0.00    -0.090 HD
ENDBRANCH   5  18
BRANCH   3  22
ATOM     22  C   LIG d   1       5.812  90.378 118.319  0.00  0.00     0.382 C 
ATOM     23  O   LIG d   1       6.947  89.963 118.653  0.00  0.00    -0.241 OA
ATOM     24  O   LIG d   1       5.309  91.344 118.924  0.00  0.00    -0.241 OA
ENDBRANCH   3  22
TORSDOF 7
ENDMDL
