MODEL 1
REMARK VINA RESULT:      -4.8      0.000      0.000
REMARK  7 active torsions:
REMARK  status: ('A' for Active; 'I' for Inactive)
REMARK    1  A    between atoms: C_2  and  C_3 
REMARK    2  A    between atoms: C_3  and  O_6 
REMARK    3  A    between atoms: C_3  and  C_4 
REMARK    4  A    between atoms: C_7  and  O_6 
REMARK    5  A    between atoms: C_9  and  C_10 
REMARK    6  A    between atoms: N_15  and  C_14 
REMARK    7  A    between atoms: N_20  and  C_19 
REMARK       I    between atoms: C_22  and  N_20 
ROOT
ATOM      1  C   LIG d   1       3.659  88.002 115.537  0.00  0.00     0.161 C 
ATOM      2  C   LIG d   1       4.026  88.825 116.614  0.00  0.00     0.016 C 
ATOM      3  C   LIG d   1       5.008  89.838 116.519  0.00  0.00     0.038 C 
ATOM      4  C   LIG d   1       5.585  90.199 115.293  0.00  0.00     0.028 C 
ATOM      5  C   LIG d   1       5.615  89.061 114.279  0.00  0.00    -0.047 C 
ATOM      6  C   LIG d   1       4.198  88.454 114.163  0.00  0.00     0.091 C 
ENDROOT
BRANCH   1   7
ATOM      7  O   LIG d   1       2.225  87.866 115.492  0.00  0.00    -0.368 OA
BRANCH   7   8
ATOM      8  C   LIG d   1       1.670  86.725 116.192  0.00  0.00     0.119 C 
BRANCH   8   9
ATOM      9  C   LIG d   1       1.565  85.568 115.180  0.00  0.00     0.028 C 
ATOM     10  C   LIG d   1       0.526  85.843 114.080  0.00  0.00     0.006 C 
ENDBRANCH   8   9
BRANCH   8  11
ATOM     11  C   LIG d   1       0.234  86.996 116.649  0.00  0.00     0.028 C 
ATOM     12  C   LIG d   1       0.133  88.178 117.626  0.00  0.00     0.006 C 
ENDBRANCH   8  11
ENDBRANCH   7   8
ENDBRANCH   1   7
BRANCH   6  13
ATOM     13  N   LIG d   1       4.156  87.279 113.254  0.00  0.00    -0.311 N 
ATOM     14  C   LIG d   1       3.313  87.175 112.229  0.00  0.00     0.210 C 
ATOM     15  C   LIG d   1       3.423  85.872 111.431  0.00  0.00     0.109 C 
ATOM     16  O   LIG d   1       2.506  88.052 111.885  0.00  0.00    -0.276 OA
ATOM     17  H   LIG d   1       4.799  86.535 113.442  0.00  0.00     0.149 HD
ENDBRANCH   6  13
BRANCH   5  18
ATOM     18  N   LIG d   1       6.114  89.611 113.005  0.00  0.00     0.381 N 
ATOM     19  H   LIG d   1       5.667  90.486 112.816  0.00  0.00    -0.090 HD
ATOM     20  H   LIG d   1       5.885  88.974 112.263  0.00  0.00    -0.090 HD
ATOM     21  H   LIG d   1       7.101  89.737 113.051  0.00  0.00    -0.090 HD
ENDBRANCH   5  18
BRANCH   3  22
ATOM     22  C   LIG d   1       5.451  90.475 117.669  0.00  0.00     0.382 C 
ATOM     23  O   LIG d   1       6.565  90.175 118.162  0.00  0.00    -0.241 OA
ATOM     24  O   LIG d   1       4.731  91.314 118.243  0.00  0.00    -0.241 OA
ENDBRANCH   3  22
TORSDOF 7
ENDMDL
MODEL 2
REMARK VINA RESULT:      -4.4      1.808      4.799
REMARK  7 active torsions:
REMARK  status: ('A' for Active; 'I' for Inactive)
REMARK    1  A    between atoms: C_2  and  C_3 
REMARK    2  A    between atoms: C_3  and  O_6 
REMARK    3  A    between atoms: C_3  and  C_4 
REMARK    4  A    between atoms: C_7  and  O_6 
REMARK    5  A    between atoms: C_9  and  C_10 
REMARK    6  A    between atoms: N_15  and  C_14 
REMARK    7  A    between atoms: N_20  and  C_19 
REMARK       I    between atoms: C_22  and  N_20 
ROOT
ATOM      1  C   LIG d   1       3.706  88.095 115.323  0.00  0.00     0.161 C 
ATOM      2  C   LIG d   1       3.107  87.383 114.270  0.00  0.00     0.016 C 
ATOM      3  C   LIG d   1       3.563  87.440 112.933  0.00  0.00     0.038 C 
ATOM      4  C   LIG d   1       4.751  88.098 112.583  0.00  0.00     0.028 C 
ATOM      5  C   LIG d   1       5.108  89.245 113.522  0.00  0.00    -0.047 C 
ATOM      6  C   LIG d   1       5.070  88.730 114.979  0.00  0.00     0.091 C 
ENDROOT
BRANCH   1   7
ATOM      7  O   LIG d   1       3.827  87.245 116.481  0.00  0.00    -0.368 OA
BRANCH   7   8
ATOM      8  C   LIG d   1       2.923  87.529 117.577  0.00  0.00     0.119 C 
BRANCH   8   9
ATOM      9  C   LIG d   1       1.805  86.469 117.541  0.00  0.00     0.028 C 
ATOM     10  C   LIG d   1       0.491  87.021 116.965  0.00  0.00     0.006 C 
ENDBRANCH   8   9
BRANCH   8  11
ATOM     11  C   LIG d   1       2.214  88.872 117.381  0.00  0.00     0.028 C 
ATOM     12  C   LIG d   1       2.620  89.919 118.430  0.00  0.00     0.006 C 
ENDBRANCH   8  11
ENDBRANCH   7   8
ENDBRANCH   1   7
BRANCH   6  13
ATOM     13  N   LIG d   1       5.325  89.810 115.969  0.00  0.00    -0.311 N 
ATOM     14  C   LIG d   1       6.315  89.770 116.858  0.00  0.00     0.210 C 
ATOM     15  C   LIG d   1       6.388  90.977 117.799  0.00  0.00     0.109 C 
ATOM     16  O   LIG d   1       7.161  88.866 116.935  0.00  0.00    -0.276 OA
ATOM     17  H   LIG d   1       4.705  90.596 115.955  0.00  0.00     0.149 HD
ENDBRANCH   6  13
BRANCH   5  18
ATOM     18  N   LIG d   1       6.434  89.753 113.123  0.00  0.00     0.381 N 
ATOM     19  H   LIG d   1       6.722  90.478 113.749  0.00  0.00    -0.090 HD
ATOM     20  H   LIG d   1       6.368  90.141 112.199  0.00  0.00    -0.090 HD
ATOM     21  H   LIG d   1       7.100  89.012 113.133  0.00  0.00    -0.090 HD
ENDBRANCH   5  18
BRANCH   3  22
ATOM     22  C   LIG d   1       2.806  86.865 111.924  0.00  0.00     0.382 C 
ATOM     23  O   LIG d   1       3.151  85.765 111.430  0.00  0.00    -0.241 OA
ATOM     24  O   LIG d   1       1.807  87.455 111.470  0.00  0.00    -0.241 OA
ENDBRANCH   3  22
TORSDOF 7
ENDMDL
MODEL 3
REMARK VINA RESULT:      -4.4      1.378      2.124
REMARK  7 active torsions:
REMARK  status: ('A' for Active; 'I' for Inactive)
REMARK    1  A    between atoms: C_2  and  C_3 
REMARK    2  A    between atoms: C_3  and  O_6 
REMARK    3  A    between atoms: C_3  and  C_4 
REMARK    4  A    between atoms: C_7  and  O_6 
REMARK    5  A    between atoms: C_9  and  C_10 
REMARK    6  A    between atoms: N_15  and  C_14 
REMARK    7  A    between atoms: N_20  and  C_19 
REMARK       I    between atoms: C_22  and  N_20 
ROOT
ATOM      1  C   LIG d   1       4.704  87.265 115.843  0.00  0.00     0.161 C 
ATOM      2  C   LIG d   1       5.505  87.868 116.828  0.00  0.00     0.016 C 
ATOM      3  C   LIG d   1       6.258  89.043 116.605  0.00  0.00     0.038 C 
ATOM      4  C   LIG d   1       6.142  89.785 115.420  0.00  0.00     0.028 C 
ATOM      5  C   LIG d   1       5.735  88.943 114.216  0.00  0.00    -0.047 C 
ATOM      6  C   LIG d   1       4.478  88.121 114.580  0.00  0.00     0.091 C 
ENDROOT
BRANCH   1   7
ATOM      7  O   LIG d   1       3.441  86.871 116.415  0.00  0.00    -0.368 OA
BRANCH   7   8
ATOM      8  C   LIG d   1       2.302  87.700 116.074  0.00  0.00     0.119 C 
BRANCH   8   9
ATOM      9  C   LIG d   1       2.122  88.728 117.208  0.00  0.00     0.028 C 
ATOM     10  C   LIG d   1       2.203  90.178 116.703  0.00  0.00     0.006 C 
ENDBRANCH   8   9
BRANCH   8  11
ATOM     11  C   LIG d   1       1.006  86.884 116.057  0.00  0.00     0.028 C 
ATOM     12  C   LIG d   1       0.855  86.032 114.787  0.00  0.00     0.006 C 
ENDBRANCH   8  11
ENDBRANCH   7   8
ENDBRANCH   1   7
BRANCH   6  13
ATOM     13  N   LIG d   1       4.062  87.206 113.485  0.00  0.00    -0.311 N 
ATOM     14  C   LIG d   1       3.231  87.563 112.508  0.00  0.00     0.210 C 
ATOM     15  C   LIG d   1       2.917  86.461 111.491  0.00  0.00     0.109 C 
ATOM     16  O   LIG d   1       2.748  88.697 112.368  0.00  0.00    -0.276 OA
ATOM     17  H   LIG d   1       4.431  86.276 113.503  0.00  0.00     0.149 HD
ENDBRANCH   6  13
BRANCH   5  18
ATOM     18  N   LIG d   1       5.517  89.862 113.083  0.00  0.00     0.381 N 
ATOM     19  H   LIG d   1       4.642  90.334 113.193  0.00  0.00    -0.090 HD
ATOM     20  H   LIG d   1       5.482  89.328 112.233  0.00  0.00    -0.090 HD
ATOM     21  H   LIG d   1       6.258  90.527 113.036  0.00  0.00    -0.090 HD
ENDBRANCH   5  18
BRANCH   3  22
ATOM     22  C   LIG d   1       7.170  89.466 117.560  0.00  0.00     0.382 C 
ATOM     23  O   LIG d   1       8.054  90.303 117.256  0.00  0.00    -0.241 OA
ATOM     24  O   LIG d   1       7.148  88.988 118.710  0.00  0.00    -0.241 OA
ENDBRANCH   3  22
TORSDOF 7
ENDMDL
MODEL 4
REMARK VINA RESULT:      -4.2      2.259      4.645
REMARK  7 active torsions:
REMARK  status: ('A' for Active; 'I' for Inactive)
REMARK    1  A    between atoms: C_2  and  C_3 
REMARK    2  A    between atoms: C_3  and  O_6 
REMARK    3  A    between atoms: C_3  and  C_4 
REMARK    4  A    between atoms: C_7  and  O_6 
REMARK    5  A    between atoms: C_9  and  C_10 
REMARK    6  A    between atoms: N_15  and  C_14 
REMARK    7  A    between atoms: N_20  and  C_19 
REMARK       I    between atoms: C_22  and  N_20 
ROOT
ATOM      1  C   LIG d   1       4.786  89.738 115.433  0.00  0.00     0.161 C 
ATOM      2  C   LIG d   1       4.471  90.871 116.201  0.00  0.00     0.016 C 
ATOM      3  C   LIG d   1       3.245  91.030 116.888  0.00  0.00     0.038 C 
ATOM      4  C   LIG d   1       2.306  89.991 116.977  0.00  0.00     0.028 C 
ATOM      5  C   LIG d   1       2.361  89.022 115.801  0.00  0.00    -0.047 C 
ATOM      6  C   LIG d   1       3.820  88.548 115.609  0.00  0.00     0.091 C 
ENDROOT
BRANCH   1   7
ATOM      7  O   LIG d   1       6.141  89.327 115.702  0.00  0.00    -0.368 OA
BRANCH   7   8
ATOM      8  C   LIG d   1       6.494  89.168 117.098  0.00  0.00     0.119 C 
BRANCH   8   9
ATOM      9  C   LIG d   1       7.803  89.945 117.336  0.00  0.00     0.028 C 
ATOM     10  C   LIG d   1       7.577  91.251 118.116  0.00  0.00     0.006 C 
ENDBRANCH   8   9
BRANCH   8  11
ATOM     11  C   LIG d   1       6.823  87.709 117.427  0.00  0.00     0.028 C 
ATOM     12  C   LIG d   1       7.300  86.915 116.201  0.00  0.00     0.006 C 
ENDBRANCH   8  11
ENDBRANCH   7   8
ENDBRANCH   1   7
BRANCH   6  13
ATOM     13  N   LIG d   1       3.977  87.662 114.426  0.00  0.00    -0.311 N 
ATOM     14  C   LIG d   1       3.646  88.026 113.189  0.00  0.00     0.210 C 
ATOM     15  C   LIG d   1       3.870  86.954 112.118  0.00  0.00     0.109 C 
ATOM     16  O   LIG d   1       3.217  89.146 112.871  0.00  0.00    -0.276 OA
ATOM     17  H   LIG d   1       4.347  86.746 114.589  0.00  0.00     0.149 HD
ENDBRANCH   6  13
BRANCH   5  18
ATOM     18  N   LIG d   1       1.427  87.917 116.089  0.00  0.00     0.381 N 
ATOM     19  H   LIG d   1       1.744  87.407 116.890  0.00  0.00    -0.090 HD
ATOM     20  H   LIG d   1       1.410  87.292 115.303  0.00  0.00    -0.090 HD
ATOM     21  H   LIG d   1       0.514  88.278 116.256  0.00  0.00    -0.090 HD
ENDBRANCH   5  18
BRANCH   3  22
ATOM     22  C   LIG d   1       2.932  92.252 117.462  0.00  0.00     0.382 C 
ATOM     23  O   LIG d   1       1.894  92.371 118.157  0.00  0.00    -0.241 OA
ATOM     24  O   LIG d   1       3.651  93.249 117.258  0.00  0.00    -0.241 OA
ENDBRANCH   3  22
TORSDOF 7
ENDMDL
MODEL 5
REMARK VINA RESULT:      -4.2      2.661      4.723
REMARK  7 active torsions:
REMARK  status: ('A' for Active; 'I' for Inactive)
REMARK    1  A    between atoms: C_2  and  C_3 
REMARK    2  A    between atoms: C_3  and  O_6 
REMARK    3  A    between atoms: C_3  and  C_4 
REMARK    4  A    between atoms: C_7  and  O_6 
REMARK    5  A    between atoms: C_9  and  C_10 
REMARK    6  A    between atoms: N_15  and  C_14 
REMARK    7  A    between atoms: N_20  and  C_19 
REMARK       I    between atoms: C_22  and  N_20 
ROOT
ATOM      1  C   LIG d   1       3.522  89.424 116.225  0.00  0.00     0.161 C 
ATOM      2  C   LIG d   1       3.806  90.666 116.816  0.00  0.00     0.016 C 
ATOM      3  C   LIG d   1       2.846  91.431 117.519  0.00  0.00     0.038 C 
ATOM      4  C   LIG d   1       1.568  90.932 117.809  0.00  0.00     0.028 C 
ATOM      5  C   LIG d   1       1.078  89.898 116.800  0.00  0.00    -0.047 C 
ATOM      6  C   LIG d   1       2.164  88.812 116.627  0.00  0.00     0.091 C 
ENDROOT
BRANCH   1   7
ATOM      7  O   LIG d   1       4.590  88.497 116.500  0.00  0.00    -0.368 OA
BRANCH   7   8
ATOM      8  C   LIG d   1       5.745  88.577 115.628  0.00  0.00     0.119 C 
BRANCH   8   9
ATOM      9  C   LIG d   1       5.256  88.321 114.189  0.00  0.00     0.028 C 
ATOM     10  C   LIG d   1       5.771  89.379 113.198  0.00  0.00     0.006 C 
ENDBRANCH   8   9
BRANCH   8  11
ATOM     11  C   LIG d   1       6.745  87.455 115.922  0.00  0.00     0.028 C 
ATOM     12  C   LIG d   1       7.759  87.832 117.014  0.00  0.00     0.006 C 
ENDBRANCH   8  11
ENDBRANCH   7   8
ENDBRANCH   1   7
BRANCH   6  13
ATOM     13  N   LIG d   1       1.800  87.807 115.594  0.00  0.00    -0.311 N 
ATOM     14  C   LIG d   1       1.162  86.671 115.869  0.00  0.00     0.210 C 
ATOM     15  C   LIG d   1       0.902  85.766 114.660  0.00  0.00     0.109 C 
ATOM     16  O   LIG d   1       0.759  86.341 116.994  0.00  0.00    -0.276 OA
ATOM     17  H   LIG d   1       2.062  88.009 114.649  0.00  0.00     0.149 HD
ENDBRANCH   6  13
BRANCH   5  18
ATOM     18  N   LIG d   1      -0.203  89.362 117.298  0.00  0.00     0.381 N 
ATOM     19  H   LIG d   1      -0.084  89.008 118.226  0.00  0.00    -0.090 HD
ATOM     20  H   LIG d   1      -0.490  88.603 116.705  0.00  0.00    -0.090 HD
ATOM     21  H   LIG d   1      -0.897  90.077 117.294  0.00  0.00    -0.090 HD
ENDBRANCH   5  18
BRANCH   3  22
ATOM     22  C   LIG d   1       3.150  92.728 117.904  0.00  0.00     0.382 C 
ATOM     23  O   LIG d   1       2.618  93.218 118.930  0.00  0.00    -0.241 OA
ATOM     24  O   LIG d   1       3.914  93.430 117.215  0.00  0.00    -0.241 OA
ENDBRANCH   3  22
TORSDOF 7
ENDMDL
MODEL 6
REMARK VINA RESULT:      -4.0      2.720      4.585
REMARK  7 active torsions:
REMARK  status: ('A' for Active; 'I' for Inactive)
REMARK    1  A    between atoms: C_2  and  C_3 
REMARK    2  A    between atoms: C_3  and  O_6 
REMARK    3  A    between atoms: C_3  and  C_4 
REMARK    4  A    between atoms: C_7  and  O_6 
REMARK    5  A    between atoms: C_9  and  C_10 
REMARK    6  A    between atoms: N_15  and  C_14 
REMARK    7  A    between atoms: N_20  and  C_19 
REMARK       I    between atoms: C_22  and  N_20 
ROOT
ATOM      1  C   LIG d   1       4.119  87.709 116.201  0.00  0.00     0.161 C 
ATOM      2  C   LIG d   1       3.176  88.743 116.078  0.00  0.00     0.016 C 
ATOM      3  C   LIG d   1       3.360  90.034 116.624  0.00  0.00     0.038 C 
ATOM      4  C   LIG d   1       4.576  90.427 117.204  0.00  0.00     0.028 C 
ATOM      5  C   LIG d   1       5.366  89.266 117.798  0.00  0.00    -0.047 C 
ATOM      6  C   LIG d   1       5.498  88.152 116.734  0.00  0.00     0.091 C 
ENDROOT
BRANCH   1   7
ATOM      7  O   LIG d   1       4.265  87.028 114.939  0.00  0.00    -0.368 OA
BRANCH   7   8
ATOM      8  C   LIG d   1       3.815  87.753 113.768  0.00  0.00     0.119 C 
BRANCH   8   9
ATOM      9  C   LIG d   1       3.005  86.772 112.899  0.00  0.00     0.028 C 
ATOM     10  C   LIG d   1       3.693  86.472 111.556  0.00  0.00     0.006 C 
ENDBRANCH   8   9
BRANCH   8  11
ATOM     11  C   LIG d   1       4.996  88.189 112.895  0.00  0.00     0.028 C 
ATOM     12  C   LIG d   1       5.556  89.564 113.293  0.00  0.00     0.006 C 
ENDBRANCH   8  11
ENDBRANCH   7   8
ENDBRANCH   1   7
BRANCH   6  13
ATOM     13  N   LIG d   1       6.185  86.944 117.260  0.00  0.00    -0.311 N 
ATOM     14  C   LIG d   1       7.500  86.753 117.171  0.00  0.00     0.210 C 
ATOM     15  C   LIG d   1       8.002  85.430 117.760  0.00  0.00     0.109 C 
ATOM     16  O   LIG d   1       8.303  87.566 116.690  0.00  0.00    -0.276 OA
ATOM     17  H   LIG d   1       5.614  86.247 117.695  0.00  0.00     0.149 HD
ENDBRANCH   6  13
BRANCH   5  18
ATOM     18  N   LIG d   1       6.669  89.796 118.244  0.00  0.00     0.381 N 
ATOM     19  H   LIG d   1       7.053  90.391 117.537  0.00  0.00    -0.090 HD
ATOM     20  H   LIG d   1       7.300  89.028 118.387  0.00  0.00    -0.090 HD
ATOM     21  H   LIG d   1       6.557  90.306 119.092  0.00  0.00    -0.090 HD
ENDBRANCH   5  18
BRANCH   3  22
ATOM     22  C   LIG d   1       2.307  90.936 116.628  0.00  0.00     0.382 C 
ATOM     23  O   LIG d   1       1.169  90.573 116.242  0.00  0.00    -0.241 OA
ATOM     24  O   LIG d   1       2.490  92.119 116.970  0.00  0.00    -0.241 OA
ENDBRANCH   3  22
TORSDOF 7
ENDMDL
MODEL 7
REMARK VINA RESULT:      -4.0      3.095      5.084
REMARK  7 active torsions:
REMARK  status: ('A' for Active; 'I' for Inactive)
REMARK    1  A    between atoms: C_2  and  C_3 
REMARK    2  A    between atoms: C_3  and  O_6 
REMARK    3  A    between atoms: C_3  and  C_4 
REMARK    4  A    between atoms: C_7  and  O_6 
REMARK    5  A    between atoms: C_9  and  C_10 
REMARK    6  A    between atoms: N_15  and  C_14 
REMARK    7  A    between atoms: N_20  and  C_19 
REMARK       I    between atoms: C_22  and  N_20 
ROOT
ATOM      1  C   LIG d   1       1.632  88.771 116.930  0.00  0.00     0.161 C 
ATOM      2  C   LIG d   1       0.298  88.733 117.367  0.00  0.00     0.016 C 
ATOM      3  C   LIG d   1      -0.411  89.877 117.801  0.00  0.00     0.038 C 
ATOM      4  C   LIG d   1       0.122  91.169 117.682  0.00  0.00     0.028 C 
ATOM      5  C   LIG d   1       1.646  91.201 117.719  0.00  0.00    -0.047 C 
ATOM      6  C   LIG d   1       2.194  90.187 116.689  0.00  0.00     0.091 C 
ENDROOT
BRANCH   1   7
ATOM      7  O   LIG d   1       1.781  87.964 115.744  0.00  0.00    -0.368 OA
BRANCH   7   8
ATOM      8  C   LIG d   1       2.471  86.702 115.914  0.00  0.00     0.119 C 
BRANCH   8   9
ATOM      9  C   LIG d   1       3.685  86.706 114.965  0.00  0.00     0.028 C 
ATOM     10  C   LIG d   1       4.999  86.374 115.691  0.00  0.00     0.006 C 
ENDBRANCH   8   9
BRANCH   8  11
ATOM     11  C   LIG d   1       1.602  85.526 115.456  0.00  0.00     0.028 C 
ATOM     12  C   LIG d   1       0.901  85.790 114.114  0.00  0.00     0.006 C 
ENDBRANCH   8  11
ENDBRANCH   7   8
ENDBRANCH   1   7
BRANCH   6  13
ATOM     13  N   LIG d   1       3.677  90.094 116.719  0.00  0.00    -0.311 N 
ATOM     14  C   LIG d   1       4.437  90.143 115.626  0.00  0.00     0.210 C 
ATOM     15  C   LIG d   1       5.942  90.008 115.879  0.00  0.00     0.109 C 
ATOM     16  O   LIG d   1       4.010  90.317 114.475  0.00  0.00    -0.276 OA
ATOM     17  H   LIG d   1       4.109  89.982 117.615  0.00  0.00     0.149 HD
ENDBRANCH   6  13
BRANCH   5  18
ATOM     18  N   LIG d   1       2.070  92.588 117.448  0.00  0.00     0.381 N 
ATOM     19  H   LIG d   1       1.304  93.108 117.070  0.00  0.00    -0.090 HD
ATOM     20  H   LIG d   1       2.809  92.574 116.767  0.00  0.00    -0.090 HD
ATOM     21  H   LIG d   1       2.390  93.017 118.288  0.00  0.00    -0.090 HD
ENDBRANCH   5  18
BRANCH   3  22
ATOM     22  C   LIG d   1      -1.654  89.730 118.397  0.00  0.00     0.382 C 
ATOM     23  O   LIG d   1      -2.215  90.718 118.930  0.00  0.00    -0.241 OA
ATOM     24  O   LIG d   1      -2.202  88.612 118.448  0.00  0.00    -0.241 OA
ENDBRANCH   3  22
TORSDOF 7
ENDMDL
MODEL 8
REMARK VINA RESULT:      -3.9      2.983      5.304
REMARK  7 active torsions:
REMARK  status: ('A' for Active; 'I' for Inactive)
REMARK    1  A    between atoms: C_2  and  C_3 
REMARK    2  A    between atoms: C_3  and  O_6 
REMARK    3  A    between atoms: C_3  and  C_4 
REMARK    4  A    between atoms: C_7  and  O_6 
REMARK    5  A    between atoms: C_9  and  C_10 
REMARK    6  A    between atoms: N_15  and  C_14 
REMARK    7  A    between atoms: N_20  and  C_19 
REMARK       I    between atoms: C_22  and  N_20 
ROOT
ATOM      1  C   LIG d   1       4.338  89.444 117.079  0.00  0.00     0.161 C 
ATOM      2  C   LIG d   1       3.064  90.026 116.971  0.00  0.00     0.016 C 
ATOM      3  C   LIG d   1       2.780  91.355 117.359  0.00  0.00     0.038 C 
ATOM      4  C   LIG d   1       3.792  92.248 117.743  0.00  0.00     0.028 C 
ATOM      5  C   LIG d   1       5.010  91.559 118.347  0.00  0.00    -0.047 C 
ATOM      6  C   LIG d   1       5.478  90.437 117.392  0.00  0.00     0.091 C 
ENDROOT
BRANCH   1   7
ATOM      7  O   LIG d   1       4.638  88.698 115.883  0.00  0.00    -0.368 OA
BRANCH   7   8
ATOM      8  C   LIG d   1       3.861  89.037 114.709  0.00  0.00     0.119 C 
BRANCH   8   9
ATOM      9  C   LIG d   1       3.523  87.721 113.981  0.00  0.00     0.028 C 
ATOM     10  C   LIG d   1       3.783  86.484 114.856  0.00  0.00     0.006 C 
ENDBRANCH   8   9
BRANCH   8  11
ATOM     11  C   LIG d   1       4.687  89.852 113.710  0.00  0.00     0.028 C 
ATOM     12  C   LIG d   1       5.813  89.033 113.059  0.00  0.00     0.006 C 
ENDBRANCH   8  11
ENDBRANCH   7   8
ENDBRANCH   1   7
BRANCH   6  13
ATOM     13  N   LIG d   1       6.614  89.657 117.947  0.00  0.00    -0.311 N 
ATOM     14  C   LIG d   1       7.891  89.977 117.745  0.00  0.00     0.210 C 
ATOM     15  C   LIG d   1       8.906  89.028 118.390  0.00  0.00     0.109 C 
ATOM     16  O   LIG d   1       8.280  90.975 117.120  0.00  0.00    -0.276 OA
ATOM     17  H   LIG d   1       6.389  88.848 118.493  0.00  0.00     0.149 HD
ENDBRANCH   6  13
BRANCH   5  18
ATOM     18  N   LIG d   1       6.039  92.591 118.574  0.00  0.00     0.381 N 
ATOM     19  H   LIG d   1       6.725  92.551 117.847  0.00  0.00    -0.090 HD
ATOM     20  H   LIG d   1       6.497  92.407 119.450  0.00  0.00    -0.090 HD
ATOM     21  H   LIG d   1       5.618  93.493 118.595  0.00  0.00    -0.090 HD
ENDBRANCH   5  18
BRANCH   3  22
ATOM     22  C   LIG d   1       1.465  91.792 117.403  0.00  0.00     0.382 C 
ATOM     23  O   LIG d   1       1.152  92.768 118.127  0.00  0.00    -0.241 OA
ATOM     24  O   LIG d   1       0.579  91.196 116.761  0.00  0.00    -0.241 OA
ENDBRANCH   3  22
TORSDOF 7
ENDMDL
MODEL 9
REMARK VINA RESULT:      -3.8      4.925      7.387
REMARK  7 active torsions:
REMARK  status: ('A' for Active; 'I' for Inactive)
REMARK    1  A    between atoms: C_2  and  C_3 
REMARK    2  A    between atoms: C_3  and  O_6 
REMARK    3  A    between atoms: C_3  and  C_4 
REMARK    4  A    between atoms: C_7  and  O_6 
REMARK    5  A    between atoms: C_9  and  C_10 
REMARK    6  A    between atoms: N_15  and  C_14 
REMARK    7  A    between atoms: N_20  and  C_19 
REMARK       I    between atoms: C_22  and  N_20 
ROOT
ATOM      1  C   LIG d   1      -0.484  90.630 118.312  0.00  0.00     0.161 C 
ATOM      2  C   LIG d   1      -1.864  90.384 118.219  0.00  0.00     0.016 C 
ATOM      3  C   LIG d   1      -2.835  91.409 118.150  0.00  0.00     0.038 C 
ATOM      4  C   LIG d   1      -2.479  92.759 118.015  0.00  0.00     0.028 C 
ATOM      5  C   LIG d   1      -1.115  93.088 118.612  0.00  0.00    -0.047 C 
ATOM      6  C   LIG d   1      -0.070  92.094 118.054  0.00  0.00     0.091 C 
ENDROOT
BRANCH   1   7
ATOM      7  O   LIG d   1       0.231  89.745 117.428  0.00  0.00    -0.368 OA
BRANCH   7   8
ATOM      8  C   LIG d   1       0.731  88.520 118.020  0.00  0.00     0.119 C 
BRANCH   8   9
ATOM      9  C   LIG d   1       2.233  88.427 117.691  0.00  0.00     0.028 C 
ATOM     10  C   LIG d   1       3.120  88.641 118.929  0.00  0.00     0.006 C 
ENDBRANCH   8   9
BRANCH   8  11
ATOM     11  C   LIG d   1       0.096  87.288 117.370  0.00  0.00     0.028 C 
ATOM     12  C   LIG d   1       0.446  85.982 118.100  0.00  0.00     0.006 C 
ENDBRANCH   8  11
ENDBRANCH   7   8
ENDBRANCH   1   7
BRANCH   6  13
ATOM     13  N   LIG d   1       1.276  92.293 118.651  0.00  0.00    -0.311 N 
ATOM     14  C   LIG d   1       2.408  92.200 117.955  0.00  0.00     0.210 C 
ATOM     15  C   LIG d   1       3.687  92.421 118.768  0.00  0.00     0.109 C 
ATOM     16  O   LIG d   1       2.472  91.988 116.735  0.00  0.00    -0.276 OA
ATOM     17  H   LIG d   1       1.315  92.500 119.630  0.00  0.00     0.149 HD
ENDBRANCH   6  13
BRANCH   5  18
ATOM     18  N   LIG d   1      -0.810  94.493 118.280  0.00  0.00     0.381 N 
ATOM     19  H   LIG d   1      -0.438  94.549 117.353  0.00  0.00    -0.090 HD
ATOM     20  H   LIG d   1      -0.116  94.835 118.921  0.00  0.00    -0.090 HD
ATOM     21  H   LIG d   1      -1.636  95.046 118.348  0.00  0.00    -0.090 HD
ENDBRANCH   5  18
BRANCH   3  22
ATOM     22  C   LIG d   1      -4.180  91.090 118.256  0.00  0.00     0.382 C 
ATOM     23  O   LIG d   1      -4.552  89.897 118.141  0.00  0.00    -0.241 OA
ATOM     24  O   LIG d   1      -5.031  91.985 118.419  0.00  0.00    -0.241 OA
ENDBRANCH   3  22
TORSDOF 7
ENDMDL
