MODEL 1
REMARK VINA RESULT:      -5.0      0.000      0.000
REMARK  7 active torsions:
REMARK  status: ('A' for Active; 'I' for Inactive)
REMARK    1  A    between atoms: C_2  and  C_3 
REMARK    2  A    between atoms: C_3  and  O_6 
REMARK    3  A    between atoms: C_3  and  C_4 
REMARK    4  A    between atoms: C_7  and  O_6 
REMARK    5  A    between atoms: C_9  and  C_10 
REMARK    6  A    between atoms: N_15  and  C_14 
REMARK    7  A    between atoms: N_20  and  C_19 
REMARK       I    between atoms: C_22  and  N_20 
ROOT
ATOM      1  C   LIG d   1      -5.340  90.574 118.224  0.00  0.00     0.161 C 
ATOM      2  C   LIG d   1      -6.086  91.757 118.095  0.00  0.00     0.016 C 
ATOM      3  C   LIG d   1      -5.508  93.012 117.794  0.00  0.00     0.038 C 
ATOM      4  C   LIG d   1      -4.154  93.142 117.451  0.00  0.00     0.028 C 
ATOM      5  C   LIG d   1      -3.268  92.060 118.060  0.00  0.00    -0.047 C 
ATOM      6  C   LIG d   1      -3.877  90.675 117.743  0.00  0.00     0.091 C 
ENDROOT
BRANCH   1   7
ATOM      7  O   LIG d   1      -6.015  89.494 117.548  0.00  0.00    -0.368 OA
BRANCH   7   8
ATOM      8  C   LIG d   1      -7.011  89.880 116.568  0.00  0.00     0.119 C 
BRANCH   8   9
ATOM      9  C   LIG d   1      -8.127  88.818 116.600  0.00  0.00     0.028 C 
ATOM     10  C   LIG d   1      -9.212  89.075 115.541  0.00  0.00     0.006 C 
ENDBRANCH   8   9
BRANCH   8  11
ATOM     11  C   LIG d   1      -6.443  89.828 115.147  0.00  0.00     0.028 C 
ATOM     12  C   LIG d   1      -6.344  91.215 114.493  0.00  0.00     0.006 C 
ENDBRANCH   8  11
ENDBRANCH   7   8
ENDBRANCH   1   7
BRANCH   6  13
ATOM     13  N   LIG d   1      -3.118  89.565 118.375  0.00  0.00    -0.311 N 
ATOM     14  C   LIG d   1      -2.905  88.392 117.781  0.00  0.00     0.210 C 
ATOM     15  C   LIG d   1      -2.116  87.378 118.615  0.00  0.00     0.109 C 
ATOM     16  O   LIG d   1      -3.266  88.106 116.629  0.00  0.00    -0.276 OA
ATOM     17  H   LIG d   1      -2.762  89.722 119.297  0.00  0.00     0.149 HD
ENDBRANCH   6  13
BRANCH   5  18
ATOM     18  N   LIG d   1      -1.910  92.234 117.511  0.00  0.00     0.381 N 
ATOM     19  H   LIG d   1      -1.613  93.182 117.636  0.00  0.00    -0.090 HD
ATOM     20  H   LIG d   1      -1.931  92.038 116.526  0.00  0.00    -0.090 HD
ATOM     21  H   LIG d   1      -1.276  91.617 117.967  0.00  0.00    -0.090 HD
ENDBRANCH   5  18
BRANCH   3  22
ATOM     22  C   LIG d   1      -6.280  94.161 117.874  0.00  0.00     0.382 C 
ATOM     23  O   LIG d   1      -7.304  94.279 117.158  0.00  0.00    -0.241 OA
ATOM     24  O   LIG d   1      -5.942  95.099 118.620  0.00  0.00    -0.241 OA
ENDBRANCH   3  22
TORSDOF 7
ENDMDL
MODEL 2
REMARK VINA RESULT:      -4.9      2.166      4.111
REMARK  7 active torsions:
REMARK  status: ('A' for Active; 'I' for Inactive)
REMARK    1  A    between atoms: C_2  and  C_3 
REMARK    2  A    between atoms: C_3  and  O_6 
REMARK    3  A    between atoms: C_3  and  C_4 
REMARK    4  A    between atoms: C_7  and  O_6 
REMARK    5  A    between atoms: C_9  and  C_10 
REMARK    6  A    between atoms: N_15  and  C_14 
REMARK    7  A    between atoms: N_20  and  C_19 
REMARK       I    between atoms: C_22  and  N_20 
ROOT
ATOM      1  C   LIG d   1      -4.931  91.965 117.637  0.00  0.00     0.161 C 
ATOM      2  C   LIG d   1      -5.195  93.149 118.344  0.00  0.00     0.016 C 
ATOM      3  C   LIG d   1      -6.142  94.112 117.925  0.00  0.00     0.038 C 
ATOM      4  C   LIG d   1      -7.003  93.882 116.842  0.00  0.00     0.028 C 
ATOM      5  C   LIG d   1      -6.427  92.927 115.802  0.00  0.00    -0.047 C 
ATOM      6  C   LIG d   1      -5.940  91.644 116.514  0.00  0.00     0.091 C 
ENDROOT
BRANCH   1   7
ATOM      7  O   LIG d   1      -4.835  90.858 118.555  0.00  0.00    -0.368 OA
BRANCH   7   8
ATOM      8  C   LIG d   1      -3.497  90.379 118.839  0.00  0.00     0.119 C 
BRANCH   8   9
ATOM      9  C   LIG d   1      -2.587  90.837 117.683  0.00  0.00     0.028 C 
ATOM     10  C   LIG d   1      -1.287  91.488 118.182  0.00  0.00     0.006 C 
ENDBRANCH   8   9
BRANCH   8  11
ATOM     11  C   LIG d   1      -3.438  88.849 118.821  0.00  0.00     0.028 C 
ATOM     12  C   LIG d   1      -2.745  88.295 117.566  0.00  0.00     0.006 C 
ENDBRANCH   8  11
ENDBRANCH   7   8
ENDBRANCH   1   7
BRANCH   6  13
ATOM     13  N   LIG d   1      -5.285  90.692 115.580  0.00  0.00    -0.311 N 
ATOM     14  C   LIG d   1      -5.617  89.405 115.493  0.00  0.00     0.210 C 
ATOM     15  C   LIG d   1      -4.803  88.594 114.480  0.00  0.00     0.109 C 
ATOM     16  O   LIG d   1      -6.529  88.865 116.137  0.00  0.00    -0.276 OA
ATOM     17  H   LIG d   1      -4.555  91.053 114.998  0.00  0.00     0.149 HD
ENDBRANCH   6  13
BRANCH   5  18
ATOM     18  N   LIG d   1      -7.480  92.669 114.802  0.00  0.00     0.381 N 
ATOM     19  H   LIG d   1      -8.358  92.531 115.262  0.00  0.00    -0.090 HD
ATOM     20  H   LIG d   1      -7.253  91.829 114.299  0.00  0.00    -0.090 HD
ATOM     21  H   LIG d   1      -7.546  93.436 114.170  0.00  0.00    -0.090 HD
ENDBRANCH   5  18
BRANCH   3  22
ATOM     22  C   LIG d   1      -6.206  95.339 118.569  0.00  0.00     0.382 C 
ATOM     23  O   LIG d   1      -7.316  95.894 118.751  0.00  0.00    -0.241 OA
ATOM     24  O   LIG d   1      -5.164  95.918 118.930  0.00  0.00    -0.241 OA
ENDBRANCH   3  22
TORSDOF 7
ENDMDL
MODEL 3
REMARK VINA RESULT:      -4.8      2.030      4.675
REMARK  7 active torsions:
REMARK  status: ('A' for Active; 'I' for Inactive)
REMARK    1  A    between atoms: C_2  and  C_3 
REMARK    2  A    between atoms: C_3  and  O_6 
REMARK    3  A    between atoms: C_3  and  C_4 
REMARK    4  A    between atoms: C_7  and  O_6 
REMARK    5  A    between atoms: C_9  and  C_10 
REMARK    6  A    between atoms: N_15  and  C_14 
REMARK    7  A    between atoms: N_20  and  C_19 
REMARK       I    between atoms: C_22  and  N_20 
ROOT
ATOM      1  C   LIG d   1      -4.806  91.751 117.082  0.00  0.00     0.161 C 
ATOM      2  C   LIG d   1      -3.708  90.887 117.228  0.00  0.00     0.016 C 
ATOM      3  C   LIG d   1      -2.501  91.262 117.862  0.00  0.00     0.038 C 
ATOM      4  C   LIG d   1      -2.365  92.487 118.531  0.00  0.00     0.028 C 
ATOM      5  C   LIG d   1      -3.266  93.585 117.975  0.00  0.00    -0.047 C 
ATOM      6  C   LIG d   1      -4.716  93.054 117.903  0.00  0.00     0.091 C 
ENDROOT
BRANCH   1   7
ATOM      7  O   LIG d   1      -6.026  91.048 117.389  0.00  0.00    -0.368 OA
BRANCH   7   8
ATOM      8  C   LIG d   1      -6.906  90.781 116.270  0.00  0.00     0.119 C 
BRANCH   8   9
ATOM      9  C   LIG d   1      -7.189  89.266 116.255  0.00  0.00     0.028 C 
ATOM     10  C   LIG d   1      -8.691  88.950 116.149  0.00  0.00     0.006 C 
ENDBRANCH   8   9
BRANCH   8  11
ATOM     11  C   LIG d   1      -6.217  91.078 114.935  0.00  0.00     0.028 C 
ATOM     12  C   LIG d   1      -6.836  92.276 114.199  0.00  0.00     0.006 C 
ENDBRANCH   8  11
ENDBRANCH   7   8
ENDBRANCH   1   7
BRANCH   6  13
ATOM     13  N   LIG d   1      -5.649  94.037 117.292  0.00  0.00    -0.311 N 
ATOM     14  C   LIG d   1      -6.816  94.377 117.837  0.00  0.00     0.210 C 
ATOM     15  C   LIG d   1      -7.633  95.392 117.032  0.00  0.00     0.109 C 
ATOM     16  O   LIG d   1      -7.237  93.959 118.926  0.00  0.00    -0.276 OA
ATOM     17  H   LIG d   1      -5.372  94.448 116.422  0.00  0.00     0.149 HD
ENDBRANCH   6  13
BRANCH   5  18
ATOM     18  N   LIG d   1      -3.124  94.764 118.850  0.00  0.00     0.381 N 
ATOM     19  H   LIG d   1      -3.482  95.575 118.386  0.00  0.00    -0.090 HD
ATOM     20  H   LIG d   1      -2.148  94.913 119.039  0.00  0.00    -0.090 HD
ATOM     21  H   LIG d   1      -3.616  94.616 119.704  0.00  0.00    -0.090 HD
ENDBRANCH   5  18
BRANCH   3  22
ATOM     22  C   LIG d   1      -1.400  90.422 117.795  0.00  0.00     0.382 C 
ATOM     23  O   LIG d   1      -0.378  90.776 117.160  0.00  0.00    -0.241 OA
ATOM     24  O   LIG d   1      -1.433  89.295 118.325  0.00  0.00    -0.241 OA
ENDBRANCH   3  22
TORSDOF 7
ENDMDL
MODEL 4
REMARK VINA RESULT:      -4.8      2.338      5.537
REMARK  7 active torsions:
REMARK  status: ('A' for Active; 'I' for Inactive)
REMARK    1  A    between atoms: C_2  and  C_3 
REMARK    2  A    between atoms: C_3  and  O_6 
REMARK    3  A    between atoms: C_3  and  C_4 
REMARK    4  A    between atoms: C_7  and  O_6 
REMARK    5  A    between atoms: C_9  and  C_10 
REMARK    6  A    between atoms: N_15  and  C_14 
REMARK    7  A    between atoms: N_20  and  C_19 
REMARK       I    between atoms: C_22  and  N_20 
ROOT
ATOM      1  C   LIG d   1      -5.754  90.424 117.925  0.00  0.00     0.161 C 
ATOM      2  C   LIG d   1      -4.614  89.903 118.561  0.00  0.00     0.016 C 
ATOM      3  C   LIG d   1      -3.620  89.157 117.888  0.00  0.00     0.038 C 
ATOM      4  C   LIG d   1      -3.622  89.008 116.493  0.00  0.00     0.028 C 
ATOM      5  C   LIG d   1      -5.015  89.085 115.878  0.00  0.00    -0.047 C 
ATOM      6  C   LIG d   1      -5.717  90.367 116.384  0.00  0.00     0.091 C 
ENDROOT
BRANCH   1   7
ATOM      7  O   LIG d   1      -5.988  91.774 118.371  0.00  0.00    -0.368 OA
BRANCH   7   8
ATOM      8  C   LIG d   1      -5.415  92.824 117.553  0.00  0.00     0.119 C 
BRANCH   8   9
ATOM      9  C   LIG d   1      -4.332  93.527 118.395  0.00  0.00     0.028 C 
ATOM     10  C   LIG d   1      -2.920  93.326 117.820  0.00  0.00     0.006 C 
ENDBRANCH   8   9
BRANCH   8  11
ATOM     11  C   LIG d   1      -6.448  93.908 117.233  0.00  0.00     0.028 C 
ATOM     12  C   LIG d   1      -6.439  95.059 118.252  0.00  0.00     0.006 C 
ENDBRANCH   8  11
ENDBRANCH   7   8
ENDBRANCH   1   7
BRANCH   6  13
ATOM     13  N   LIG d   1      -7.116  90.477 115.896  0.00  0.00    -0.311 N 
ATOM     14  C   LIG d   1      -7.466  91.191 114.828  0.00  0.00     0.210 C 
ATOM     15  C   LIG d   1      -8.965  91.187 114.510  0.00  0.00     0.109 C 
ATOM     16  O   LIG d   1      -6.674  91.802 114.095  0.00  0.00    -0.276 OA
ATOM     17  H   LIG d   1      -7.820  89.987 116.414  0.00  0.00     0.149 HD
ENDBRANCH   6  13
BRANCH   5  18
ATOM     18  N   LIG d   1      -4.857  89.054 114.412  0.00  0.00     0.381 N 
ATOM     19  H   LIG d   1      -5.746  89.188 113.972  0.00  0.00    -0.090 HD
ATOM     20  H   LIG d   1      -4.505  88.152 114.142  0.00  0.00    -0.090 HD
ATOM     21  H   LIG d   1      -4.224  89.766 114.121  0.00  0.00    -0.090 HD
ENDBRANCH   5  18
BRANCH   3  22
ATOM     22  C   LIG d   1      -2.630  88.516 118.618  0.00  0.00     0.382 C 
ATOM     23  O   LIG d   1      -1.583  89.132 118.930  0.00  0.00    -0.241 OA
ATOM     24  O   LIG d   1      -2.752  87.316 118.929  0.00  0.00    -0.241 OA
ENDBRANCH   3  22
TORSDOF 7
ENDMDL
MODEL 5
REMARK VINA RESULT:      -4.6      6.995      9.446
REMARK  7 active torsions:
REMARK  status: ('A' for Active; 'I' for Inactive)
REMARK    1  A    between atoms: C_2  and  C_3 
REMARK    2  A    between atoms: C_3  and  O_6 
REMARK    3  A    between atoms: C_3  and  C_4 
REMARK    4  A    between atoms: C_7  and  O_6 
REMARK    5  A    between atoms: C_9  and  C_10 
REMARK    6  A    between atoms: N_15  and  C_14 
REMARK    7  A    between atoms: N_20  and  C_19 
REMARK       I    between atoms: C_22  and  N_20 
ROOT
ATOM      1  C   LIG d   1       2.904  87.823 115.612  0.00  0.00     0.161 C 
ATOM      2  C   LIG d   1       3.301  88.624 116.695  0.00  0.00     0.016 C 
ATOM      3  C   LIG d   1       4.403  89.509 116.646  0.00  0.00     0.038 C 
ATOM      4  C   LIG d   1       5.095  89.766 115.453  0.00  0.00     0.028 C 
ATOM      5  C   LIG d   1       5.049  88.606 114.464  0.00  0.00    -0.047 C 
ATOM      6  C   LIG d   1       3.578  88.171 114.268  0.00  0.00     0.091 C 
ENDROOT
BRANCH   1   7
ATOM      7  O   LIG d   1       1.470  87.859 115.477  0.00  0.00    -0.368 OA
BRANCH   7   8
ATOM      8  C   LIG d   1       0.739  86.807 116.155  0.00  0.00     0.119 C 
BRANCH   8   9
ATOM      9  C   LIG d   1      -0.394  86.351 115.214  0.00  0.00     0.028 C 
ATOM     10  C   LIG d   1       0.119  85.469 114.064  0.00  0.00     0.006 C 
ENDBRANCH   8   9
BRANCH   8  11
ATOM     11  C   LIG d   1       0.036  87.335 117.409  0.00  0.00     0.028 C 
ATOM     12  C   LIG d   1      -1.490  87.412 117.249  0.00  0.00     0.006 C 
ENDBRANCH   8  11
ENDBRANCH   7   8
ENDBRANCH   1   7
BRANCH   6  13
ATOM     13  N   LIG d   1       3.451  86.986 113.381  0.00  0.00    -0.311 N 
ATOM     14  C   LIG d   1       2.891  87.032 112.173  0.00  0.00     0.210 C 
ATOM     15  C   LIG d   1       2.843  85.692 111.431  0.00  0.00     0.109 C 
ATOM     16  O   LIG d   1       2.458  88.061 111.632  0.00  0.00    -0.276 OA
ATOM     17  H   LIG d   1       3.804  86.116 113.728  0.00  0.00     0.149 HD
ENDBRANCH   6  13
BRANCH   5  18
ATOM     18  N   LIG d   1       5.689  89.059 113.215  0.00  0.00     0.381 N 
ATOM     19  H   LIG d   1       5.204  89.856 112.856  0.00  0.00    -0.090 HD
ATOM     20  H   LIG d   1       5.632  88.322 112.534  0.00  0.00    -0.090 HD
ATOM     21  H   LIG d   1       6.643  89.290 113.385  0.00  0.00    -0.090 HD
ENDBRANCH   5  18
BRANCH   3  22
ATOM     22  C   LIG d   1       4.847  90.119 117.809  0.00  0.00     0.382 C 
ATOM     23  O   LIG d   1       4.940  91.368 117.866  0.00  0.00    -0.241 OA
ATOM     24  O   LIG d   1       5.199  89.432 118.787  0.00  0.00    -0.241 OA
ENDBRANCH   3  22
TORSDOF 7
ENDMDL
MODEL 6
REMARK VINA RESULT:      -4.4      2.526      4.554
REMARK  7 active torsions:
REMARK  status: ('A' for Active; 'I' for Inactive)
REMARK    1  A    between atoms: C_2  and  C_3 
REMARK    2  A    between atoms: C_3  and  O_6 
REMARK    3  A    between atoms: C_3  and  C_4 
REMARK    4  A    between atoms: C_7  and  O_6 
REMARK    5  A    between atoms: C_9  and  C_10 
REMARK    6  A    between atoms: N_15  and  C_14 
REMARK    7  A    between atoms: N_20  and  C_19 
REMARK       I    between atoms: C_22  and  N_20 
ROOT
ATOM      1  C   LIG d   1      -4.656  91.903 117.294  0.00  0.00     0.161 C 
ATOM      2  C   LIG d   1      -3.625  92.708 117.804  0.00  0.00     0.016 C 
ATOM      3  C   LIG d   1      -3.837  94.002 118.333  0.00  0.00     0.038 C 
ATOM      4  C   LIG d   1      -5.125  94.522 118.528  0.00  0.00     0.028 C 
ATOM      5  C   LIG d   1      -6.160  93.952 117.564  0.00  0.00    -0.047 C 
ATOM      6  C   LIG d   1      -6.082  92.408 117.599  0.00  0.00     0.091 C 
ENDROOT
BRANCH   1   7
ATOM      7  O   LIG d   1      -4.494  90.549 117.758  0.00  0.00    -0.368 OA
BRANCH   7   8
ATOM      8  C   LIG d   1      -3.369  89.818 117.211  0.00  0.00     0.119 C 
BRANCH   8   9
ATOM      9  C   LIG d   1      -3.935  88.630 116.409  0.00  0.00     0.028 C 
ATOM     10  C   LIG d   1      -4.938  89.074 115.331  0.00  0.00     0.006 C 
ENDBRANCH   8   9
BRANCH   8  11
ATOM     11  C   LIG d   1      -2.520  89.190 118.320  0.00  0.00     0.028 C 
ATOM     12  C   LIG d   1      -2.421  87.661 118.202  0.00  0.00     0.006 C 
ENDBRANCH   8  11
ENDBRANCH   7   8
ENDBRANCH   1   7
BRANCH   6  13
ATOM     13  N   LIG d   1      -7.004  91.772 116.623  0.00  0.00    -0.311 N 
ATOM     14  C   LIG d   1      -6.997  92.048 115.320  0.00  0.00     0.210 C 
ATOM     15  C   LIG d   1      -8.043  91.295 114.493  0.00  0.00     0.109 C 
ATOM     16  O   LIG d   1      -6.201  92.822 114.766  0.00  0.00    -0.276 OA
ATOM     17  H   LIG d   1      -7.662  91.108 116.982  0.00  0.00     0.149 HD
ENDBRANCH   6  13
BRANCH   5  18
ATOM     18  N   LIG d   1      -7.480  94.473 117.967  0.00  0.00     0.381 N 
ATOM     19  H   LIG d   1      -8.186  94.120 117.353  0.00  0.00    -0.090 HD
ATOM     20  H   LIG d   1      -7.470  95.475 117.893  0.00  0.00    -0.090 HD
ATOM     21  H   LIG d   1      -7.681  94.204 118.905  0.00  0.00    -0.090 HD
ENDBRANCH   5  18
BRANCH   3  22
ATOM     22  C   LIG d   1      -2.749  94.807 118.638  0.00  0.00     0.382 C 
ATOM     23  O   LIG d   1      -1.595  94.315 118.670  0.00  0.00    -0.241 OA
ATOM     24  O   LIG d   1      -2.913  96.008 118.923  0.00  0.00    -0.241 OA
ENDBRANCH   3  22
TORSDOF 7
ENDMDL
MODEL 7
REMARK VINA RESULT:      -4.3      2.120      4.271
REMARK  7 active torsions:
REMARK  status: ('A' for Active; 'I' for Inactive)
REMARK    1  A    between atoms: C_2  and  C_3 
REMARK    2  A    between atoms: C_3  and  O_6 
REMARK    3  A    between atoms: C_3  and  C_4 
REMARK    4  A    between atoms: C_7  and  O_6 
REMARK    5  A    between atoms: C_9  and  C_10 
REMARK    6  A    between atoms: N_15  and  C_14 
REMARK    7  A    between atoms: N_20  and  C_19 
REMARK       I    between atoms: C_22  and  N_20 
ROOT
ATOM      1  C   LIG d   1      -4.672  91.678 116.975  0.00  0.00     0.161 C 
ATOM      2  C   LIG d   1      -5.909  91.853 116.333  0.00  0.00     0.016 C 
ATOM      3  C   LIG d   1      -6.478  90.893 115.465  0.00  0.00     0.038 C 
ATOM      4  C   LIG d   1      -5.915  89.619 115.297  0.00  0.00     0.028 C 
ATOM      5  C   LIG d   1      -4.408  89.587 115.530  0.00  0.00    -0.047 C 
ATOM      6  C   LIG d   1      -4.097  90.248 116.892  0.00  0.00     0.091 C 
ENDROOT
BRANCH   1   7
ATOM      7  O   LIG d   1      -4.772  92.098 118.350  0.00  0.00    -0.368 OA
BRANCH   7   8
ATOM      8  C   LIG d   1      -4.222  93.403 118.659  0.00  0.00     0.119 C 
BRANCH   8   9
ATOM      9  C   LIG d   1      -5.276  94.455 118.262  0.00  0.00     0.028 C 
ATOM     10  C   LIG d   1      -6.638  94.202 118.930  0.00  0.00     0.006 C 
ENDBRANCH   8   9
BRANCH   8  11
ATOM     11  C   LIG d   1      -2.996  93.710 117.794  0.00  0.00     0.028 C 
ATOM     12  C   LIG d   1      -1.671  93.512 118.546  0.00  0.00     0.006 C 
ENDBRANCH   8  11
ENDBRANCH   7   8
ENDBRANCH   1   7
BRANCH   6  13
ATOM     13  N   LIG d   1      -2.638  90.334 117.159  0.00  0.00    -0.311 N 
ATOM     14  C   LIG d   1      -1.964  89.417 117.851  0.00  0.00     0.210 C 
ATOM     15  C   LIG d   1      -0.470  89.709 118.029  0.00  0.00     0.109 C 
ATOM     16  O   LIG d   1      -2.455  88.374 118.308  0.00  0.00    -0.276 OA
ATOM     17  H   LIG d   1      -2.154  91.133 116.798  0.00  0.00     0.149 HD
ENDBRANCH   6  13
BRANCH   5  18
ATOM     18  N   LIG d   1      -3.976  88.179 115.458  0.00  0.00     0.381 N 
ATOM     19  H   LIG d   1      -4.167  87.721 116.327  0.00  0.00    -0.090 HD
ATOM     20  H   LIG d   1      -2.984  88.151 115.299  0.00  0.00    -0.090 HD
ATOM     21  H   LIG d   1      -4.452  87.713 114.717  0.00  0.00    -0.090 HD
ENDBRANCH   5  18
BRANCH   3  22
ATOM     22  C   LIG d   1      -7.603  91.219 114.722  0.00  0.00     0.382 C 
ATOM     23  O   LIG d   1      -7.838  90.620 113.645  0.00  0.00    -0.241 OA
ATOM     24  O   LIG d   1      -8.360  92.135 115.092  0.00  0.00    -0.241 OA
ENDBRANCH   3  22
TORSDOF 7
ENDMDL
MODEL 8
REMARK VINA RESULT:      -4.1      1.532      1.962
REMARK  7 active torsions:
REMARK  status: ('A' for Active; 'I' for Inactive)
REMARK    1  A    between atoms: C_2  and  C_3 
REMARK    2  A    between atoms: C_3  and  O_6 
REMARK    3  A    between atoms: C_3  and  C_4 
REMARK    4  A    between atoms: C_7  and  O_6 
REMARK    5  A    between atoms: C_9  and  C_10 
REMARK    6  A    between atoms: N_15  and  C_14 
REMARK    7  A    between atoms: N_20  and  C_19 
REMARK       I    between atoms: C_22  and  N_20 
ROOT
ATOM      1  C   LIG d   1      -4.079  90.328 118.461  0.00  0.00     0.161 C 
ATOM      2  C   LIG d   1      -4.534  91.655 118.406  0.00  0.00     0.016 C 
ATOM      3  C   LIG d   1      -3.676  92.766 118.234  0.00  0.00     0.038 C 
ATOM      4  C   LIG d   1      -2.311  92.611 117.952  0.00  0.00     0.028 C 
ATOM      5  C   LIG d   1      -1.722  91.315 118.499  0.00  0.00    -0.047 C 
ATOM      6  C   LIG d   1      -2.606  90.131 118.044  0.00  0.00     0.091 C 
ENDROOT
BRANCH   1   7
ATOM      7  O   LIG d   1      -4.940  89.483 117.672  0.00  0.00    -0.368 OA
BRANCH   7   8
ATOM      8  C   LIG d   1      -5.741  90.151 116.667  0.00  0.00     0.119 C 
BRANCH   8   9
ATOM      9  C   LIG d   1      -7.123  89.470 116.649  0.00  0.00     0.028 C 
ATOM     10  C   LIG d   1      -7.980  89.913 115.451  0.00  0.00     0.006 C 
ENDBRANCH   8   9
BRANCH   8  11
ATOM     11  C   LIG d   1      -5.166  89.938 115.263  0.00  0.00     0.028 C 
ATOM     12  C   LIG d   1      -4.592  88.527 115.063  0.00  0.00     0.006 C 
ENDBRANCH   8  11
ENDBRANCH   7   8
ENDBRANCH   1   7
BRANCH   6  13
ATOM     13  N   LIG d   1      -2.149  88.834 118.605  0.00  0.00    -0.311 N 
ATOM     14  C   LIG d   1      -1.220  88.072 118.029  0.00  0.00     0.210 C 
ATOM     15  C   LIG d   1      -0.910  86.764 118.763  0.00  0.00     0.109 C 
ATOM     16  O   LIG d   1      -0.601  88.371 116.997  0.00  0.00    -0.276 OA
ATOM     17  H   LIG d   1      -2.576  88.529 119.458  0.00  0.00     0.149 HD
ENDBRANCH   6  13
BRANCH   5  18
ATOM     18  N   LIG d   1      -0.332  91.218 118.015  0.00  0.00     0.381 N 
ATOM     19  H   LIG d   1      -0.256  91.644 117.113  0.00  0.00    -0.090 HD
ATOM     20  H   LIG d   1      -0.085  90.248 117.927  0.00  0.00    -0.090 HD
ATOM     21  H   LIG d   1       0.284  91.668 118.656  0.00  0.00    -0.090 HD
ENDBRANCH   5  18
BRANCH   3  22
ATOM     22  C   LIG d   1      -4.176  94.050 118.384  0.00  0.00     0.382 C 
ATOM     23  O   LIG d   1      -3.399  94.998 118.653  0.00  0.00    -0.241 OA
ATOM     24  O   LIG d   1      -5.400  94.266 118.298  0.00  0.00    -0.241 OA
ENDBRANCH   3  22
TORSDOF 7
ENDMDL
MODEL 9
REMARK VINA RESULT:      -4.0      6.939      9.582
REMARK  7 active torsions:
REMARK  status: ('A' for Active; 'I' for Inactive)
REMARK    1  A    between atoms: C_2  and  C_3 
REMARK    2  A    between atoms: C_3  and  O_6 
REMARK    3  A    between atoms: C_3  and  C_4 
REMARK    4  A    between atoms: C_7  and  O_6 
REMARK    5  A    between atoms: C_9  and  C_10 
REMARK    6  A    between atoms: N_15  and  C_14 
REMARK    7  A    between atoms: N_20  and  C_19 
REMARK       I    between atoms: C_22  and  N_20 
ROOT
ATOM      1  C   LIG d   1       2.757  88.445 116.080  0.00  0.00     0.161 C 
ATOM      2  C   LIG d   1       2.649  87.966 114.764  0.00  0.00     0.016 C 
ATOM      3  C   LIG d   1       3.750  87.852 113.884  0.00  0.00     0.038 C 
ATOM      4  C   LIG d   1       5.067  88.070 114.313  0.00  0.00     0.028 C 
ATOM      5  C   LIG d   1       5.170  89.040 115.485  0.00  0.00    -0.047 C 
ATOM      6  C   LIG d   1       4.203  88.583 116.601  0.00  0.00     0.091 C 
ENDROOT
BRANCH   1   7
ATOM      7  O   LIG d   1       1.981  87.616 116.968  0.00  0.00    -0.368 OA
BRANCH   7   8
ATOM      8  C   LIG d   1       0.967  88.295 117.749  0.00  0.00     0.119 C 
BRANCH   8   9
ATOM      9  C   LIG d   1      -0.299  87.416 117.727  0.00  0.00     0.028 C 
ATOM     10  C   LIG d   1      -0.626  86.893 116.318  0.00  0.00     0.006 C 
ENDBRANCH   8   9
BRANCH   8  11
ATOM     11  C   LIG d   1       0.553  89.617 117.097  0.00  0.00     0.028 C 
ATOM     12  C   LIG d   1       0.286  90.729 118.124  0.00  0.00     0.006 C 
ENDBRANCH   8  11
ENDBRANCH   7   8
ENDBRANCH   1   7
BRANCH   6  13
ATOM     13  N   LIG d   1       4.179  89.524 117.751  0.00  0.00    -0.311 N 
ATOM     14  C   LIG d   1       4.042  90.842 117.617  0.00  0.00     0.210 C 
ATOM     15  C   LIG d   1       4.063  91.631 118.930  0.00  0.00     0.109 C 
ATOM     16  O   LIG d   1       3.872  91.429 116.538  0.00  0.00    -0.276 OA
ATOM     17  H   LIG d   1       4.279  89.129 118.666  0.00  0.00     0.149 HD
ENDBRANCH   6  13
BRANCH   5  18
ATOM     18  N   LIG d   1       6.580  89.068 115.918  0.00  0.00     0.381 N 
ATOM     19  H   LIG d   1       6.646  89.470 116.832  0.00  0.00    -0.090 HD
ATOM     20  H   LIG d   1       7.104  89.643 115.282  0.00  0.00    -0.090 HD
ATOM     21  H   LIG d   1       6.953  88.144 115.926  0.00  0.00    -0.090 HD
ENDBRANCH   5  18
BRANCH   3  22
ATOM     22  C   LIG d   1       3.533  87.555 112.547  0.00  0.00     0.382 C 
ATOM     23  O   LIG d   1       4.331  86.807 111.934  0.00  0.00    -0.241 OA
ATOM     24  O   LIG d   1       2.574  88.062 111.935  0.00  0.00    -0.241 OA
ENDBRANCH   3  22
TORSDOF 7
ENDMDL
