MODEL 1
REMARK VINA RESULT:      -4.8      0.000      0.000
REMARK  7 active torsions:
REMARK  status: ('A' for Active; 'I' for Inactive)
REMARK    1  A    between atoms: C_2  and  C_3 
REMARK    2  A    between atoms: C_3  and  O_6 
REMARK    3  A    between atoms: C_3  and  C_4 
REMARK    4  A    between atoms: C_7  and  O_6 
REMARK    5  A    between atoms: C_9  and  C_10 
REMARK    6  A    between atoms: N_15  and  C_14 
REMARK    7  A    between atoms: N_20  and  C_19 
REMARK       I    between atoms: C_22  and  N_20 
ROOT
ATOM      1  C   LIG d   1       2.370  86.365 115.130  0.00  0.00     0.161 C 
ATOM      2  C   LIG d   1       1.367  86.118 116.081  0.00  0.00     0.016 C 
ATOM      3  C   LIG d   1       0.930  87.081 117.019  0.00  0.00     0.038 C 
ATOM      4  C   LIG d   1       1.365  88.414 116.971  0.00  0.00     0.028 C 
ATOM      5  C   LIG d   1       2.748  88.578 116.350  0.00  0.00    -0.047 C 
ATOM      6  C   LIG d   1       2.777  87.847 114.989  0.00  0.00     0.091 C 
ENDROOT
BRANCH   1   7
ATOM      7  O   LIG d   1       1.974  85.831 113.851  0.00  0.00    -0.368 OA
BRANCH   7   8
ATOM      8  C   LIG d   1       1.211  86.720 112.998  0.00  0.00     0.119 C 
BRANCH   8   9
ATOM      9  C   LIG d   1      -0.141  86.039 112.711  0.00  0.00     0.028 C 
ATOM     10  C   LIG d   1      -0.815  86.584 111.440  0.00  0.00     0.006 C 
ENDBRANCH   8   9
BRANCH   8  11
ATOM     11  C   LIG d   1       1.879  86.887 111.630  0.00  0.00     0.028 C 
ATOM     12  C   LIG d   1       3.091  85.961 111.440  0.00  0.00     0.006 C 
ENDBRANCH   8  11
ENDBRANCH   7   8
ENDBRANCH   1   7
BRANCH   6  13
ATOM     13  N   LIG d   1       4.120  87.886 114.353  0.00  0.00    -0.311 N 
ATOM     14  C   LIG d   1       4.496  88.830 113.492  0.00  0.00     0.210 C 
ATOM     15  C   LIG d   1       5.916  88.672 112.939  0.00  0.00     0.109 C 
ATOM     16  O   LIG d   1       3.800  89.801 113.158  0.00  0.00    -0.276 OA
ATOM     17  H   LIG d   1       4.759  87.153 114.591  0.00  0.00     0.149 HD
ENDBRANCH   6  13
BRANCH   5  18
ATOM     18  N   LIG d   1       3.017  90.024 116.236  0.00  0.00     0.381 N 
ATOM     19  H   LIG d   1       2.297  90.540 116.701  0.00  0.00    -0.090 HD
ATOM     20  H   LIG d   1       3.012  90.280 115.265  0.00  0.00    -0.090 HD
ATOM     21  H   LIG d   1       3.903  90.239 116.639  0.00  0.00    -0.090 HD
ENDBRANCH   5  18
BRANCH   3  22
ATOM     22  C   LIG d   1       0.078  86.704 118.046  0.00  0.00     0.382 C 
ATOM     23  O   LIG d   1       0.169  85.556 118.546  0.00  0.00    -0.241 OA
ATOM     24  O   LIG d   1      -0.809  87.480 118.449  0.00  0.00    -0.241 OA
ENDBRANCH   3  22
TORSDOF 7
ENDMDL
MODEL 2
REMARK VINA RESULT:      -4.3      3.341      5.908
REMARK  7 active torsions:
REMARK  status: ('A' for Active; 'I' for Inactive)
REMARK    1  A    between atoms: C_2  and  C_3 
REMARK    2  A    between atoms: C_3  and  O_6 
REMARK    3  A    between atoms: C_3  and  C_4 
REMARK    4  A    between atoms: C_7  and  O_6 
REMARK    5  A    between atoms: C_9  and  C_10 
REMARK    6  A    between atoms: N_15  and  C_14 
REMARK    7  A    between atoms: N_20  and  C_19 
REMARK       I    between atoms: C_22  and  N_20 
ROOT
ATOM      1  C   LIG d   1       4.534  90.160 115.048  0.00  0.00     0.161 C 
ATOM      2  C   LIG d   1       3.643  89.452 114.224  0.00  0.00     0.016 C 
ATOM      3  C   LIG d   1       3.703  88.053 114.036  0.00  0.00     0.038 C 
ATOM      4  C   LIG d   1       4.570  87.240 114.781  0.00  0.00     0.028 C 
ATOM      5  C   LIG d   1       5.828  87.966 115.248  0.00  0.00    -0.047 C 
ATOM      6  C   LIG d   1       5.417  89.278 115.955  0.00  0.00     0.091 C 
ENDROOT
BRANCH   1   7
ATOM      7  O   LIG d   1       3.810  91.124 115.838  0.00  0.00    -0.368 OA
BRANCH   7   8
ATOM      8  C   LIG d   1       3.227  90.630 117.069  0.00  0.00     0.119 C 
BRANCH   8   9
ATOM      9  C   LIG d   1       1.696  90.741 116.933  0.00  0.00     0.028 C 
ATOM     10  C   LIG d   1       1.007  91.029 118.278  0.00  0.00     0.006 C 
ENDBRANCH   8   9
BRANCH   8  11
ATOM     11  C   LIG d   1       3.595  91.523 118.257  0.00  0.00     0.028 C 
ATOM     12  C   LIG d   1       4.410  92.758 117.844  0.00  0.00     0.006 C 
ENDBRANCH   8  11
ENDBRANCH   7   8
ENDBRANCH   1   7
BRANCH   6  13
ATOM     13  N   LIG d   1       6.590  90.090 116.369  0.00  0.00    -0.311 N 
ATOM     14  C   LIG d   1       7.100  90.067 117.600  0.00  0.00     0.210 C 
ATOM     15  C   LIG d   1       8.298  90.996 117.820  0.00  0.00     0.109 C 
ATOM     16  O   LIG d   1       6.694  89.342 118.520  0.00  0.00    -0.276 OA
ATOM     17  H   LIG d   1       7.001  90.684 115.676  0.00  0.00     0.149 HD
ENDBRANCH   6  13
BRANCH   5  18
ATOM     18  N   LIG d   1       6.573  87.045 116.127  0.00  0.00     0.381 N 
ATOM     19  H   LIG d   1       6.737  86.181 115.651  0.00  0.00    -0.090 HD
ATOM     20  H   LIG d   1       6.019  86.854 116.943  0.00  0.00    -0.090 HD
ATOM     21  H   LIG d   1       7.440  87.455 116.394  0.00  0.00    -0.090 HD
ENDBRANCH   5  18
BRANCH   3  22
ATOM     22  C   LIG d   1       2.915  87.456 113.063  0.00  0.00     0.382 C 
ATOM     23  O   LIG d   1       2.223  88.166 112.294  0.00  0.00    -0.241 OA
ATOM     24  O   LIG d   1       2.854  86.215 112.972  0.00  0.00    -0.241 OA
ENDBRANCH   3  22
TORSDOF 7
ENDMDL
MODEL 3
REMARK VINA RESULT:      -4.3      3.361      4.250
REMARK  7 active torsions:
REMARK  status: ('A' for Active; 'I' for Inactive)
REMARK    1  A    between atoms: C_2  and  C_3 
REMARK    2  A    between atoms: C_3  and  O_6 
REMARK    3  A    between atoms: C_3  and  C_4 
REMARK    4  A    between atoms: C_7  and  O_6 
REMARK    5  A    between atoms: C_9  and  C_10 
REMARK    6  A    between atoms: N_15  and  C_14 
REMARK    7  A    between atoms: N_20  and  C_19 
REMARK       I    between atoms: C_22  and  N_20 
ROOT
ATOM      1  C   LIG d   1       4.542  87.434 116.273  0.00  0.00     0.161 C 
ATOM      2  C   LIG d   1       3.569  88.443 116.179  0.00  0.00     0.016 C 
ATOM      3  C   LIG d   1       3.848  89.815 116.381  0.00  0.00     0.038 C 
ATOM      4  C   LIG d   1       5.158  90.289 116.543  0.00  0.00     0.028 C 
ATOM      5  C   LIG d   1       6.105  89.257 117.146  0.00  0.00    -0.047 C 
ATOM      6  C   LIG d   1       5.997  87.944 116.338  0.00  0.00     0.091 C 
ENDROOT
BRANCH   1   7
ATOM      7  O   LIG d   1       4.386  86.503 115.184  0.00  0.00    -0.368 OA
BRANCH   7   8
ATOM      8  C   LIG d   1       3.561  86.946 114.079  0.00  0.00     0.119 C 
BRANCH   8   9
ATOM      9  C   LIG d   1       2.587  85.801 113.740  0.00  0.00     0.028 C 
ATOM     10  C   LIG d   1       1.118  86.191 113.972  0.00  0.00     0.006 C 
ENDBRANCH   8   9
BRANCH   8  11
ATOM     11  C   LIG d   1       4.393  87.159 112.811  0.00  0.00     0.028 C 
ATOM     12  C   LIG d   1       5.296  88.400 112.893  0.00  0.00     0.006 C 
ENDBRANCH   8  11
ENDBRANCH   7   8
ENDBRANCH   1   7
BRANCH   6  13
ATOM     13  N   LIG d   1       6.830  86.855 116.913  0.00  0.00    -0.311 N 
ATOM     14  C   LIG d   1       8.083  86.613 116.534  0.00  0.00     0.210 C 
ATOM     15  C   LIG d   1       8.755  85.430 117.239  0.00  0.00     0.109 C 
ATOM     16  O   LIG d   1       8.714  87.285 115.704  0.00  0.00    -0.276 OA
ATOM     17  H   LIG d   1       6.407  86.280 117.615  0.00  0.00     0.149 HD
ENDBRANCH   6  13
BRANCH   5  18
ATOM     18  N   LIG d   1       7.462  89.836 117.130  0.00  0.00     0.381 N 
ATOM     19  H   LIG d   1       8.012  89.390 116.423  0.00  0.00    -0.090 HD
ATOM     20  H   LIG d   1       7.897  89.669 118.020  0.00  0.00    -0.090 HD
ATOM     21  H   LIG d   1       7.414  90.815 116.955  0.00  0.00    -0.090 HD
ENDBRANCH   5  18
BRANCH   3  22
ATOM     22  C   LIG d   1       2.803  90.723 116.463  0.00  0.00     0.382 C 
ATOM     23  O   LIG d   1       1.622  90.339 116.285  0.00  0.00    -0.241 OA
ATOM     24  O   LIG d   1       3.031  91.930 116.668  0.00  0.00    -0.241 OA
ENDBRANCH   3  22
TORSDOF 7
ENDMDL
MODEL 4
REMARK VINA RESULT:      -4.2      2.403      6.230
REMARK  7 active torsions:
REMARK  status: ('A' for Active; 'I' for Inactive)
REMARK    1  A    between atoms: C_2  and  C_3 
REMARK    2  A    between atoms: C_3  and  O_6 
REMARK    3  A    between atoms: C_3  and  C_4 
REMARK    4  A    between atoms: C_7  and  O_6 
REMARK    5  A    between atoms: C_9  and  C_10 
REMARK    6  A    between atoms: N_15  and  C_14 
REMARK    7  A    between atoms: N_20  and  C_19 
REMARK       I    between atoms: C_22  and  N_20 
ROOT
ATOM      1  C   LIG d   1       3.622  87.764 116.058  0.00  0.00     0.161 C 
ATOM      2  C   LIG d   1       4.381  87.985 114.896  0.00  0.00     0.016 C 
ATOM      3  C   LIG d   1       3.917  87.685 113.595  0.00  0.00     0.038 C 
ATOM      4  C   LIG d   1       2.595  87.281 113.354  0.00  0.00     0.028 C 
ATOM      5  C   LIG d   1       1.955  86.564 114.538  0.00  0.00    -0.047 C 
ATOM      6  C   LIG d   1       2.137  87.429 115.806  0.00  0.00     0.091 C 
ENDROOT
BRANCH   1   7
ATOM      7  O   LIG d   1       3.737  88.899 116.939  0.00  0.00    -0.368 OA
BRANCH   7   8
ATOM      8  C   LIG d   1       3.552  90.200 116.330  0.00  0.00     0.119 C 
BRANCH   8   9
ATOM      9  C   LIG d   1       4.614  91.145 116.925  0.00  0.00     0.028 C 
ATOM     10  C   LIG d   1       6.027  90.541 116.882  0.00  0.00     0.006 C 
ENDBRANCH   8   9
BRANCH   8  11
ATOM     11  C   LIG d   1       2.202  90.811 116.719  0.00  0.00     0.028 C 
ATOM     12  C   LIG d   1       1.748  90.403 118.130  0.00  0.00     0.006 C 
ENDBRANCH   8  11
ENDBRANCH   7   8
ENDBRANCH   1   7
BRANCH   6  13
ATOM     13  N   LIG d   1       1.614  86.762 117.026  0.00  0.00    -0.311 N 
ATOM     14  C   LIG d   1       0.401  86.995 117.527  0.00  0.00     0.210 C 
ATOM     15  C   LIG d   1       0.068  86.217 118.803  0.00  0.00     0.109 C 
ATOM     16  O   LIG d   1      -0.441  87.748 117.016  0.00  0.00    -0.276 OA
ATOM     17  H   LIG d   1       2.220  86.112 117.487  0.00  0.00     0.149 HD
ENDBRANCH   6  13
BRANCH   5  18
ATOM     18  N   LIG d   1       0.540  86.323 114.200  0.00  0.00     0.381 N 
ATOM     19  H   LIG d   1       0.027  87.179 114.259  0.00  0.00    -0.090 HD
ATOM     20  H   LIG d   1       0.153  85.677 114.866  0.00  0.00    -0.090 HD
ATOM     21  H   LIG d   1       0.468  85.946 113.281  0.00  0.00    -0.090 HD
ENDBRANCH   5  18
BRANCH   3  22
ATOM     22  C   LIG d   1       4.792  87.749 112.521  0.00  0.00     0.382 C 
ATOM     23  O   LIG d   1       5.723  88.590 112.521  0.00  0.00    -0.241 OA
ATOM     24  O   LIG d   1       4.636  87.007 111.533  0.00  0.00    -0.241 OA
ENDBRANCH   3  22
TORSDOF 7
ENDMDL
MODEL 5
REMARK VINA RESULT:      -4.2      2.241      3.430
REMARK  7 active torsions:
REMARK  status: ('A' for Active; 'I' for Inactive)
REMARK    1  A    between atoms: C_2  and  C_3 
REMARK    2  A    between atoms: C_3  and  O_6 
REMARK    3  A    between atoms: C_3  and  C_4 
REMARK    4  A    between atoms: C_7  and  O_6 
REMARK    5  A    between atoms: C_9  and  C_10 
REMARK    6  A    between atoms: N_15  and  C_14 
REMARK    7  A    between atoms: N_20  and  C_19 
REMARK       I    between atoms: C_22  and  N_20 
ROOT
ATOM      1  C   LIG d   1       1.492  88.675 116.819  0.00  0.00     0.161 C 
ATOM      2  C   LIG d   1       0.126  88.560 117.125  0.00  0.00     0.016 C 
ATOM      3  C   LIG d   1      -0.685  89.659 117.491  0.00  0.00     0.038 C 
ATOM      4  C   LIG d   1      -0.216  90.980 117.428  0.00  0.00     0.028 C 
ATOM      5  C   LIG d   1       1.293  91.096 117.612  0.00  0.00    -0.047 C 
ATOM      6  C   LIG d   1       1.994  90.123 116.637  0.00  0.00     0.091 C 
ENDROOT
BRANCH   1   7
ATOM      7  O   LIG d   1       1.799  87.888 115.651  0.00  0.00    -0.368 OA
BRANCH   7   8
ATOM      8  C   LIG d   1       2.274  86.542 115.897  0.00  0.00     0.119 C 
BRANCH   8   9
ATOM      9  C   LIG d   1       3.793  86.533 115.640  0.00  0.00     0.028 C 
ATOM     10  C   LIG d   1       4.147  86.929 114.196  0.00  0.00     0.006 C 
ENDBRANCH   8   9
BRANCH   8  11
ATOM     11  C   LIG d   1       1.686  85.550 114.888  0.00  0.00     0.028 C 
ATOM     12  C   LIG d   1       0.635  86.190 113.967  0.00  0.00     0.006 C 
ENDBRANCH   8  11
ENDBRANCH   7   8
ENDBRANCH   1   7
BRANCH   6  13
ATOM     13  N   LIG d   1       3.470  90.112 116.810  0.00  0.00    -0.311 N 
ATOM     14  C   LIG d   1       4.328  90.266 115.802  0.00  0.00     0.210 C 
ATOM     15  C   LIG d   1       5.806  90.202 116.196  0.00  0.00     0.109 C 
ATOM     16  O   LIG d   1       4.004  90.481 114.625  0.00  0.00    -0.276 OA
ATOM     17  H   LIG d   1       3.820  89.974 117.738  0.00  0.00     0.149 HD
ENDBRANCH   6  13
BRANCH   5  18
ATOM     18  N   LIG d   1       1.662  92.506 117.387  0.00  0.00     0.381 N 
ATOM     19  H   LIG d   1       0.846  93.083 117.440  0.00  0.00    -0.090 HD
ATOM     20  H   LIG d   1       2.053  92.597 116.465  0.00  0.00    -0.090 HD
ATOM     21  H   LIG d   1       2.329  92.797 118.068  0.00  0.00    -0.090 HD
ENDBRANCH   5  18
BRANCH   3  22
ATOM     22  C   LIG d   1      -1.970  89.438 117.964  0.00  0.00     0.382 C 
ATOM     23  O   LIG d   1      -2.407  88.267 118.066  0.00  0.00    -0.241 OA
ATOM     24  O   LIG d   1      -2.712  90.397 118.248  0.00  0.00    -0.241 OA
ENDBRANCH   3  22
TORSDOF 7
ENDMDL
MODEL 6
REMARK VINA RESULT:      -4.1      2.398      5.061
REMARK  7 active torsions:
REMARK  status: ('A' for Active; 'I' for Inactive)
REMARK    1  A    between atoms: C_2  and  C_3 
REMARK    2  A    between atoms: C_3  and  O_6 
REMARK    3  A    between atoms: C_3  and  C_4 
REMARK    4  A    between atoms: C_7  and  O_6 
REMARK    5  A    between atoms: C_9  and  C_10 
REMARK    6  A    between atoms: N_15  and  C_14 
REMARK    7  A    between atoms: N_20  and  C_19 
REMARK       I    between atoms: C_22  and  N_20 
ROOT
ATOM      1  C   LIG d   1       3.267  88.107 115.296  0.00  0.00     0.161 C 
ATOM      2  C   LIG d   1       2.530  87.417 114.319  0.00  0.00     0.016 C 
ATOM      3  C   LIG d   1       2.960  87.270 112.980  0.00  0.00     0.038 C 
ATOM      4  C   LIG d   1       4.236  87.676 112.562  0.00  0.00     0.028 C 
ATOM      5  C   LIG d   1       4.807  88.824 113.387  0.00  0.00    -0.047 C 
ATOM      6  C   LIG d   1       4.712  88.461 114.887  0.00  0.00     0.091 C 
ENDROOT
BRANCH   1   7
ATOM      7  O   LIG d   1       3.264  87.360 116.529  0.00  0.00    -0.368 OA
BRANCH   7   8
ATOM      8  C   LIG d   1       2.480  87.919 117.611  0.00  0.00     0.119 C 
BRANCH   8   9
ATOM      9  C   LIG d   1       1.214  87.053 117.762  0.00  0.00     0.028 C 
ATOM     10  C   LIG d   1      -0.030  87.720 117.151  0.00  0.00     0.006 C 
ENDBRANCH   8   9
BRANCH   8  11
ATOM     11  C   LIG d   1       1.972  89.322 117.265  0.00  0.00     0.028 C 
ATOM     12  C   LIG d   1       2.515  90.403 118.212  0.00  0.00     0.006 C 
ENDBRANCH   8  11
ENDBRANCH   7   8
ENDBRANCH   1   7
BRANCH   6  13
ATOM     13  N   LIG d   1       5.172  89.565 115.768  0.00  0.00    -0.311 N 
ATOM     14  C   LIG d   1       6.168  89.439 116.643  0.00  0.00     0.210 C 
ATOM     15  C   LIG d   1       6.468  90.695 117.467  0.00  0.00     0.109 C 
ATOM     16  O   LIG d   1       6.854  88.416 116.791  0.00  0.00    -0.276 OA
ATOM     17  H   LIG d   1       4.691  90.440 115.691  0.00  0.00     0.149 HD
ENDBRANCH   6  13
BRANCH   5  18
ATOM     18  N   LIG d   1       6.192  89.053 112.934  0.00  0.00     0.381 N 
ATOM     19  H   LIG d   1       6.384  90.035 112.915  0.00  0.00    -0.090 HD
ATOM     20  H   LIG d   1       6.292  88.694 112.001  0.00  0.00    -0.090 HD
ATOM     21  H   LIG d   1       6.831  88.594 113.545  0.00  0.00    -0.090 HD
ENDBRANCH   5  18
BRANCH   3  22
ATOM     22  C   LIG d   1       2.092  86.746 112.034  0.00  0.00     0.382 C 
ATOM     23  O   LIG d   1       2.389  85.687 111.430  0.00  0.00    -0.241 OA
ATOM     24  O   LIG d   1       1.038  87.343 111.744  0.00  0.00    -0.241 OA
ENDBRANCH   3  22
TORSDOF 7
ENDMDL
MODEL 7
REMARK VINA RESULT:      -4.0      2.468      5.429
REMARK  7 active torsions:
REMARK  status: ('A' for Active; 'I' for Inactive)
REMARK    1  A    between atoms: C_2  and  C_3 
REMARK    2  A    between atoms: C_3  and  O_6 
REMARK    3  A    between atoms: C_3  and  C_4 
REMARK    4  A    between atoms: C_7  and  O_6 
REMARK    5  A    between atoms: C_9  and  C_10 
REMARK    6  A    between atoms: N_15  and  C_14 
REMARK    7  A    between atoms: N_20  and  C_19 
REMARK       I    between atoms: C_22  and  N_20 
ROOT
ATOM      1  C   LIG d   1       3.015  88.821 116.041  0.00  0.00     0.161 C 
ATOM      2  C   LIG d   1       2.624  88.374 114.768  0.00  0.00     0.016 C 
ATOM      3  C   LIG d   1       3.539  87.933 113.784  0.00  0.00     0.038 C 
ATOM      4  C   LIG d   1       4.904  87.766 114.061  0.00  0.00     0.028 C 
ATOM      5  C   LIG d   1       5.413  88.682 115.169  0.00  0.00    -0.047 C 
ATOM      6  C   LIG d   1       4.489  88.541 116.401  0.00  0.00     0.091 C 
ENDROOT
BRANCH   1   7
ATOM      7  O   LIG d   1       2.140  88.266 117.043  0.00  0.00    -0.368 OA
BRANCH   7   8
ATOM      8  C   LIG d   1       0.878  88.950 117.237  0.00  0.00     0.119 C 
BRANCH   8   9
ATOM      9  C   LIG d   1       1.165  90.236 118.036  0.00  0.00     0.028 C 
ATOM     10  C   LIG d   1       0.774  91.507 117.263  0.00  0.00     0.006 C 
ENDBRANCH   8   9
BRANCH   8  11
ATOM     11  C   LIG d   1      -0.071  88.130 118.116  0.00  0.00     0.028 C 
ATOM     12  C   LIG d   1      -1.552  88.402 117.809  0.00  0.00     0.006 C 
ENDBRANCH   8  11
ENDBRANCH   7   8
ENDBRANCH   1   7
BRANCH   6  13
ATOM     13  N   LIG d   1       4.866  89.466 117.501  0.00  0.00    -0.311 N 
ATOM     14  C   LIG d   1       4.750  90.791 117.418  0.00  0.00     0.210 C 
ATOM     15  C   LIG d   1       5.215  91.559 118.659  0.00  0.00     0.109 C 
ATOM     16  O   LIG d   1       4.276  91.400 116.447  0.00  0.00    -0.276 OA
ATOM     17  H   LIG d   1       5.231  89.055 118.338  0.00  0.00     0.149 HD
ENDBRANCH   6  13
BRANCH   5  18
ATOM     18  N   LIG d   1       6.811  88.307 115.450  0.00  0.00     0.381 N 
ATOM     19  H   LIG d   1       6.847  87.372 115.805  0.00  0.00    -0.090 HD
ATOM     20  H   LIG d   1       7.179  88.925 116.152  0.00  0.00    -0.090 HD
ATOM     21  H   LIG d   1       7.356  88.375 114.619  0.00  0.00    -0.090 HD
ENDBRANCH   5  18
BRANCH   3  22
ATOM     22  C   LIG d   1       3.095  87.692 112.492  0.00  0.00     0.382 C 
ATOM     23  O   LIG d   1       3.802  87.020 111.702  0.00  0.00    -0.241 OA
ATOM     24  O   LIG d   1       2.018  88.174 112.094  0.00  0.00    -0.241 OA
ENDBRANCH   3  22
TORSDOF 7
ENDMDL
MODEL 8
REMARK VINA RESULT:      -3.9      3.270      4.365
REMARK  7 active torsions:
REMARK  status: ('A' for Active; 'I' for Inactive)
REMARK    1  A    between atoms: C_2  and  C_3 
REMARK    2  A    between atoms: C_3  and  O_6 
REMARK    3  A    between atoms: C_3  and  C_4 
REMARK    4  A    between atoms: C_7  and  O_6 
REMARK    5  A    between atoms: C_9  and  C_10 
REMARK    6  A    between atoms: N_15  and  C_14 
REMARK    7  A    between atoms: N_20  and  C_19 
REMARK       I    between atoms: C_22  and  N_20 
ROOT
ATOM      1  C   LIG d   1       3.811  89.980 115.717  0.00  0.00     0.161 C 
ATOM      2  C   LIG d   1       2.695  90.647 116.248  0.00  0.00     0.016 C 
ATOM      3  C   LIG d   1       2.780  91.599 117.289  0.00  0.00     0.038 C 
ATOM      4  C   LIG d   1       4.013  92.064 117.770  0.00  0.00     0.028 C 
ATOM      5  C   LIG d   1       5.144  91.053 117.615  0.00  0.00    -0.047 C 
ATOM      6  C   LIG d   1       5.175  90.555 116.151  0.00  0.00     0.091 C 
ENDROOT
BRANCH   1   7
ATOM      7  O   LIG d   1       3.719  89.942 114.279  0.00  0.00    -0.368 OA
BRANCH   7   8
ATOM      8  C   LIG d   1       3.467  88.642 113.690  0.00  0.00     0.119 C 
BRANCH   8   9
ATOM      9  C   LIG d   1       3.240  87.647 114.845  0.00  0.00     0.028 C 
ATOM     10  C   LIG d   1       1.907  86.891 114.714  0.00  0.00     0.006 C 
ENDBRANCH   8   9
BRANCH   8  11
ATOM     11  C   LIG d   1       4.698  88.121 112.943  0.00  0.00     0.028 C 
ATOM     12  C   LIG d   1       4.364  86.984 111.964  0.00  0.00     0.006 C 
ENDBRANCH   8  11
ENDBRANCH   7   8
ENDBRANCH   1   7
BRANCH   6  13
ATOM     13  N   LIG d   1       6.199  89.500 115.933  0.00  0.00    -0.311 N 
ATOM     14  C   LIG d   1       6.273  88.389 116.664  0.00  0.00     0.210 C 
ATOM     15  C   LIG d   1       7.416  87.442 116.285  0.00  0.00     0.109 C 
ATOM     16  O   LIG d   1       5.482  88.083 117.569  0.00  0.00    -0.276 OA
ATOM     17  H   LIG d   1       6.862  89.652 115.198  0.00  0.00     0.149 HD
ENDBRANCH   6  13
BRANCH   5  18
ATOM     18  N   LIG d   1       6.395  91.716 118.027  0.00  0.00     0.381 N 
ATOM     19  H   LIG d   1       6.856  92.098 117.225  0.00  0.00    -0.090 HD
ATOM     20  H   LIG d   1       7.003  91.034 118.445  0.00  0.00    -0.090 HD
ATOM     21  H   LIG d   1       6.197  92.441 118.681  0.00  0.00    -0.090 HD
ENDBRANCH   5  18
BRANCH   3  22
ATOM     22  C   LIG d   1       1.621  92.068 117.889  0.00  0.00     0.382 C 
ATOM     23  O   LIG d   1       1.501  93.289 118.154  0.00  0.00    -0.241 OA
ATOM     24  O   LIG d   1       0.711  91.279 118.208  0.00  0.00    -0.241 OA
ENDBRANCH   3  22
TORSDOF 7
ENDMDL
MODEL 9
REMARK VINA RESULT:      -3.9      2.469      4.860
REMARK  7 active torsions:
REMARK  status: ('A' for Active; 'I' for Inactive)
REMARK    1  A    between atoms: C_2  and  C_3 
REMARK    2  A    between atoms: C_3  and  O_6 
REMARK    3  A    between atoms: C_3  and  C_4 
REMARK    4  A    between atoms: C_7  and  O_6 
REMARK    5  A    between atoms: C_9  and  C_10 
REMARK    6  A    between atoms: N_15  and  C_14 
REMARK    7  A    between atoms: N_20  and  C_19 
REMARK       I    between atoms: C_22  and  N_20 
ROOT
ATOM      1  C   LIG d   1       2.640  89.217 116.344  0.00  0.00     0.161 C 
ATOM      2  C   LIG d   1       1.415  89.471 116.983  0.00  0.00     0.016 C 
ATOM      3  C   LIG d   1       0.370  88.523 117.067  0.00  0.00     0.038 C 
ATOM      4  C   LIG d   1       0.537  87.195 116.646  0.00  0.00     0.028 C 
ATOM      5  C   LIG d   1       1.576  87.037 115.541  0.00  0.00    -0.047 C 
ATOM      6  C   LIG d   1       2.883  87.739 115.976  0.00  0.00     0.091 C 
ENDROOT
BRANCH   1   7
ATOM      7  O   LIG d   1       3.725  89.718 117.150  0.00  0.00    -0.368 OA
BRANCH   7   8
ATOM      8  C   LIG d   1       4.474  90.826 116.593  0.00  0.00     0.119 C 
BRANCH   8   9
ATOM      9  C   LIG d   1       5.944  90.380 116.480  0.00  0.00     0.028 C 
ATOM     10  C   LIG d   1       6.258  89.163 117.365  0.00  0.00     0.006 C 
ENDBRANCH   8   9
BRANCH   8  11
ATOM     11  C   LIG d   1       4.486  92.026 117.545  0.00  0.00     0.028 C 
ATOM     12  C   LIG d   1       3.132  92.750 117.607  0.00  0.00     0.006 C 
ENDBRANCH   8  11
ENDBRANCH   7   8
ENDBRANCH   1   7
BRANCH   6  13
ATOM     13  N   LIG d   1       3.925  87.704 114.917  0.00  0.00    -0.311 N 
ATOM     14  C   LIG d   1       3.813  88.349 113.757  0.00  0.00     0.210 C 
ATOM     15  C   LIG d   1       4.993  88.163 112.797  0.00  0.00     0.109 C 
ATOM     16  O   LIG d   1       2.863  89.082 113.444  0.00  0.00    -0.276 OA
ATOM     17  H   LIG d   1       4.744  87.157 115.100  0.00  0.00     0.149 HD
ENDBRANCH   6  13
BRANCH   5  18
ATOM     18  N   LIG d   1       1.749  85.593 115.295  0.00  0.00     0.381 N 
ATOM     19  H   LIG d   1       1.864  85.427 114.315  0.00  0.00    -0.090 HD
ATOM     20  H   LIG d   1       0.923  85.110 115.602  0.00  0.00    -0.090 HD
ATOM     21  H   LIG d   1       2.544  85.256 115.792  0.00  0.00    -0.090 HD
ENDBRANCH   5  18
BRANCH   3  22
ATOM     22  C   LIG d   1      -0.874  88.911 117.541  0.00  0.00     0.382 C 
ATOM     23  O   LIG d   1      -1.251  90.101 117.411  0.00  0.00    -0.241 OA
ATOM     24  O   LIG d   1      -1.606  88.098 118.136  0.00  0.00    -0.241 OA
ENDBRANCH   3  22
TORSDOF 7
ENDMDL
