MODEL 1
REMARK VINA RESULT:      -5.0      0.000      0.000
REMARK  7 active torsions:
REMARK  status: ('A' for Active; 'I' for Inactive)
REMARK    1  A    between atoms: C_2  and  C_3 
REMARK    2  A    between atoms: C_3  and  O_6 
REMARK    3  A    between atoms: C_3  and  C_4 
REMARK    4  A    between atoms: C_7  and  O_6 
REMARK    5  A    between atoms: C_9  and  C_10 
REMARK    6  A    between atoms: N_15  and  C_14 
REMARK    7  A    between atoms: N_20  and  C_19 
REMARK       I    between atoms: C_22  and  N_20 
ROOT
ATOM      1  C   LIG d   1      -5.313  91.131 116.449  0.00  0.00     0.161 C 
ATOM      2  C   LIG d   1      -4.255  90.222 116.624  0.00  0.00     0.016 C 
ATOM      3  C   LIG d   1      -3.165  90.456 117.493  0.00  0.00     0.038 C 
ATOM      4  C   LIG d   1      -3.135  91.554 118.366  0.00  0.00     0.028 C 
ATOM      5  C   LIG d   1      -3.932  92.752 117.860  0.00  0.00    -0.047 C 
ATOM      6  C   LIG d   1      -5.353  92.282 117.475  0.00  0.00     0.091 C 
ENDROOT
BRANCH   1   7
ATOM      7  O   LIG d   1      -6.568  90.423 116.441  0.00  0.00    -0.368 OA
BRANCH   7   8
ATOM      8  C   LIG d   1      -7.010  89.923 115.155  0.00  0.00     0.119 C 
BRANCH   8   9
ATOM      9  C   LIG d   1      -6.566  90.939 114.085  0.00  0.00     0.028 C 
ATOM     10  C   LIG d   1      -7.683  91.929 113.716  0.00  0.00     0.006 C 
ENDBRANCH   8   9
BRANCH   8  11
ATOM     11  C   LIG d   1      -8.539  89.884 115.067  0.00  0.00     0.028 C 
ATOM     12  C   LIG d   1      -9.156  88.759 115.913  0.00  0.00     0.006 C 
ENDBRANCH   8  11
ENDBRANCH   7   8
ENDBRANCH   1   7
BRANCH   6  13
ATOM     13  N   LIG d   1      -6.172  93.376 116.891  0.00  0.00    -0.311 N 
ATOM     14  C   LIG d   1      -6.989  94.144 117.611  0.00  0.00     0.210 C 
ATOM     15  C   LIG d   1      -7.757  95.200 116.809  0.00  0.00     0.109 C 
ATOM     16  O   LIG d   1      -7.126  94.072 118.841  0.00  0.00    -0.276 OA
ATOM     17  H   LIG d   1      -6.099  93.524 115.904  0.00  0.00     0.149 HD
ENDBRANCH   6  13
BRANCH   5  18
ATOM     18  N   LIG d   1      -3.929  93.771 118.927  0.00  0.00     0.381 N 
ATOM     19  H   LIG d   1      -3.739  93.338 119.808  0.00  0.00    -0.090 HD
ATOM     20  H   LIG d   1      -4.838  94.196 118.973  0.00  0.00    -0.090 HD
ATOM     21  H   LIG d   1      -3.240  94.464 118.734  0.00  0.00    -0.090 HD
ENDBRANCH   5  18
BRANCH   3  22
ATOM     22  C   LIG d   1      -2.070  89.606 117.466  0.00  0.00     0.382 C 
ATOM     23  O   LIG d   1      -2.165  88.446 117.935  0.00  0.00    -0.241 OA
ATOM     24  O   LIG d   1      -0.976  89.999 117.019  0.00  0.00    -0.241 OA
ENDBRANCH   3  22
TORSDOF 7
ENDMDL
MODEL 2
REMARK VINA RESULT:      -5.0      1.579      4.827
REMARK  7 active torsions:
REMARK  status: ('A' for Active; 'I' for Inactive)
REMARK    1  A    between atoms: C_2  and  C_3 
REMARK    2  A    between atoms: C_3  and  O_6 
REMARK    3  A    between atoms: C_3  and  C_4 
REMARK    4  A    between atoms: C_7  and  O_6 
REMARK    5  A    between atoms: C_9  and  C_10 
REMARK    6  A    between atoms: N_15  and  C_14 
REMARK    7  A    between atoms: N_20  and  C_19 
REMARK       I    between atoms: C_22  and  N_20 
ROOT
ATOM      1  C   LIG d   1      -5.347  91.245 117.629  0.00  0.00     0.161 C 
ATOM      2  C   LIG d   1      -6.098  92.431 117.669  0.00  0.00     0.016 C 
ATOM      3  C   LIG d   1      -5.567  93.674 118.086  0.00  0.00     0.038 C 
ATOM      4  C   LIG d   1      -4.200  93.846 118.349  0.00  0.00     0.028 C 
ATOM      5  C   LIG d   1      -3.506  92.568 118.809  0.00  0.00    -0.047 C 
ATOM      6  C   LIG d   1      -3.826  91.435 117.806  0.00  0.00     0.091 C 
ENDROOT
BRANCH   1   7
ATOM      7  O   LIG d   1      -5.623  90.532 116.407  0.00  0.00    -0.368 OA
BRANCH   7   8
ATOM      8  C   LIG d   1      -6.845  90.898 115.719  0.00  0.00     0.119 C 
BRANCH   8   9
ATOM      9  C   LIG d   1      -7.431  89.613 115.102  0.00  0.00     0.028 C 
ATOM     10  C   LIG d   1      -8.726  89.166 115.799  0.00  0.00     0.006 C 
ENDBRANCH   8   9
BRANCH   8  11
ATOM     11  C   LIG d   1      -6.560  91.824 114.533  0.00  0.00     0.028 C 
ATOM     12  C   LIG d   1      -7.499  91.574 113.342  0.00  0.00     0.006 C 
ENDBRANCH   8  11
ENDBRANCH   7   8
ENDBRANCH   1   7
BRANCH   6  13
ATOM     13  N   LIG d   1      -3.255  90.129 118.226  0.00  0.00    -0.311 N 
ATOM     14  C   LIG d   1      -2.042  89.710 117.869  0.00  0.00     0.210 C 
ATOM     15  C   LIG d   1      -1.655  88.324 118.394  0.00  0.00     0.109 C 
ATOM     16  O   LIG d   1      -1.237  90.369 117.193  0.00  0.00    -0.276 OA
ATOM     17  H   LIG d   1      -3.828  89.544 118.802  0.00  0.00     0.149 HD
ENDBRANCH   6  13
BRANCH   5  18
ATOM     18  N   LIG d   1      -2.064  92.857 118.914  0.00  0.00     0.381 N 
ATOM     19  H   LIG d   1      -1.895  93.821 118.704  0.00  0.00    -0.090 HD
ATOM     20  H   LIG d   1      -1.570  92.297 118.241  0.00  0.00    -0.090 HD
ATOM     21  H   LIG d   1      -1.740  92.648 119.833  0.00  0.00    -0.090 HD
ENDBRANCH   5  18
BRANCH   3  22
ATOM     22  C   LIG d   1      -6.417  94.752 118.282  0.00  0.00     0.382 C 
ATOM     23  O   LIG d   1      -7.615  94.681 117.916  0.00  0.00    -0.241 OA
ATOM     24  O   LIG d   1      -5.989  95.811 118.779  0.00  0.00    -0.241 OA
ENDBRANCH   3  22
TORSDOF 7
ENDMDL
MODEL 3
REMARK VINA RESULT:      -4.7      5.638      9.149
REMARK  7 active torsions:
REMARK  status: ('A' for Active; 'I' for Inactive)
REMARK    1  A    between atoms: C_2  and  C_3 
REMARK    2  A    between atoms: C_3  and  O_6 
REMARK    3  A    between atoms: C_3  and  C_4 
REMARK    4  A    between atoms: C_7  and  O_6 
REMARK    5  A    between atoms: C_9  and  C_10 
REMARK    6  A    between atoms: N_15  and  C_14 
REMARK    7  A    between atoms: N_20  and  C_19 
REMARK       I    between atoms: C_22  and  N_20 
ROOT
ATOM      1  C   LIG d   1       1.361  87.872 116.677  0.00  0.00     0.161 C 
ATOM      2  C   LIG d   1      -0.020  87.805 116.927  0.00  0.00     0.016 C 
ATOM      3  C   LIG d   1      -0.747  88.841 117.558  0.00  0.00     0.038 C 
ATOM      4  C   LIG d   1      -0.167  90.085 117.846  0.00  0.00     0.028 C 
ATOM      5  C   LIG d   1       1.339  90.014 118.071  0.00  0.00    -0.047 C 
ATOM      6  C   LIG d   1       1.989  89.266 116.884  0.00  0.00     0.091 C 
ENDROOT
BRANCH   1   7
ATOM      7  O   LIG d   1       1.641  87.389 115.348  0.00  0.00    -0.368 OA
BRANCH   7   8
ATOM      8  C   LIG d   1       1.887  85.967 115.226  0.00  0.00     0.119 C 
BRANCH   8   9
ATOM      9  C   LIG d   1       2.851  85.564 116.359  0.00  0.00     0.028 C 
ATOM     10  C   LIG d   1       4.320  85.559 115.905  0.00  0.00     0.006 C 
ENDBRANCH   8   9
BRANCH   8  11
ATOM     11  C   LIG d   1       2.629  85.639 113.927  0.00  0.00     0.028 C 
ATOM     12  C   LIG d   1       2.460  86.726 112.854  0.00  0.00     0.006 C 
ENDBRANCH   8  11
ENDBRANCH   7   8
ENDBRANCH   1   7
BRANCH   6  13
ATOM     13  N   LIG d   1       3.452  89.078 117.065  0.00  0.00    -0.311 N 
ATOM     14  C   LIG d   1       4.342  89.273 116.094  0.00  0.00     0.210 C 
ATOM     15  C   LIG d   1       5.798  89.004 116.487  0.00  0.00     0.109 C 
ATOM     16  O   LIG d   1       4.067  89.674 114.953  0.00  0.00    -0.276 OA
ATOM     17  H   LIG d   1       3.766  88.784 117.969  0.00  0.00     0.149 HD
ENDBRANCH   6  13
BRANCH   5  18
ATOM     18  N   LIG d   1       1.833  91.395 118.225  0.00  0.00     0.381 N 
ATOM     19  H   LIG d   1       2.689  91.393 118.742  0.00  0.00    -0.090 HD
ATOM     20  H   LIG d   1       1.154  91.927 118.740  0.00  0.00    -0.090 HD
ATOM     21  H   LIG d   1       1.979  91.807 117.329  0.00  0.00    -0.090 HD
ENDBRANCH   5  18
BRANCH   3  22
ATOM     22  C   LIG d   1      -2.061  88.622 117.942  0.00  0.00     0.382 C 
ATOM     23  O   LIG d   1      -2.998  89.180 117.321  0.00  0.00    -0.241 OA
ATOM     24  O   LIG d   1      -2.320  87.908 118.930  0.00  0.00    -0.241 OA
ENDBRANCH   3  22
TORSDOF 7
ENDMDL
MODEL 4
REMARK VINA RESULT:      -4.4      7.547     10.948
REMARK  7 active torsions:
REMARK  status: ('A' for Active; 'I' for Inactive)
REMARK    1  A    between atoms: C_2  and  C_3 
REMARK    2  A    between atoms: C_3  and  O_6 
REMARK    3  A    between atoms: C_3  and  C_4 
REMARK    4  A    between atoms: C_7  and  O_6 
REMARK    5  A    between atoms: C_9  and  C_10 
REMARK    6  A    between atoms: N_15  and  C_14 
REMARK    7  A    between atoms: N_20  and  C_19 
REMARK       I    between atoms: C_22  and  N_20 
ROOT
ATOM      1  C   LIG d   1       3.570  87.238 116.689  0.00  0.00     0.161 C 
ATOM      2  C   LIG d   1       2.297  87.830 116.649  0.00  0.00     0.016 C 
ATOM      3  C   LIG d   1       2.025  89.125 117.147  0.00  0.00     0.038 C 
ATOM      4  C   LIG d   1       3.046  89.980 117.586  0.00  0.00     0.028 C 
ATOM      5  C   LIG d   1       4.271  89.240 118.113  0.00  0.00    -0.047 C 
ATOM      6  C   LIG d   1       4.719  88.198 117.062  0.00  0.00     0.091 C 
ENDROOT
BRANCH   1   7
ATOM      7  O   LIG d   1       3.848  86.590 115.432  0.00  0.00    -0.368 OA
BRANCH   7   8
ATOM      8  C   LIG d   1       3.185  87.145 114.269  0.00  0.00     0.119 C 
BRANCH   8   9
ATOM      9  C   LIG d   1       2.619  85.967 113.452  0.00  0.00     0.028 C 
ATOM     10  C   LIG d   1       3.108  85.975 111.994  0.00  0.00     0.006 C 
ENDBRANCH   8   9
BRANCH   8  11
ATOM     11  C   LIG d   1       4.184  87.841 113.338  0.00  0.00     0.028 C 
ATOM     12  C   LIG d   1       4.542  89.261 113.804  0.00  0.00     0.006 C 
ENDBRANCH   8  11
ENDBRANCH   7   8
ENDBRANCH   1   7
BRANCH   6  13
ATOM     13  N   LIG d   1       5.861  87.372 117.534  0.00  0.00    -0.311 N 
ATOM     14  C   LIG d   1       6.973  87.188 116.826  0.00  0.00     0.210 C 
ATOM     15  C   LIG d   1       8.018  86.284 117.487  0.00  0.00     0.109 C 
ATOM     16  O   LIG d   1       7.208  87.713 115.727  0.00  0.00    -0.276 OA
ATOM     17  H   LIG d   1       5.768  86.935 118.429  0.00  0.00     0.149 HD
ENDBRANCH   6  13
BRANCH   5  18
ATOM     18  N   LIG d   1       5.308  90.248 118.406  0.00  0.00     0.381 N 
ATOM     19  H   LIG d   1       6.095  89.808 118.840  0.00  0.00    -0.090 HD
ATOM     20  H   LIG d   1       4.932  90.924 119.046  0.00  0.00    -0.090 HD
ATOM     21  H   LIG d   1       5.594  90.698 117.564  0.00  0.00    -0.090 HD
ENDBRANCH   5  18
BRANCH   3  22
ATOM     22  C   LIG d   1       0.712  89.561 117.247  0.00  0.00     0.382 C 
ATOM     23  O   LIG d   1      -0.211  88.895 116.721  0.00  0.00    -0.241 OA
ATOM     24  O   LIG d   1       0.445  90.634 117.820  0.00  0.00    -0.241 OA
ENDBRANCH   3  22
TORSDOF 7
ENDMDL
MODEL 5
REMARK VINA RESULT:      -4.2      2.226      5.418
REMARK  7 active torsions:
REMARK  status: ('A' for Active; 'I' for Inactive)
REMARK    1  A    between atoms: C_2  and  C_3 
REMARK    2  A    between atoms: C_3  and  O_6 
REMARK    3  A    between atoms: C_3  and  C_4 
REMARK    4  A    between atoms: C_7  and  O_6 
REMARK    5  A    between atoms: C_9  and  C_10 
REMARK    6  A    between atoms: N_15  and  C_14 
REMARK    7  A    between atoms: N_20  and  C_19 
REMARK       I    between atoms: C_22  and  N_20 
ROOT
ATOM      1  C   LIG d   1      -4.865  92.448 117.530  0.00  0.00     0.161 C 
ATOM      2  C   LIG d   1      -4.192  93.561 118.062  0.00  0.00     0.016 C 
ATOM      3  C   LIG d   1      -4.846  94.750 118.460  0.00  0.00     0.038 C 
ATOM      4  C   LIG d   1      -6.245  94.850 118.493  0.00  0.00     0.028 C 
ATOM      5  C   LIG d   1      -6.942  93.936 117.492  0.00  0.00    -0.047 C 
ATOM      6  C   LIG d   1      -6.402  92.498 117.663  0.00  0.00     0.091 C 
ENDROOT
BRANCH   1   7
ATOM      7  O   LIG d   1      -4.350  91.238 118.119  0.00  0.00    -0.368 OA
BRANCH   7   8
ATOM      8  C   LIG d   1      -2.997  90.875 117.751  0.00  0.00     0.119 C 
BRANCH   8   9
ATOM      9  C   LIG d   1      -2.992  89.367 117.434  0.00  0.00     0.028 C 
ATOM     10  C   LIG d   1      -2.064  88.574 118.369  0.00  0.00     0.006 C 
ENDBRANCH   8   9
BRANCH   8  11
ATOM     11  C   LIG d   1      -2.034  91.045 118.930  0.00  0.00     0.028 C 
ATOM     12  C   LIG d   1      -0.690  91.666 118.516  0.00  0.00     0.006 C 
ENDBRANCH   8  11
ENDBRANCH   7   8
ENDBRANCH   1   7
BRANCH   6  13
ATOM     13  N   LIG d   1      -6.970  91.556 116.665  0.00  0.00    -0.311 N 
ATOM     14  C   LIG d   1      -6.849  91.721 115.349  0.00  0.00     0.210 C 
ATOM     15  C   LIG d   1      -7.528  90.644 114.496  0.00  0.00     0.109 C 
ATOM     16  O   LIG d   1      -6.217  92.641 114.806  0.00  0.00    -0.276 OA
ATOM     17  H   LIG d   1      -7.473  90.765 117.018  0.00  0.00     0.149 HD
ENDBRANCH   6  13
BRANCH   5  18
ATOM     18  N   LIG d   1      -8.394  94.040 117.729  0.00  0.00     0.381 N 
ATOM     19  H   LIG d   1      -8.886  93.971 116.860  0.00  0.00    -0.090 HD
ATOM     20  H   LIG d   1      -8.594  94.938 118.133  0.00  0.00    -0.090 HD
ATOM     21  H   LIG d   1      -8.692  93.317 118.346  0.00  0.00    -0.090 HD
ENDBRANCH   5  18
BRANCH   3  22
ATOM     22  C   LIG d   1      -4.097  95.868 118.792  0.00  0.00     0.382 C 
ATOM     23  O   LIG d   1      -4.656  96.985 118.911  0.00  0.00    -0.241 OA
ATOM     24  O   LIG d   1      -2.862  95.783 118.930  0.00  0.00    -0.241 OA
ENDBRANCH   3  22
TORSDOF 7
ENDMDL
MODEL 6
REMARK VINA RESULT:      -4.0      7.143     10.491
REMARK  7 active torsions:
REMARK  status: ('A' for Active; 'I' for Inactive)
REMARK    1  A    between atoms: C_2  and  C_3 
REMARK    2  A    between atoms: C_3  and  O_6 
REMARK    3  A    between atoms: C_3  and  C_4 
REMARK    4  A    between atoms: C_7  and  O_6 
REMARK    5  A    between atoms: C_9  and  C_10 
REMARK    6  A    between atoms: N_15  and  C_14 
REMARK    7  A    between atoms: N_20  and  C_19 
REMARK       I    between atoms: C_22  and  N_20 
ROOT
ATOM      1  C   LIG d   1       3.784  89.188 116.508  0.00  0.00     0.161 C 
ATOM      2  C   LIG d   1       3.180  88.838 115.289  0.00  0.00     0.016 C 
ATOM      3  C   LIG d   1       3.457  87.634 114.600  0.00  0.00     0.038 C 
ATOM      4  C   LIG d   1       4.250  86.624 115.163  0.00  0.00     0.028 C 
ATOM      5  C   LIG d   1       5.281  87.147 116.159  0.00  0.00    -0.047 C 
ATOM      6  C   LIG d   1       4.568  88.049 117.192  0.00  0.00     0.091 C 
ENDROOT
BRANCH   1   7
ATOM      7  O   LIG d   1       2.795  89.726 117.407  0.00  0.00    -0.368 OA
BRANCH   7   8
ATOM      8  C   LIG d   1       1.471  89.143 117.321  0.00  0.00     0.119 C 
BRANCH   8   9
ATOM      9  C   LIG d   1       0.458  90.235 117.717  0.00  0.00     0.028 C 
ATOM     10  C   LIG d   1      -0.963  89.925 117.218  0.00  0.00     0.006 C 
ENDBRANCH   8   9
BRANCH   8  11
ATOM     11  C   LIG d   1       1.287  88.025 118.351  0.00  0.00     0.028 C 
ATOM     12  C   LIG d   1       1.058  86.650 117.704  0.00  0.00     0.006 C 
ENDBRANCH   8  11
ENDBRANCH   7   8
ENDBRANCH   1   7
BRANCH   6  13
ATOM     13  N   LIG d   1       5.517  88.669 118.153  0.00  0.00    -0.311 N 
ATOM     14  C   LIG d   1       6.578  89.381 117.779  0.00  0.00     0.210 C 
ATOM     15  C   LIG d   1       7.437  89.915 118.930  0.00  0.00     0.109 C 
ATOM     16  O   LIG d   1       6.872  89.648 116.604  0.00  0.00    -0.276 OA
ATOM     17  H   LIG d   1       5.336  88.528 119.128  0.00  0.00     0.149 HD
ENDBRANCH   6  13
BRANCH   5  18
ATOM     18  N   LIG d   1       5.943  85.978 116.770  0.00  0.00     0.381 N 
ATOM     19  H   LIG d   1       6.918  85.988 116.550  0.00  0.00    -0.090 HD
ATOM     20  H   LIG d   1       5.541  85.140 116.387  0.00  0.00    -0.090 HD
ATOM     21  H   LIG d   1       5.817  85.994 117.758  0.00  0.00    -0.090 HD
ENDBRANCH   5  18
BRANCH   3  22
ATOM     22  C   LIG d   1       2.970  87.450 113.315  0.00  0.00     0.382 C 
ATOM     23  O   LIG d   1       2.451  88.411 112.697  0.00  0.00    -0.241 OA
ATOM     24  O   LIG d   1       3.002  86.324 112.783  0.00  0.00    -0.241 OA
ENDBRANCH   3  22
TORSDOF 7
ENDMDL
MODEL 7
REMARK VINA RESULT:      -4.0      2.326      5.879
REMARK  7 active torsions:
REMARK  status: ('A' for Active; 'I' for Inactive)
REMARK    1  A    between atoms: C_2  and  C_3 
REMARK    2  A    between atoms: C_3  and  O_6 
REMARK    3  A    between atoms: C_3  and  C_4 
REMARK    4  A    between atoms: C_7  and  O_6 
REMARK    5  A    between atoms: C_9  and  C_10 
REMARK    6  A    between atoms: N_15  and  C_14 
REMARK    7  A    between atoms: N_20  and  C_19 
REMARK       I    between atoms: C_22  and  N_20 
ROOT
ATOM      1  C   LIG d   1      -4.978  92.588 117.691  0.00  0.00     0.161 C 
ATOM      2  C   LIG d   1      -5.292  93.782 118.361  0.00  0.00     0.016 C 
ATOM      3  C   LIG d   1      -6.367  94.622 117.992  0.00  0.00     0.038 C 
ATOM      4  C   LIG d   1      -7.301  94.245 117.014  0.00  0.00     0.028 C 
ATOM      5  C   LIG d   1      -6.732  93.290 115.971  0.00  0.00    -0.047 C 
ATOM      6  C   LIG d   1      -6.051  92.105 116.693  0.00  0.00     0.091 C 
ENDROOT
BRANCH   1   7
ATOM      7  O   LIG d   1      -4.682  91.553 118.650  0.00  0.00    -0.368 OA
BRANCH   7   8
ATOM      8  C   LIG d   1      -3.292  91.159 118.754  0.00  0.00     0.119 C 
BRANCH   8   9
ATOM      9  C   LIG d   1      -2.439  92.321 118.209  0.00  0.00     0.028 C 
ATOM     10  C   LIG d   1      -1.047  92.383 118.861  0.00  0.00     0.006 C 
ENDBRANCH   8   9
BRANCH   8  11
ATOM     11  C   LIG d   1      -2.981  89.967 117.843  0.00  0.00     0.028 C 
ATOM     12  C   LIG d   1      -2.173  88.870 118.553  0.00  0.00     0.006 C 
ENDBRANCH   8  11
ENDBRANCH   7   8
ENDBRANCH   1   7
BRANCH   6  13
ATOM     13  N   LIG d   1      -5.395  91.165 115.747  0.00  0.00    -0.311 N 
ATOM     14  C   LIG d   1      -5.937  90.009 115.368  0.00  0.00     0.210 C 
ATOM     15  C   LIG d   1      -5.084  89.182 114.401  0.00  0.00     0.109 C 
ATOM     16  O   LIG d   1      -7.056  89.605 115.716  0.00  0.00    -0.276 OA
ATOM     17  H   LIG d   1      -4.497  91.429 115.391  0.00  0.00     0.149 HD
ENDBRANCH   6  13
BRANCH   5  18
ATOM     18  N   LIG d   1      -7.844  92.872 115.097  0.00  0.00     0.381 N 
ATOM     19  H   LIG d   1      -7.483  92.406 114.288  0.00  0.00    -0.090 HD
ATOM     20  H   LIG d   1      -8.344  93.689 114.793  0.00  0.00    -0.090 HD
ATOM     21  H   LIG d   1      -8.458  92.263 115.593  0.00  0.00    -0.090 HD
ENDBRANCH   5  18
BRANCH   3  22
ATOM     22  C   LIG d   1      -6.495  95.873 118.576  0.00  0.00     0.382 C 
ATOM     23  O   LIG d   1      -5.471  96.507 118.930  0.00  0.00    -0.241 OA
ATOM     24  O   LIG d   1      -7.621  96.358 118.794  0.00  0.00    -0.241 OA
ENDBRANCH   3  22
TORSDOF 7
ENDMDL
MODEL 8
REMARK VINA RESULT:      -3.5      1.935      5.038
REMARK  7 active torsions:
REMARK  status: ('A' for Active; 'I' for Inactive)
REMARK    1  A    between atoms: C_2  and  C_3 
REMARK    2  A    between atoms: C_3  and  O_6 
REMARK    3  A    between atoms: C_3  and  C_4 
REMARK    4  A    between atoms: C_7  and  O_6 
REMARK    5  A    between atoms: C_9  and  C_10 
REMARK    6  A    between atoms: N_15  and  C_14 
REMARK    7  A    between atoms: N_20  and  C_19 
REMARK       I    between atoms: C_22  and  N_20 
ROOT
ATOM      1  C   LIG d   1      -6.625  92.034 118.002  0.00  0.00     0.161 C 
ATOM      2  C   LIG d   1      -7.633  93.013 117.967  0.00  0.00     0.016 C 
ATOM      3  C   LIG d   1      -7.396  94.383 118.224  0.00  0.00     0.038 C 
ATOM      4  C   LIG d   1      -6.100  94.894 118.386  0.00  0.00     0.028 C 
ATOM      5  C   LIG d   1      -5.109  93.870 118.929  0.00  0.00    -0.047 C 
ATOM      6  C   LIG d   1      -5.187  92.589 118.067  0.00  0.00     0.091 C 
ENDROOT
BRANCH   1   7
ATOM      7  O   LIG d   1      -6.768  91.145 116.877  0.00  0.00    -0.368 OA
BRANCH   7   8
ATOM      8  C   LIG d   1      -6.486  91.714 115.575  0.00  0.00     0.119 C 
BRANCH   8   9
ATOM      9  C   LIG d   1      -7.817  91.784 114.801  0.00  0.00     0.028 C 
ATOM     10  C   LIG d   1      -7.645  91.461 113.307  0.00  0.00     0.006 C 
ENDBRANCH   8   9
BRANCH   8  11
ATOM     11  C   LIG d   1      -5.584  90.793 114.748  0.00  0.00     0.028 C 
ATOM     12  C   LIG d   1      -4.922  89.692 115.592  0.00  0.00     0.006 C 
ENDBRANCH   8  11
ENDBRANCH   7   8
ENDBRANCH   1   7
BRANCH   6  13
ATOM     13  N   LIG d   1      -4.310  91.505 118.582  0.00  0.00    -0.311 N 
ATOM     14  C   LIG d   1      -3.007  91.428 118.315  0.00  0.00     0.210 C 
ATOM     15  C   LIG d   1      -2.292  90.220 118.928  0.00  0.00     0.109 C 
ATOM     16  O   LIG d   1      -2.369  92.263 117.656  0.00  0.00    -0.276 OA
ATOM     17  H   LIG d   1      -4.739  90.803 119.151  0.00  0.00     0.149 HD
ENDBRANCH   6  13
BRANCH   5  18
ATOM     18  N   LIG d   1      -3.772  94.494 118.918  0.00  0.00     0.381 N 
ATOM     19  H   LIG d   1      -3.765  95.291 119.523  0.00  0.00    -0.090 HD
ATOM     20  H   LIG d   1      -3.566  94.804 117.985  0.00  0.00    -0.090 HD
ATOM     21  H   LIG d   1      -3.086  93.836 119.216  0.00  0.00    -0.090 HD
ENDBRANCH   5  18
BRANCH   3  22
ATOM     22  C   LIG d   1      -8.468  95.252 118.360  0.00  0.00     0.382 C 
ATOM     23  O   LIG d   1      -9.525  94.861 118.912  0.00  0.00    -0.241 OA
ATOM     24  O   LIG d   1      -8.408  96.407 117.899  0.00  0.00    -0.241 OA
ENDBRANCH   3  22
TORSDOF 7
ENDMDL
MODEL 9
REMARK VINA RESULT:      -3.4      2.087      4.953
REMARK  7 active torsions:
REMARK  status: ('A' for Active; 'I' for Inactive)
REMARK    1  A    between atoms: C_2  and  C_3 
REMARK    2  A    between atoms: C_3  and  O_6 
REMARK    3  A    between atoms: C_3  and  C_4 
REMARK    4  A    between atoms: C_7  and  O_6 
REMARK    5  A    between atoms: C_9  and  C_10 
REMARK    6  A    between atoms: N_15  and  C_14 
REMARK    7  A    between atoms: N_20  and  C_19 
REMARK       I    between atoms: C_22  and  N_20 
ROOT
ATOM      1  C   LIG d   1      -4.358  91.216 116.806  0.00  0.00     0.161 C 
ATOM      2  C   LIG d   1      -3.626  92.218 117.465  0.00  0.00     0.016 C 
ATOM      3  C   LIG d   1      -4.226  93.239 118.238  0.00  0.00     0.038 C 
ATOM      4  C   LIG d   1      -5.598  93.239 118.529  0.00  0.00     0.028 C 
ATOM      5  C   LIG d   1      -6.442  92.536 117.471  0.00  0.00    -0.047 C 
ATOM      6  C   LIG d   1      -5.847  91.135 117.203  0.00  0.00     0.091 C 
ENDROOT
BRANCH   1   7
ATOM      7  O   LIG d   1      -3.718  89.938 116.996  0.00  0.00    -0.368 OA
BRANCH   7   8
ATOM      8  C   LIG d   1      -2.645  89.901 117.969  0.00  0.00     0.119 C 
BRANCH   8   9
ATOM      9  C   LIG d   1      -1.335  89.632 117.203  0.00  0.00     0.028 C 
ATOM     10  C   LIG d   1      -0.309  90.764 117.378  0.00  0.00     0.006 C 
ENDBRANCH   8   9
BRANCH   8  11
ATOM     11  C   LIG d   1      -2.804  88.719 118.929  0.00  0.00     0.028 C 
ATOM     12  C   LIG d   1      -1.593  87.773 118.915  0.00  0.00     0.006 C 
ENDBRANCH   8  11
ENDBRANCH   7   8
ENDBRANCH   1   7
BRANCH   6  13
ATOM     13  N   LIG d   1      -6.563  90.412 116.120  0.00  0.00    -0.311 N 
ATOM     14  C   LIG d   1      -7.053  91.013 115.037  0.00  0.00     0.210 C 
ATOM     15  C   LIG d   1      -7.773  90.086 114.053  0.00  0.00     0.109 C 
ATOM     16  O   LIG d   1      -6.931  92.221 114.783  0.00  0.00    -0.276 OA
ATOM     17  H   LIG d   1      -6.679  89.424 116.230  0.00  0.00     0.149 HD
ENDBRANCH   6  13
BRANCH   5  18
ATOM     18  N   LIG d   1      -7.831  92.489 117.967  0.00  0.00     0.381 N 
ATOM     19  H   LIG d   1      -8.430  92.993 117.345  0.00  0.00    -0.090 HD
ATOM     20  H   LIG d   1      -7.869  92.931 118.869  0.00  0.00    -0.090 HD
ATOM     21  H   LIG d   1      -8.135  91.543 118.040  0.00  0.00    -0.090 HD
ENDBRANCH   5  18
BRANCH   3  22
ATOM     22  C   LIG d   1      -3.456  94.297 118.695  0.00  0.00     0.382 C 
ATOM     23  O   LIG d   1      -2.235  94.128 118.930  0.00  0.00    -0.241 OA
ATOM     24  O   LIG d   1      -3.976  95.407 118.917  0.00  0.00    -0.241 OA
ENDBRANCH   3  22
TORSDOF 7
ENDMDL
