MODEL 1
REMARK VINA RESULT:      -4.8      0.000      0.000
REMARK  7 active torsions:
REMARK  status: ('A' for Active; 'I' for Inactive)
REMARK    1  A    between atoms: C_2  and  C_3 
REMARK    2  A    between atoms: C_3  and  O_6 
REMARK    3  A    between atoms: C_3  and  C_4 
REMARK    4  A    between atoms: C_7  and  O_6 
REMARK    5  A    between atoms: C_9  and  C_10 
REMARK    6  A    between atoms: N_15  and  C_14 
REMARK    7  A    between atoms: N_20  and  C_19 
REMARK       I    between atoms: C_22  and  N_20 
ROOT
ATOM      1  C   LIG d   1       4.105  88.432 115.375  0.00  0.00     0.161 C 
ATOM      2  C   LIG d   1       3.359  87.950 114.287  0.00  0.00     0.016 C 
ATOM      3  C   LIG d   1       3.866  87.872 112.969  0.00  0.00     0.038 C 
ATOM      4  C   LIG d   1       5.213  88.132 112.676  0.00  0.00     0.028 C 
ATOM      5  C   LIG d   1       5.868  89.104 113.651  0.00  0.00    -0.047 C 
ATOM      6  C   LIG d   1       5.612  88.616 115.095  0.00  0.00     0.091 C 
ENDROOT
BRANCH   1   7
ATOM      7  O   LIG d   1       3.909  87.578 116.519  0.00  0.00    -0.368 OA
BRANCH   7   8
ATOM      8  C   LIG d   1       3.166  88.153 117.623  0.00  0.00     0.119 C 
BRANCH   8   9
ATOM      9  C   LIG d   1       2.918  89.637 117.291  0.00  0.00     0.028 C 
ATOM     10  C   LIG d   1       3.317  90.571 118.446  0.00  0.00     0.006 C 
ENDBRANCH   8   9
BRANCH   8  11
ATOM     11  C   LIG d   1       3.995  88.158 118.910  0.00  0.00     0.028 C 
ATOM     12  C   LIG d   1       5.072  87.061 118.930  0.00  0.00     0.006 C 
ENDBRANCH   8  11
ENDBRANCH   7   8
ENDBRANCH   1   7
BRANCH   6  13
ATOM     13  N   LIG d   1       6.147  89.556 116.115  0.00  0.00    -0.311 N 
ATOM     14  C   LIG d   1       7.152  89.253 116.935  0.00  0.00     0.210 C 
ATOM     15  C   LIG d   1       7.535  90.358 117.924  0.00  0.00     0.109 C 
ATOM     16  O   LIG d   1       7.784  88.186 116.916  0.00  0.00    -0.276 OA
ATOM     17  H   LIG d   1       5.713  90.456 116.178  0.00  0.00     0.149 HD
ENDBRANCH   6  13
BRANCH   5  18
ATOM     18  N   LIG d   1       7.302  89.178 113.312  0.00  0.00     0.381 N 
ATOM     19  H   LIG d   1       7.557  90.127 113.125  0.00  0.00    -0.090 HD
ATOM     20  H   LIG d   1       7.467  88.638 112.481  0.00  0.00    -0.090 HD
ATOM     21  H   LIG d   1       7.849  88.821 114.064  0.00  0.00    -0.090 HD
ENDBRANCH   5  18
BRANCH   3  22
ATOM     22  C   LIG d   1       3.011  87.568 111.921  0.00  0.00     0.382 C 
ATOM     23  O   LIG d   1       3.006  86.414 111.430  0.00  0.00    -0.241 OA
ATOM     24  O   LIG d   1       2.277  88.447 111.430  0.00  0.00    -0.241 OA
ENDBRANCH   3  22
TORSDOF 7
ENDMDL
MODEL 2
REMARK VINA RESULT:      -4.8      1.373      2.123
REMARK  7 active torsions:
REMARK  status: ('A' for Active; 'I' for Inactive)
REMARK    1  A    between atoms: C_2  and  C_3 
REMARK    2  A    between atoms: C_3  and  O_6 
REMARK    3  A    between atoms: C_3  and  C_4 
REMARK    4  A    between atoms: C_7  and  O_6 
REMARK    5  A    between atoms: C_9  and  C_10 
REMARK    6  A    between atoms: N_15  and  C_14 
REMARK    7  A    between atoms: N_20  and  C_19 
REMARK       I    between atoms: C_22  and  N_20 
ROOT
ATOM      1  C   LIG d   1       4.392  87.573 115.381  0.00  0.00     0.161 C 
ATOM      2  C   LIG d   1       3.593  87.312 114.256  0.00  0.00     0.016 C 
ATOM      3  C   LIG d   1       3.972  87.650 112.937  0.00  0.00     0.038 C 
ATOM      4  C   LIG d   1       5.252  88.138 112.635  0.00  0.00     0.028 C 
ATOM      5  C   LIG d   1       5.903  88.887 113.794  0.00  0.00    -0.047 C 
ATOM      6  C   LIG d   1       5.838  88.004 115.061  0.00  0.00     0.091 C 
ENDROOT
BRANCH   1   7
ATOM      7  O   LIG d   1       4.393  86.428 116.257  0.00  0.00    -0.368 OA
BRANCH   7   8
ATOM      8  C   LIG d   1       3.782  86.619 117.557  0.00  0.00     0.119 C 
BRANCH   8   9
ATOM      9  C   LIG d   1       2.786  85.464 117.774  0.00  0.00     0.028 C 
ATOM     10  C   LIG d   1       1.529  85.599 116.898  0.00  0.00     0.006 C 
ENDBRANCH   8   9
BRANCH   8  11
ATOM     11  C   LIG d   1       2.937  87.896 117.593  0.00  0.00     0.028 C 
ATOM     12  C   LIG d   1       3.166  88.726 118.866  0.00  0.00     0.006 C 
ENDBRANCH   8  11
ENDBRANCH   7   8
ENDBRANCH   1   7
BRANCH   6  13
ATOM     13  N   LIG d   1       6.378  88.696 116.261  0.00  0.00    -0.311 N 
ATOM     14  C   LIG d   1       5.908  89.858 116.711  0.00  0.00     0.210 C 
ATOM     15  C   LIG d   1       6.620  90.406 117.951  0.00  0.00     0.109 C 
ATOM     16  O   LIG d   1       4.948  90.470 116.220  0.00  0.00    -0.276 OA
ATOM     17  H   LIG d   1       7.138  88.253 116.739  0.00  0.00     0.149 HD
ENDBRANCH   6  13
BRANCH   5  18
ATOM     18  N   LIG d   1       7.282  89.220 113.390  0.00  0.00     0.381 N 
ATOM     19  H   LIG d   1       7.390  89.081 112.406  0.00  0.00    -0.090 HD
ATOM     20  H   LIG d   1       7.918  88.606 113.868  0.00  0.00    -0.090 HD
ATOM     21  H   LIG d   1       7.486  90.167 113.623  0.00  0.00    -0.090 HD
ENDBRANCH   5  18
BRANCH   3  22
ATOM     22  C   LIG d   1       3.051  87.536 111.906  0.00  0.00     0.382 C 
ATOM     23  O   LIG d   1       2.464  88.558 111.475  0.00  0.00    -0.241 OA
ATOM     24  O   LIG d   1       2.767  86.420 111.433  0.00  0.00    -0.241 OA
ENDBRANCH   3  22
TORSDOF 7
ENDMDL
MODEL 3
REMARK VINA RESULT:      -4.6      1.646      4.878
REMARK  7 active torsions:
REMARK  status: ('A' for Active; 'I' for Inactive)
REMARK    1  A    between atoms: C_2  and  C_3 
REMARK    2  A    between atoms: C_3  and  O_6 
REMARK    3  A    between atoms: C_3  and  C_4 
REMARK    4  A    between atoms: C_7  and  O_6 
REMARK    5  A    between atoms: C_9  and  C_10 
REMARK    6  A    between atoms: N_15  and  C_14 
REMARK    7  A    between atoms: N_20  and  C_19 
REMARK       I    between atoms: C_22  and  N_20 
ROOT
ATOM      1  C   LIG d   1       5.168  87.035 115.576  0.00  0.00     0.161 C 
ATOM      2  C   LIG d   1       6.157  87.456 116.480  0.00  0.00     0.016 C 
ATOM      3  C   LIG d   1       7.118  88.448 116.176  0.00  0.00     0.038 C 
ATOM      4  C   LIG d   1       7.060  89.197 114.992  0.00  0.00     0.028 C 
ATOM      5  C   LIG d   1       6.386  88.459 113.840  0.00  0.00    -0.047 C 
ATOM      6  C   LIG d   1       5.020  87.919 114.321  0.00  0.00     0.091 C 
ENDROOT
BRANCH   1   7
ATOM      7  O   LIG d   1       3.903  86.915 116.257  0.00  0.00    -0.368 OA
BRANCH   7   8
ATOM      8  C   LIG d   1       2.993  88.033 116.111  0.00  0.00     0.119 C 
BRANCH   8   9
ATOM      9  C   LIG d   1       3.086  88.877 117.397  0.00  0.00     0.028 C 
ATOM     10  C   LIG d   1       3.697  90.265 117.145  0.00  0.00     0.006 C 
ENDBRANCH   8   9
BRANCH   8  11
ATOM     11  C   LIG d   1       1.537  87.561 116.040  0.00  0.00     0.028 C 
ATOM     12  C   LIG d   1       1.380  86.223 115.300  0.00  0.00     0.006 C 
ENDBRANCH   8  11
ENDBRANCH   7   8
ENDBRANCH   1   7
BRANCH   6  13
ATOM     13  N   LIG d   1       4.332  87.112 113.280  0.00  0.00    -0.311 N 
ATOM     14  C   LIG d   1       3.443  87.619 112.427  0.00  0.00     0.210 C 
ATOM     15  C   LIG d   1       2.837  86.608 111.448  0.00  0.00     0.109 C 
ATOM     16  O   LIG d   1       3.123  88.815 112.367  0.00  0.00    -0.276 OA
ATOM     17  H   LIG d   1       4.555  86.137 113.237  0.00  0.00     0.149 HD
ENDBRANCH   6  13
BRANCH   5  18
ATOM     18  N   LIG d   1       6.271  89.403 112.712  0.00  0.00     0.381 N 
ATOM     19  H   LIG d   1       5.436  89.212 112.194  0.00  0.00    -0.090 HD
ATOM     20  H   LIG d   1       7.058  89.277 112.100  0.00  0.00    -0.090 HD
ATOM     21  H   LIG d   1       6.252  90.340 113.052  0.00  0.00    -0.090 HD
ENDBRANCH   5  18
BRANCH   3  22
ATOM     22  C   LIG d   1       8.175  88.670 117.045  0.00  0.00     0.382 C 
ATOM     23  O   LIG d   1       8.671  87.713 117.687  0.00  0.00    -0.241 OA
ATOM     24  O   LIG d   1       8.610  89.823 117.229  0.00  0.00    -0.241 OA
ENDBRANCH   3  22
TORSDOF 7
ENDMDL
MODEL 4
REMARK VINA RESULT:      -4.4      2.252      5.002
REMARK  7 active torsions:
REMARK  status: ('A' for Active; 'I' for Inactive)
REMARK    1  A    between atoms: C_2  and  C_3 
REMARK    2  A    between atoms: C_3  and  O_6 
REMARK    3  A    between atoms: C_3  and  C_4 
REMARK    4  A    between atoms: C_7  and  O_6 
REMARK    5  A    between atoms: C_9  and  C_10 
REMARK    6  A    between atoms: N_15  and  C_14 
REMARK    7  A    between atoms: N_20  and  C_19 
REMARK       I    between atoms: C_22  and  N_20 
ROOT
ATOM      1  C   LIG d   1       3.809  89.209 115.850  0.00  0.00     0.161 C 
ATOM      2  C   LIG d   1       2.619  89.832 116.261  0.00  0.00     0.016 C 
ATOM      3  C   LIG d   1       2.503  90.576 117.458  0.00  0.00     0.038 C 
ATOM      4  C   LIG d   1       3.617  90.874 118.256  0.00  0.00     0.028 C 
ATOM      5  C   LIG d   1       4.735  89.843 118.146  0.00  0.00    -0.047 C 
ATOM      6  C   LIG d   1       5.063  89.616 116.652  0.00  0.00     0.091 C 
ENDROOT
BRANCH   1   7
ATOM      7  O   LIG d   1       4.019  89.435 114.442  0.00  0.00    -0.368 OA
BRANCH   7   8
ATOM      8  C   LIG d   1       3.755  88.310 113.569  0.00  0.00     0.119 C 
BRANCH   8   9
ATOM      9  C   LIG d   1       3.645  87.053 114.454  0.00  0.00     0.028 C 
ATOM     10  C   LIG d   1       3.972  85.763 113.684  0.00  0.00     0.006 C 
ENDBRANCH   8   9
BRANCH   8  11
ATOM     11  C   LIG d   1       4.935  88.043 112.631  0.00  0.00     0.028 C 
ATOM     12  C   LIG d   1       6.134  88.965 112.904  0.00  0.00     0.006 C 
ENDBRANCH   8  11
ENDBRANCH   7   8
ENDBRANCH   1   7
BRANCH   6  13
ATOM     13  N   LIG d   1       6.088  88.560 116.451  0.00  0.00    -0.311 N 
ATOM     14  C   LIG d   1       7.398  88.802 116.440  0.00  0.00     0.210 C 
ATOM     15  C   LIG d   1       8.281  87.574 116.197  0.00  0.00     0.109 C 
ATOM     16  O   LIG d   1       7.914  89.912 116.641  0.00  0.00    -0.276 OA
ATOM     17  H   LIG d   1       5.759  87.625 116.312  0.00  0.00     0.149 HD
ENDBRANCH   6  13
BRANCH   5  18
ATOM     18  N   LIG d   1       5.885  90.348 118.920  0.00  0.00     0.381 N 
ATOM     19  H   LIG d   1       6.577  89.631 119.004  0.00  0.00    -0.090 HD
ATOM     20  H   LIG d   1       5.572  90.594 119.843  0.00  0.00    -0.090 HD
ATOM     21  H   LIG d   1       6.275  91.146 118.469  0.00  0.00    -0.090 HD
ENDBRANCH   5  18
BRANCH   3  22
ATOM     22  C   LIG d   1       1.253  90.995 117.887  0.00  0.00     0.382 C 
ATOM     23  O   LIG d   1       0.217  90.485 117.396  0.00  0.00    -0.241 OA
ATOM     24  O   LIG d   1       1.148  91.909 118.727  0.00  0.00    -0.241 OA
ENDBRANCH   3  22
TORSDOF 7
ENDMDL
MODEL 5
REMARK VINA RESULT:      -4.4      2.140      4.746
REMARK  7 active torsions:
REMARK  status: ('A' for Active; 'I' for Inactive)
REMARK    1  A    between atoms: C_2  and  C_3 
REMARK    2  A    between atoms: C_3  and  O_6 
REMARK    3  A    between atoms: C_3  and  C_4 
REMARK    4  A    between atoms: C_7  and  O_6 
REMARK    5  A    between atoms: C_9  and  C_10 
REMARK    6  A    between atoms: N_15  and  C_14 
REMARK    7  A    between atoms: N_20  and  C_19 
REMARK       I    between atoms: C_22  and  N_20 
ROOT
ATOM      1  C   LIG d   1       4.155  87.572 115.787  0.00  0.00     0.161 C 
ATOM      2  C   LIG d   1       3.006  88.374 115.880  0.00  0.00     0.016 C 
ATOM      3  C   LIG d   1       2.830  89.369 116.868  0.00  0.00     0.038 C 
ATOM      4  C   LIG d   1       3.863  89.737 117.743  0.00  0.00     0.028 C 
ATOM      5  C   LIG d   1       4.857  88.612 118.013  0.00  0.00    -0.047 C 
ATOM      6  C   LIG d   1       5.339  88.033 116.663  0.00  0.00     0.091 C 
ENDROOT
BRANCH   1   7
ATOM      7  O   LIG d   1       4.564  87.464 114.409  0.00  0.00    -0.368 OA
BRANCH   7   8
ATOM      8  C   LIG d   1       4.089  88.503 113.519  0.00  0.00     0.119 C 
BRANCH   8   9
ATOM      9  C   LIG d   1       3.508  87.813 112.270  0.00  0.00     0.028 C 
ATOM     10  C   LIG d   1       4.347  86.604 111.823  0.00  0.00     0.006 C 
ENDBRANCH   8   9
BRANCH   8  11
ATOM     11  C   LIG d   1       5.244  89.368 113.005  0.00  0.00     0.028 C 
ATOM     12  C   LIG d   1       6.614  88.898 113.518  0.00  0.00     0.006 C 
ENDBRANCH   8  11
ENDBRANCH   7   8
ENDBRANCH   1   7
BRANCH   6  13
ATOM     13  N   LIG d   1       6.250  86.872 116.836  0.00  0.00    -0.311 N 
ATOM     14  C   LIG d   1       7.578  86.971 116.806  0.00  0.00     0.210 C 
ATOM     15  C   LIG d   1       8.329  85.648 116.986  0.00  0.00     0.109 C 
ATOM     16  O   LIG d   1       8.205  88.033 116.679  0.00  0.00    -0.276 OA
ATOM     17  H   LIG d   1       5.825  85.976 116.976  0.00  0.00     0.149 HD
ENDBRANCH   6  13
BRANCH   5  18
ATOM     18  N   LIG d   1       5.953  89.170 118.827  0.00  0.00     0.381 N 
ATOM     19  H   LIG d   1       5.989  88.705 119.711  0.00  0.00    -0.090 HD
ATOM     20  H   LIG d   1       5.772  90.145 118.991  0.00  0.00    -0.090 HD
ATOM     21  H   LIG d   1       6.821  89.062 118.350  0.00  0.00    -0.090 HD
ENDBRANCH   5  18
BRANCH   3  22
ATOM     22  C   LIG d   1       1.595  89.982 117.014  0.00  0.00     0.382 C 
ATOM     23  O   LIG d   1       0.575  89.470 116.493  0.00  0.00    -0.241 OA
ATOM     24  O   LIG d   1       1.494  91.065 117.623  0.00  0.00    -0.241 OA
ENDBRANCH   3  22
TORSDOF 7
ENDMDL
MODEL 6
REMARK VINA RESULT:      -4.3      1.838      5.099
REMARK  7 active torsions:
REMARK  status: ('A' for Active; 'I' for Inactive)
REMARK    1  A    between atoms: C_2  and  C_3 
REMARK    2  A    between atoms: C_3  and  O_6 
REMARK    3  A    between atoms: C_3  and  C_4 
REMARK    4  A    between atoms: C_7  and  O_6 
REMARK    5  A    between atoms: C_9  and  C_10 
REMARK    6  A    between atoms: N_15  and  C_14 
REMARK    7  A    between atoms: N_20  and  C_19 
REMARK       I    between atoms: C_22  and  N_20 
ROOT
ATOM      1  C   LIG d   1       4.275  88.357 115.564  0.00  0.00     0.161 C 
ATOM      2  C   LIG d   1       4.812  88.929 116.729  0.00  0.00     0.016 C 
ATOM      3  C   LIG d   1       6.107  89.493 116.793  0.00  0.00     0.038 C 
ATOM      4  C   LIG d   1       6.901  89.660 115.648  0.00  0.00     0.028 C 
ATOM      5  C   LIG d   1       6.604  88.642 114.552  0.00  0.00    -0.047 C 
ATOM      6  C   LIG d   1       5.082  88.629 114.277  0.00  0.00     0.091 C 
ENDROOT
BRANCH   1   7
ATOM      7  O   LIG d   1       2.908  88.782 115.396  0.00  0.00    -0.368 OA
BRANCH   7   8
ATOM      8  C   LIG d   1       1.993  88.418 116.459  0.00  0.00     0.119 C 
BRANCH   8   9
ATOM      9  C   LIG d   1       1.244  87.148 116.011  0.00  0.00     0.028 C 
ATOM     10  C   LIG d   1       1.683  85.900 116.796  0.00  0.00     0.006 C 
ENDBRANCH   8   9
BRANCH   8  11
ATOM     11  C   LIG d   1       0.908  89.483 116.649  0.00  0.00     0.028 C 
ATOM     12  C   LIG d   1       1.409  90.714 117.419  0.00  0.00     0.006 C 
ENDBRANCH   8  11
ENDBRANCH   7   8
ENDBRANCH   1   7
BRANCH   6  13
ATOM     13  N   LIG d   1       4.695  87.601 113.277  0.00  0.00    -0.311 N 
ATOM     14  C   LIG d   1       3.748  87.790 112.359  0.00  0.00     0.210 C 
ATOM     15  C   LIG d   1       3.492  86.594 111.438  0.00  0.00     0.109 C 
ATOM     16  O   LIG d   1       3.119  88.847 112.201  0.00  0.00    -0.276 OA
ATOM     17  H   LIG d   1       5.177  86.724 113.314  0.00  0.00     0.149 HD
ENDBRANCH   6  13
BRANCH   5  18
ATOM     18  N   LIG d   1       7.401  89.016 113.368  0.00  0.00     0.381 N 
ATOM     19  H   LIG d   1       6.971  89.789 112.900  0.00  0.00    -0.090 HD
ATOM     20  H   LIG d   1       7.426  88.237 112.734  0.00  0.00    -0.090 HD
ATOM     21  H   LIG d   1       8.327  89.258 113.644  0.00  0.00    -0.090 HD
ENDBRANCH   5  18
BRANCH   3  22
ATOM     22  C   LIG d   1       6.637  89.861 118.020  0.00  0.00     0.382 C 
ATOM     23  O   LIG d   1       6.351  90.977 118.517  0.00  0.00    -0.241 OA
ATOM     24  O   LIG d   1       7.432  89.110 118.616  0.00  0.00    -0.241 OA
ENDBRANCH   3  22
TORSDOF 7
ENDMDL
MODEL 7
REMARK VINA RESULT:      -4.1      1.825      4.776
REMARK  7 active torsions:
REMARK  status: ('A' for Active; 'I' for Inactive)
REMARK    1  A    between atoms: C_2  and  C_3 
REMARK    2  A    between atoms: C_3  and  O_6 
REMARK    3  A    between atoms: C_3  and  C_4 
REMARK    4  A    between atoms: C_7  and  O_6 
REMARK    5  A    between atoms: C_9  and  C_10 
REMARK    6  A    between atoms: N_15  and  C_14 
REMARK    7  A    between atoms: N_20  and  C_19 
REMARK       I    between atoms: C_22  and  N_20 
ROOT
ATOM      1  C   LIG d   1       4.359  89.123 115.847  0.00  0.00     0.161 C 
ATOM      2  C   LIG d   1       5.176  88.949 116.976  0.00  0.00     0.016 C 
ATOM      3  C   LIG d   1       6.583  88.823 116.906  0.00  0.00     0.038 C 
ATOM      4  C   LIG d   1       7.286  89.015 115.708  0.00  0.00     0.028 C 
ATOM      5  C   LIG d   1       6.464  88.691 114.465  0.00  0.00    -0.047 C 
ATOM      6  C   LIG d   1       5.117  89.446 114.543  0.00  0.00     0.091 C 
ENDROOT
BRANCH   1   7
ATOM      7  O   LIG d   1       3.366  90.134 116.113  0.00  0.00    -0.368 OA
BRANCH   7   8
ATOM      8  C   LIG d   1       2.467  89.869 117.218  0.00  0.00     0.119 C 
BRANCH   8   9
ATOM      9  C   LIG d   1       1.056  89.675 116.630  0.00  0.00     0.028 C 
ATOM     10  C   LIG d   1       0.058  90.728 117.140  0.00  0.00     0.006 C 
ENDBRANCH   8   9
BRANCH   8  11
ATOM     11  C   LIG d   1       2.356  91.081 118.148  0.00  0.00     0.028 C 
ATOM     12  C   LIG d   1       3.599  91.983 118.104  0.00  0.00     0.006 C 
ENDBRANCH   8  11
ENDBRANCH   7   8
ENDBRANCH   1   7
BRANCH   6  13
ATOM     13  N   LIG d   1       4.217  89.118 113.406  0.00  0.00    -0.311 N 
ATOM     14  C   LIG d   1       3.874  87.874 113.078  0.00  0.00     0.210 C 
ATOM     15  C   LIG d   1       2.952  87.757 111.860  0.00  0.00     0.109 C 
ATOM     16  O   LIG d   1       4.220  86.858 113.699  0.00  0.00    -0.276 OA
ATOM     17  H   LIG d   1       3.865  89.885 112.867  0.00  0.00     0.149 HD
ENDBRANCH   6  13
BRANCH   5  18
ATOM     18  N   LIG d   1       7.269  89.066 113.287  0.00  0.00     0.381 N 
ATOM     19  H   LIG d   1       7.925  88.339 113.080  0.00  0.00    -0.090 HD
ATOM     20  H   LIG d   1       7.783  89.903 113.498  0.00  0.00    -0.090 HD
ATOM     21  H   LIG d   1       6.675  89.221 112.503  0.00  0.00    -0.090 HD
ENDBRANCH   5  18
BRANCH   3  22
ATOM     22  C   LIG d   1       7.298  88.463 118.038  0.00  0.00     0.382 C 
ATOM     23  O   LIG d   1       7.664  87.273 118.196  0.00  0.00    -0.241 OA
ATOM     24  O   LIG d   1       7.542  89.303 118.925  0.00  0.00    -0.241 OA
ENDBRANCH   3  22
TORSDOF 7
ENDMDL
MODEL 8
REMARK VINA RESULT:      -4.1      2.505      5.244
REMARK  7 active torsions:
REMARK  status: ('A' for Active; 'I' for Inactive)
REMARK    1  A    between atoms: C_2  and  C_3 
REMARK    2  A    between atoms: C_3  and  O_6 
REMARK    3  A    between atoms: C_3  and  C_4 
REMARK    4  A    between atoms: C_7  and  O_6 
REMARK    5  A    between atoms: C_9  and  C_10 
REMARK    6  A    between atoms: N_15  and  C_14 
REMARK    7  A    between atoms: N_20  and  C_19 
REMARK       I    between atoms: C_22  and  N_20 
ROOT
ATOM      1  C   LIG d   1       5.370  88.889 115.143  0.00  0.00     0.161 C 
ATOM      2  C   LIG d   1       5.176  89.948 116.045  0.00  0.00     0.016 C 
ATOM      3  C   LIG d   1       3.988  90.127 116.792  0.00  0.00     0.038 C 
ATOM      4  C   LIG d   1       2.966  89.166 116.799  0.00  0.00     0.028 C 
ATOM      5  C   LIG d   1       2.904  88.338 115.520  0.00  0.00    -0.047 C 
ATOM      6  C   LIG d   1       4.310  87.770 115.221  0.00  0.00     0.091 C 
ENDROOT
BRANCH   1   7
ATOM      7  O   LIG d   1       6.692  88.339 115.313  0.00  0.00    -0.368 OA
BRANCH   7   8
ATOM      8  C   LIG d   1       7.055  87.958 116.662  0.00  0.00     0.119 C 
BRANCH   8   9
ATOM      9  C   LIG d   1       8.504  88.426 116.901  0.00  0.00     0.028 C 
ATOM     10  C   LIG d   1       8.588  89.926 117.233  0.00  0.00     0.006 C 
ENDBRANCH   8   9
BRANCH   8  11
ATOM     11  C   LIG d   1       7.090  86.435 116.820  0.00  0.00     0.028 C 
ATOM     12  C   LIG d   1       8.515  85.861 116.752  0.00  0.00     0.006 C 
ENDBRANCH   8  11
ENDBRANCH   7   8
ENDBRANCH   1   7
BRANCH   6  13
ATOM     13  N   LIG d   1       4.357  87.017 113.941  0.00  0.00    -0.311 N 
ATOM     14  C   LIG d   1       4.081  87.563 112.758  0.00  0.00     0.210 C 
ATOM     15  C   LIG d   1       4.169  86.604 111.567  0.00  0.00     0.109 C 
ATOM     16  O   LIG d   1       3.803  88.758 112.579  0.00  0.00    -0.276 OA
ATOM     17  H   LIG d   1       4.604  86.048 113.991  0.00  0.00     0.149 HD
ENDBRANCH   6  13
BRANCH   5  18
ATOM     18  N   LIG d   1       1.887  87.288 115.718  0.00  0.00     0.381 N 
ATOM     19  H   LIG d   1       2.139  86.470 115.201  0.00  0.00    -0.090 HD
ATOM     20  H   LIG d   1       1.004  87.620 115.371  0.00  0.00    -0.090 HD
ATOM     21  H   LIG d   1       1.809  87.067 116.687  0.00  0.00    -0.090 HD
ENDBRANCH   5  18
BRANCH   3  22
ATOM     22  C   LIG d   1       3.798  91.297 117.511  0.00  0.00     0.382 C 
ATOM     23  O   LIG d   1       2.842  91.388 118.318  0.00  0.00    -0.241 OA
ATOM     24  O   LIG d   1       4.544  92.278 117.330  0.00  0.00    -0.241 OA
ENDBRANCH   3  22
TORSDOF 7
ENDMDL
MODEL 9
REMARK VINA RESULT:      -4.0      2.250      4.693
REMARK  7 active torsions:
REMARK  status: ('A' for Active; 'I' for Inactive)
REMARK    1  A    between atoms: C_2  and  C_3 
REMARK    2  A    between atoms: C_3  and  O_6 
REMARK    3  A    between atoms: C_3  and  C_4 
REMARK    4  A    between atoms: C_7  and  O_6 
REMARK    5  A    between atoms: C_9  and  C_10 
REMARK    6  A    between atoms: N_15  and  C_14 
REMARK    7  A    between atoms: N_20  and  C_19 
REMARK       I    between atoms: C_22  and  N_20 
ROOT
ATOM      1  C   LIG d   1       3.653  87.420 116.235  0.00  0.00     0.161 C 
ATOM      2  C   LIG d   1       2.492  88.206 116.324  0.00  0.00     0.016 C 
ATOM      3  C   LIG d   1       2.492  89.545 116.780  0.00  0.00     0.038 C 
ATOM      4  C   LIG d   1       3.683  90.240 117.038  0.00  0.00     0.028 C 
ATOM      5  C   LIG d   1       4.839  89.332 117.446  0.00  0.00    -0.047 C 
ATOM      6  C   LIG d   1       4.975  88.197 116.406  0.00  0.00     0.091 C 
ENDROOT
BRANCH   1   7
ATOM      7  O   LIG d   1       3.657  86.693 114.991  0.00  0.00    -0.368 OA
BRANCH   7   8
ATOM      8  C   LIG d   1       2.921  87.296 113.898  0.00  0.00     0.119 C 
BRANCH   8   9
ATOM      9  C   LIG d   1       2.200  86.162 113.143  0.00  0.00     0.028 C 
ATOM     10  C   LIG d   1       0.871  85.767 113.809  0.00  0.00     0.006 C 
ENDBRANCH   8   9
BRANCH   8  11
ATOM     11  C   LIG d   1       3.867  87.928 112.872  0.00  0.00     0.028 C 
ATOM     12  C   LIG d   1       4.442  86.904 111.881  0.00  0.00     0.006 C 
ENDBRANCH   8  11
ENDBRANCH   7   8
ENDBRANCH   1   7
BRANCH   6  13
ATOM     13  N   LIG d   1       6.029  87.215 116.775  0.00  0.00    -0.311 N 
ATOM     14  C   LIG d   1       7.276  87.269 116.309  0.00  0.00     0.210 C 
ATOM     15  C   LIG d   1       8.198  86.148 116.799  0.00  0.00     0.109 C 
ATOM     16  O   LIG d   1       7.714  88.157 115.562  0.00  0.00    -0.276 OA
ATOM     17  H   LIG d   1       5.768  86.479 117.401  0.00  0.00     0.149 HD
ENDBRANCH   6  13
BRANCH   5  18
ATOM     18  N   LIG d   1       6.048  90.170 117.549  0.00  0.00     0.381 N 
ATOM     19  H   LIG d   1       5.870  90.950 118.150  0.00  0.00    -0.090 HD
ATOM     20  H   LIG d   1       6.280  90.521 116.636  0.00  0.00    -0.090 HD
ATOM     21  H   LIG d   1       6.806  89.632 117.908  0.00  0.00    -0.090 HD
ENDBRANCH   5  18
BRANCH   3  22
ATOM     22  C   LIG d   1       1.288  90.188 117.022  0.00  0.00     0.382 C 
ATOM     23  O   LIG d   1       1.251  91.182 117.787  0.00  0.00    -0.241 OA
ATOM     24  O   LIG d   1       0.232  89.761 116.519  0.00  0.00    -0.241 OA
ENDBRANCH   3  22
TORSDOF 7
ENDMDL
