MODEL 1
REMARK VINA RESULT:      -5.0      0.000      0.000
REMARK  7 active torsions:
REMARK  status: ('A' for Active; 'I' for Inactive)
REMARK    1  A    between atoms: C_2  and  C_3 
REMARK    2  A    between atoms: C_3  and  O_6 
REMARK    3  A    between atoms: C_3  and  C_4 
REMARK    4  A    between atoms: C_7  and  O_6 
REMARK    5  A    between atoms: C_9  and  C_10 
REMARK    6  A    between atoms: N_15  and  C_14 
REMARK    7  A    between atoms: N_20  and  C_19 
REMARK       I    between atoms: C_22  and  N_20 
ROOT
ATOM      1  C   LIG d   1       2.378  89.860 115.233  0.00  0.00     0.161 C 
ATOM      2  C   LIG d   1       2.905  91.060 115.739  0.00  0.00     0.016 C 
ATOM      3  C   LIG d   1       2.370  91.732 116.862  0.00  0.00     0.038 C 
ATOM      4  C   LIG d   1       1.358  91.167 117.652  0.00  0.00     0.028 C 
ATOM      5  C   LIG d   1       0.459  90.203 116.885  0.00  0.00    -0.047 C 
ATOM      6  C   LIG d   1       1.343  89.172 116.148  0.00  0.00     0.091 C 
ENDROOT
BRANCH   1   7
ATOM      7  O   LIG d   1       3.450  88.951 114.915  0.00  0.00    -0.368 OA
BRANCH   7   8
ATOM      8  C   LIG d   1       3.981  89.036 113.570  0.00  0.00     0.119 C 
BRANCH   8   9
ATOM      9  C   LIG d   1       3.057  88.209 112.655  0.00  0.00     0.028 C 
ATOM     10  C   LIG d   1       3.814  87.100 111.905  0.00  0.00     0.006 C 
ENDBRANCH   8   9
BRANCH   8  11
ATOM     11  C   LIG d   1       5.355  88.367 113.470  0.00  0.00     0.028 C 
ATOM     12  C   LIG d   1       5.880  87.879 114.829  0.00  0.00     0.006 C 
ENDBRANCH   8  11
ENDBRANCH   7   8
ENDBRANCH   1   7
BRANCH   6  13
ATOM     13  N   LIG d   1       0.547  88.241 115.305  0.00  0.00    -0.311 N 
ATOM     14  C   LIG d   1       0.796  86.936 115.217  0.00  0.00     0.210 C 
ATOM     15  C   LIG d   1      -0.133  86.162 114.277  0.00  0.00     0.109 C 
ATOM     16  O   LIG d   1       1.679  86.340 115.853  0.00  0.00    -0.276 OA
ATOM     17  H   LIG d   1      -0.208  88.636 114.779  0.00  0.00     0.149 HD
ENDBRANCH   6  13
BRANCH   5  18
ATOM     18  N   LIG d   1      -0.462  89.584 117.857  0.00  0.00     0.381 N 
ATOM     19  H   LIG d   1      -0.783  90.274 118.506  0.00  0.00    -0.090 HD
ATOM     20  H   LIG d   1       0.034  88.876 118.370  0.00  0.00    -0.090 HD
ATOM     21  H   LIG d   1      -1.238  89.178 117.381  0.00  0.00    -0.090 HD
ENDBRANCH   5  18
BRANCH   3  22
ATOM     22  C   LIG d   1       2.823  93.003 117.182  0.00  0.00     0.382 C 
ATOM     23  O   LIG d   1       2.382  94.000 116.560  0.00  0.00    -0.241 OA
ATOM     24  O   LIG d   1       3.699  93.162 118.053  0.00  0.00    -0.241 OA
ENDBRANCH   3  22
TORSDOF 7
ENDMDL
MODEL 2
REMARK VINA RESULT:      -5.0      2.609      5.201
REMARK  7 active torsions:
REMARK  status: ('A' for Active; 'I' for Inactive)
REMARK    1  A    between atoms: C_2  and  C_3 
REMARK    2  A    between atoms: C_3  and  O_6 
REMARK    3  A    between atoms: C_3  and  C_4 
REMARK    4  A    between atoms: C_7  and  O_6 
REMARK    5  A    between atoms: C_9  and  C_10 
REMARK    6  A    between atoms: N_15  and  C_14 
REMARK    7  A    between atoms: N_20  and  C_19 
REMARK       I    between atoms: C_22  and  N_20 
ROOT
ATOM      1  C   LIG d   1       1.238  90.273 117.933  0.00  0.00     0.161 C 
ATOM      2  C   LIG d   1       0.096  89.460 117.841  0.00  0.00     0.016 C 
ATOM      3  C   LIG d   1      -1.212  89.971 117.677  0.00  0.00     0.038 C 
ATOM      4  C   LIG d   1      -1.451  91.333 117.439  0.00  0.00     0.028 C 
ATOM      5  C   LIG d   1      -0.382  92.248 118.026  0.00  0.00    -0.047 C 
ATOM      6  C   LIG d   1       1.009  91.754 117.564  0.00  0.00     0.091 C 
ENDROOT
BRANCH   1   7
ATOM      7  O   LIG d   1       2.299  89.716 117.132  0.00  0.00    -0.368 OA
BRANCH   7   8
ATOM      8  C   LIG d   1       2.116  89.780 115.697  0.00  0.00     0.119 C 
BRANCH   8   9
ATOM      9  C   LIG d   1       2.361  88.366 115.135  0.00  0.00     0.028 C 
ATOM     10  C   LIG d   1       1.052  87.591 114.903  0.00  0.00     0.006 C 
ENDBRANCH   8   9
BRANCH   8  11
ATOM     11  C   LIG d   1       3.176  90.667 115.038  0.00  0.00     0.028 C 
ATOM     12  C   LIG d   1       3.678  90.102 113.699  0.00  0.00     0.006 C 
ENDBRANCH   8  11
ENDBRANCH   7   8
ENDBRANCH   1   7
BRANCH   6  13
ATOM     13  N   LIG d   1       2.117  92.543 118.161  0.00  0.00    -0.311 N 
ATOM     14  C   LIG d   1       2.655  93.611 117.576  0.00  0.00     0.210 C 
ATOM     15  C   LIG d   1       3.801  94.267 118.353  0.00  0.00     0.109 C 
ATOM     16  O   LIG d   1       2.271  94.098 116.501  0.00  0.00    -0.276 OA
ATOM     17  H   LIG d   1       2.469  92.237 119.047  0.00  0.00     0.149 HD
ENDBRANCH   6  13
BRANCH   5  18
ATOM     18  N   LIG d   1      -0.682  93.623 117.586  0.00  0.00     0.381 N 
ATOM     19  H   LIG d   1       0.129  94.028 117.163  0.00  0.00    -0.090 HD
ATOM     20  H   LIG d   1      -0.927  94.175 118.390  0.00  0.00    -0.090 HD
ATOM     21  H   LIG d   1      -1.436  93.617 116.936  0.00  0.00    -0.090 HD
ENDBRANCH   5  18
BRANCH   3  22
ATOM     22  C   LIG d   1      -2.301  89.121 117.789  0.00  0.00     0.382 C 
ATOM     23  O   LIG d   1      -3.278  89.247 117.012  0.00  0.00    -0.241 OA
ATOM     24  O   LIG d   1      -2.339  88.258 118.686  0.00  0.00    -0.241 OA
ENDBRANCH   3  22
TORSDOF 7
ENDMDL
MODEL 3
REMARK VINA RESULT:      -4.8      2.887      4.358
REMARK  7 active torsions:
REMARK  status: ('A' for Active; 'I' for Inactive)
REMARK    1  A    between atoms: C_2  and  C_3 
REMARK    2  A    between atoms: C_3  and  O_6 
REMARK    3  A    between atoms: C_3  and  C_4 
REMARK    4  A    between atoms: C_7  and  O_6 
REMARK    5  A    between atoms: C_9  and  C_10 
REMARK    6  A    between atoms: N_15  and  C_14 
REMARK    7  A    between atoms: N_20  and  C_19 
REMARK       I    between atoms: C_22  and  N_20 
ROOT
ATOM      1  C   LIG d   1       3.758  87.731 115.856  0.00  0.00     0.161 C 
ATOM      2  C   LIG d   1       2.858  88.803 115.734  0.00  0.00     0.016 C 
ATOM      3  C   LIG d   1       3.211  90.147 115.991  0.00  0.00     0.038 C 
ATOM      4  C   LIG d   1       4.536  90.531 116.243  0.00  0.00     0.028 C 
ATOM      5  C   LIG d   1       5.378  89.426 116.872  0.00  0.00    -0.047 C 
ATOM      6  C   LIG d   1       5.236  88.142 116.022  0.00  0.00     0.091 C 
ENDROOT
BRANCH   1   7
ATOM      7  O   LIG d   1       3.609  86.838 114.734  0.00  0.00    -0.368 OA
BRANCH   7   8
ATOM      8  C   LIG d   1       3.018  87.408 113.540  0.00  0.00     0.119 C 
BRANCH   8   9
ATOM      9  C   LIG d   1       1.910  86.447 113.069  0.00  0.00     0.028 C 
ATOM     10  C   LIG d   1       0.528  86.826 113.627  0.00  0.00     0.006 C 
ENDBRANCH   8   9
BRANCH   8  11
ATOM     11  C   LIG d   1       4.027  87.460 112.389  0.00  0.00     0.028 C 
ATOM     12  C   LIG d   1       3.904  86.261 111.435  0.00  0.00     0.006 C 
ENDBRANCH   8  11
ENDBRANCH   7   8
ENDBRANCH   1   7
BRANCH   6  13
ATOM     13  N   LIG d   1       5.961  86.987 116.613  0.00  0.00    -0.311 N 
ATOM     14  C   LIG d   1       7.215  86.671 116.299  0.00  0.00     0.210 C 
ATOM     15  C   LIG d   1       7.767  85.430 117.009  0.00  0.00     0.109 C 
ATOM     16  O   LIG d   1       7.935  87.318 115.523  0.00  0.00    -0.276 OA
ATOM     17  H   LIG d   1       5.462  86.427 117.276  0.00  0.00     0.149 HD
ENDBRANCH   6  13
BRANCH   5  18
ATOM     18  N   LIG d   1       6.767  89.914 116.953  0.00  0.00     0.381 N 
ATOM     19  H   LIG d   1       6.880  90.715 116.363  0.00  0.00    -0.090 HD
ATOM     20  H   LIG d   1       7.385  89.193 116.626  0.00  0.00    -0.090 HD
ATOM     21  H   LIG d   1       6.991  90.153 117.894  0.00  0.00    -0.090 HD
ENDBRANCH   5  18
BRANCH   3  22
ATOM     22  C   LIG d   1       2.223  91.120 116.037  0.00  0.00     0.382 C 
ATOM     23  O   LIG d   1       1.024  90.806 115.843  0.00  0.00    -0.241 OA
ATOM     24  O   LIG d   1       2.522  92.315 116.226  0.00  0.00    -0.241 OA
ENDBRANCH   3  22
TORSDOF 7
ENDMDL
MODEL 4
REMARK VINA RESULT:      -4.7      2.466      4.416
REMARK  7 active torsions:
REMARK  status: ('A' for Active; 'I' for Inactive)
REMARK    1  A    between atoms: C_2  and  C_3 
REMARK    2  A    between atoms: C_3  and  O_6 
REMARK    3  A    between atoms: C_3  and  C_4 
REMARK    4  A    between atoms: C_7  and  O_6 
REMARK    5  A    between atoms: C_9  and  C_10 
REMARK    6  A    between atoms: N_15  and  C_14 
REMARK    7  A    between atoms: N_20  and  C_19 
REMARK       I    between atoms: C_22  and  N_20 
ROOT
ATOM      1  C   LIG d   1       3.292  87.638 115.955  0.00  0.00     0.161 C 
ATOM      2  C   LIG d   1       3.615  88.443 117.060  0.00  0.00     0.016 C 
ATOM      3  C   LIG d   1       4.264  89.694 116.949  0.00  0.00     0.038 C 
ATOM      4  C   LIG d   1       4.500  90.298 115.705  0.00  0.00     0.028 C 
ATOM      5  C   LIG d   1       4.648  89.298 114.563  0.00  0.00    -0.047 C 
ATOM      6  C   LIG d   1       3.441  88.331 114.584  0.00  0.00     0.091 C 
ENDROOT
BRANCH   1   7
ATOM      7  O   LIG d   1       1.959  87.111 116.106  0.00  0.00    -0.368 OA
BRANCH   7   8
ATOM      8  C   LIG d   1       0.892  87.898 115.521  0.00  0.00     0.119 C 
BRANCH   8   9
ATOM      9  C   LIG d   1       0.094  88.530 116.678  0.00  0.00     0.028 C 
ATOM     10  C   LIG d   1       0.439  90.014 116.886  0.00  0.00     0.006 C 
ENDBRANCH   8   9
BRANCH   8  11
ATOM     11  C   LIG d   1      -0.109  87.011 114.775  0.00  0.00     0.028 C 
ATOM     12  C   LIG d   1       0.470  85.635 114.410  0.00  0.00     0.006 C 
ENDBRANCH   8  11
ENDBRANCH   7   8
ENDBRANCH   1   7
BRANCH   6  13
ATOM     13  N   LIG d   1       3.549  87.268 113.552  0.00  0.00    -0.311 N 
ATOM     14  C   LIG d   1       3.018  87.371 112.335  0.00  0.00     0.210 C 
ATOM     15  C   LIG d   1       3.229  86.152 111.431  0.00  0.00     0.109 C 
ATOM     16  O   LIG d   1       2.420  88.370 111.906  0.00  0.00    -0.276 OA
ATOM     17  H   LIG d   1       4.045  86.435 113.804  0.00  0.00     0.149 HD
ENDBRANCH   6  13
BRANCH   5  18
ATOM     18  N   LIG d   1       4.751  90.066 113.308  0.00  0.00     0.381 N 
ATOM     19  H   LIG d   1       5.659  89.940 112.908  0.00  0.00    -0.090 HD
ATOM     20  H   LIG d   1       4.630  91.042 113.514  0.00  0.00    -0.090 HD
ATOM     21  H   LIG d   1       4.052  89.765 112.666  0.00  0.00    -0.090 HD
ENDBRANCH   5  18
BRANCH   3  22
ATOM     22  C   LIG d   1       4.720  90.335 118.090  0.00  0.00     0.382 C 
ATOM     23  O   LIG d   1       5.851  90.056 118.556  0.00  0.00    -0.241 OA
ATOM     24  O   LIG d   1       3.997  91.157 118.684  0.00  0.00    -0.241 OA
ENDBRANCH   3  22
TORSDOF 7
ENDMDL
MODEL 5
REMARK VINA RESULT:      -4.6      3.741      6.038
REMARK  7 active torsions:
REMARK  status: ('A' for Active; 'I' for Inactive)
REMARK    1  A    between atoms: C_2  and  C_3 
REMARK    2  A    between atoms: C_3  and  O_6 
REMARK    3  A    between atoms: C_3  and  C_4 
REMARK    4  A    between atoms: C_7  and  O_6 
REMARK    5  A    between atoms: C_9  and  C_10 
REMARK    6  A    between atoms: N_15  and  C_14 
REMARK    7  A    between atoms: N_20  and  C_19 
REMARK       I    between atoms: C_22  and  N_20 
ROOT
ATOM      1  C   LIG d   1      -0.418  91.670 117.641  0.00  0.00     0.161 C 
ATOM      2  C   LIG d   1      -1.808  91.491 117.538  0.00  0.00     0.016 C 
ATOM      3  C   LIG d   1      -2.744  92.525 117.770  0.00  0.00     0.038 C 
ATOM      4  C   LIG d   1      -2.346  93.854 117.973  0.00  0.00     0.028 C 
ATOM      5  C   LIG d   1      -0.955  93.983 118.584  0.00  0.00    -0.047 C 
ATOM      6  C   LIG d   1       0.038  93.140 117.753  0.00  0.00     0.091 C 
ENDROOT
BRANCH   1   7
ATOM      7  O   LIG d   1       0.241  91.024 116.533  0.00  0.00    -0.368 OA
BRANCH   7   8
ATOM      8  C   LIG d   1       0.942  89.794 116.839  0.00  0.00     0.119 C 
BRANCH   8   9
ATOM      9  C   LIG d   1       2.022  89.595 115.757  0.00  0.00     0.028 C 
ATOM     10  C   LIG d   1       2.859  90.864 115.524  0.00  0.00     0.006 C 
ENDBRANCH   8   9
BRANCH   8  11
ATOM     11  C   LIG d   1       0.017  88.579 116.716  0.00  0.00     0.028 C 
ATOM     12  C   LIG d   1       0.408  87.647 115.559  0.00  0.00     0.006 C 
ENDBRANCH   8  11
ENDBRANCH   7   8
ENDBRANCH   1   7
BRANCH   6  13
ATOM     13  N   LIG d   1       1.407  93.143 118.331  0.00  0.00    -0.311 N 
ATOM     14  C   LIG d   1       2.458  93.691 117.724  0.00  0.00     0.210 C 
ATOM     15  C   LIG d   1       3.782  93.565 118.485  0.00  0.00     0.109 C 
ATOM     16  O   LIG d   1       2.414  94.297 116.643  0.00  0.00    -0.276 OA
ATOM     17  H   LIG d   1       1.527  92.699 119.221  0.00  0.00     0.149 HD
ENDBRANCH   6  13
BRANCH   5  18
ATOM     18  N   LIG d   1      -0.612  95.418 118.613  0.00  0.00     0.381 N 
ATOM     19  H   LIG d   1       0.380  95.527 118.672  0.00  0.00    -0.090 HD
ATOM     20  H   LIG d   1      -1.024  95.834 119.430  0.00  0.00    -0.090 HD
ATOM     21  H   LIG d   1      -0.956  95.867 117.793  0.00  0.00    -0.090 HD
ENDBRANCH   5  18
BRANCH   3  22
ATOM     22  C   LIG d   1      -4.096  92.224 117.838  0.00  0.00     0.382 C 
ATOM     23  O   LIG d   1      -4.805  92.283 116.805  0.00  0.00    -0.241 OA
ATOM     24  O   LIG d   1      -4.625  91.938 118.929  0.00  0.00    -0.241 OA
ENDBRANCH   3  22
TORSDOF 7
ENDMDL
MODEL 6
REMARK VINA RESULT:      -4.6      2.824      6.138
REMARK  7 active torsions:
REMARK  status: ('A' for Active; 'I' for Inactive)
REMARK    1  A    between atoms: C_2  and  C_3 
REMARK    2  A    between atoms: C_3  and  O_6 
REMARK    3  A    between atoms: C_3  and  C_4 
REMARK    4  A    between atoms: C_7  and  O_6 
REMARK    5  A    between atoms: C_9  and  C_10 
REMARK    6  A    between atoms: N_15  and  C_14 
REMARK    7  A    between atoms: N_20  and  C_19 
REMARK       I    between atoms: C_22  and  N_20 
ROOT
ATOM      1  C   LIG d   1       2.939  88.618 115.136  0.00  0.00     0.161 C 
ATOM      2  C   LIG d   1       2.171  87.942 114.172  0.00  0.00     0.016 C 
ATOM      3  C   LIG d   1       2.692  87.494 112.937  0.00  0.00     0.038 C 
ATOM      4  C   LIG d   1       4.062  87.558 112.643  0.00  0.00     0.028 C 
ATOM      5  C   LIG d   1       4.786  88.685 113.372  0.00  0.00    -0.047 C 
ATOM      6  C   LIG d   1       4.460  88.598 114.880  0.00  0.00     0.091 C 
ENDROOT
BRANCH   1   7
ATOM      7  O   LIG d   1       2.644  88.099 116.447  0.00  0.00    -0.368 OA
BRANCH   7   8
ATOM      8  C   LIG d   1       2.086  89.041 117.396  0.00  0.00     0.119 C 
BRANCH   8   9
ATOM      9  C   LIG d   1       0.789  88.425 117.953  0.00  0.00     0.028 C 
ATOM     10  C   LIG d   1      -0.428  88.711 117.057  0.00  0.00     0.006 C 
ENDBRANCH   8   9
BRANCH   8  11
ATOM     11  C   LIG d   1       1.655  90.338 116.704  0.00  0.00     0.028 C 
ATOM     12  C   LIG d   1       2.337  91.583 117.294  0.00  0.00     0.006 C 
ENDBRANCH   8  11
ENDBRANCH   7   8
ENDBRANCH   1   7
BRANCH   6  13
ATOM     13  N   LIG d   1       5.061  89.715 115.655  0.00  0.00    -0.311 N 
ATOM     14  C   LIG d   1       5.723  89.542 116.798  0.00  0.00     0.210 C 
ATOM     15  C   LIG d   1       6.244  90.829 117.445  0.00  0.00     0.109 C 
ATOM     16  O   LIG d   1       5.956  88.441 117.321  0.00  0.00    -0.276 OA
ATOM     17  H   LIG d   1       4.947  90.639 115.287  0.00  0.00     0.149 HD
ENDBRANCH   6  13
BRANCH   5  18
ATOM     18  N   LIG d   1       6.226  88.550 113.083  0.00  0.00     0.381 N 
ATOM     19  H   LIG d   1       6.448  87.591 112.905  0.00  0.00    -0.090 HD
ATOM     20  H   LIG d   1       6.749  88.851 113.886  0.00  0.00    -0.090 HD
ATOM     21  H   LIG d   1       6.469  89.106 112.292  0.00  0.00    -0.090 HD
ENDBRANCH   5  18
BRANCH   3  22
ATOM     22  C   LIG d   1       1.832  87.010 111.963  0.00  0.00     0.382 C 
ATOM     23  O   LIG d   1       0.815  87.670 111.641  0.00  0.00    -0.241 OA
ATOM     24  O   LIG d   1       2.036  85.901 111.434  0.00  0.00    -0.241 OA
ENDBRANCH   3  22
TORSDOF 7
ENDMDL
MODEL 7
REMARK VINA RESULT:      -4.5      3.403      4.682
REMARK  7 active torsions:
REMARK  status: ('A' for Active; 'I' for Inactive)
REMARK    1  A    between atoms: C_2  and  C_3 
REMARK    2  A    between atoms: C_3  and  O_6 
REMARK    3  A    between atoms: C_3  and  C_4 
REMARK    4  A    between atoms: C_7  and  O_6 
REMARK    5  A    between atoms: C_9  and  C_10 
REMARK    6  A    between atoms: N_15  and  C_14 
REMARK    7  A    between atoms: N_20  and  C_19 
REMARK       I    between atoms: C_22  and  N_20 
ROOT
ATOM      1  C   LIG d   1      -0.402  91.113 117.216  0.00  0.00     0.161 C 
ATOM      2  C   LIG d   1       0.757  91.875 117.442  0.00  0.00     0.016 C 
ATOM      3  C   LIG d   1       0.732  93.239 117.810  0.00  0.00     0.038 C 
ATOM      4  C   LIG d   1      -0.464  93.900 118.128  0.00  0.00     0.028 C 
ATOM      5  C   LIG d   1      -1.685  93.313 117.426  0.00  0.00    -0.047 C 
ATOM      6  C   LIG d   1      -1.715  91.786 117.666  0.00  0.00     0.091 C 
ENDROOT
BRANCH   1   7
ATOM      7  O   LIG d   1      -0.264  89.819 117.836  0.00  0.00    -0.368 OA
BRANCH   7   8
ATOM      8  C   LIG d   1       0.951  89.092 117.529  0.00  0.00     0.119 C 
BRANCH   8   9
ATOM      9  C   LIG d   1       0.622  88.097 116.398  0.00  0.00     0.028 C 
ATOM     10  C   LIG d   1       1.557  88.254 115.188  0.00  0.00     0.006 C 
ENDBRANCH   8   9
BRANCH   8  11
ATOM     11  C   LIG d   1       1.397  88.227 118.712  0.00  0.00     0.028 C 
ATOM     12  C   LIG d   1       2.891  87.872 118.660  0.00  0.00     0.006 C 
ENDBRANCH   8  11
ENDBRANCH   7   8
ENDBRANCH   1   7
BRANCH   6  13
ATOM     13  N   LIG d   1      -2.831  91.122 116.944  0.00  0.00    -0.311 N 
ATOM     14  C   LIG d   1      -4.001  90.830 117.510  0.00  0.00     0.210 C 
ATOM     15  C   LIG d   1      -5.006  90.127 116.593  0.00  0.00     0.109 C 
ATOM     16  O   LIG d   1      -4.313  91.116 118.676  0.00  0.00    -0.276 OA
ATOM     17  H   LIG d   1      -2.675  90.882 115.984  0.00  0.00     0.149 HD
ENDBRANCH   6  13
BRANCH   5  18
ATOM     18  N   LIG d   1      -2.876  94.005 117.952  0.00  0.00     0.381 N 
ATOM     19  H   LIG d   1      -3.227  94.644 117.267  0.00  0.00    -0.090 HD
ATOM     20  H   LIG d   1      -2.614  94.529 118.768  0.00  0.00    -0.090 HD
ATOM     21  H   LIG d   1      -3.580  93.340 118.188  0.00  0.00    -0.090 HD
ENDBRANCH   5  18
BRANCH   3  22
ATOM     22  C   LIG d   1       1.911  93.969 117.826  0.00  0.00     0.382 C 
ATOM     23  O   LIG d   1       2.434  94.292 118.919  0.00  0.00    -0.241 OA
ATOM     24  O   LIG d   1       2.434  94.346 116.760  0.00  0.00    -0.241 OA
ENDBRANCH   3  22
TORSDOF 7
ENDMDL
MODEL 8
REMARK VINA RESULT:      -4.3      2.381      6.388
REMARK  7 active torsions:
REMARK  status: ('A' for Active; 'I' for Inactive)
REMARK    1  A    between atoms: C_2  and  C_3 
REMARK    2  A    between atoms: C_3  and  O_6 
REMARK    3  A    between atoms: C_3  and  C_4 
REMARK    4  A    between atoms: C_7  and  O_6 
REMARK    5  A    between atoms: C_9  and  C_10 
REMARK    6  A    between atoms: N_15  and  C_14 
REMARK    7  A    between atoms: N_20  and  C_19 
REMARK       I    between atoms: C_22  and  N_20 
ROOT
ATOM      1  C   LIG d   1       0.646  88.662 116.490  0.00  0.00     0.161 C 
ATOM      2  C   LIG d   1      -0.084  87.820 115.634  0.00  0.00     0.016 C 
ATOM      3  C   LIG d   1       0.457  87.247 114.460  0.00  0.00     0.038 C 
ATOM      4  C   LIG d   1       1.818  87.356 114.141  0.00  0.00     0.028 C 
ATOM      5  C   LIG d   1       2.474  88.611 114.707  0.00  0.00    -0.047 C 
ATOM      6  C   LIG d   1       2.164  88.702 116.218  0.00  0.00     0.091 C 
ENDROOT
BRANCH   1   7
ATOM      7  O   LIG d   1       0.392  88.301 117.863  0.00  0.00    -0.368 OA
BRANCH   7   8
ATOM      8  C   LIG d   1      -0.409  89.233 118.629  0.00  0.00     0.119 C 
BRANCH   8   9
ATOM      9  C   LIG d   1      -1.806  88.609 118.805  0.00  0.00     0.028 C 
ATOM     10  C   LIG d   1      -2.916  89.467 118.175  0.00  0.00     0.006 C 
ENDBRANCH   8   9
BRANCH   8  11
ATOM     11  C   LIG d   1      -0.641  90.535 117.856  0.00  0.00     0.028 C 
ATOM     12  C   LIG d   1      -0.091  91.769 118.589  0.00  0.00     0.006 C 
ENDBRANCH   8  11
ENDBRANCH   7   8
ENDBRANCH   1   7
BRANCH   6  13
ATOM     13  N   LIG d   1       2.698  89.945 116.833  0.00  0.00    -0.311 N 
ATOM     14  C   LIG d   1       2.676  91.131 116.226  0.00  0.00     0.210 C 
ATOM     15  C   LIG d   1       3.296  92.279 117.028  0.00  0.00     0.109 C 
ATOM     16  O   LIG d   1       2.172  91.347 115.114  0.00  0.00    -0.276 OA
ATOM     17  H   LIG d   1       3.097  89.867 117.748  0.00  0.00     0.149 HD
ENDBRANCH   6  13
BRANCH   5  18
ATOM     18  N   LIG d   1       3.918  88.528 114.417  0.00  0.00     0.381 N 
ATOM     19  H   LIG d   1       4.157  87.594 114.150  0.00  0.00    -0.090 HD
ATOM     20  H   LIG d   1       4.431  88.759 115.250  0.00  0.00    -0.090 HD
ATOM     21  H   LIG d   1       4.156  89.161 113.685  0.00  0.00    -0.090 HD
ENDBRANCH   5  18
BRANCH   3  22
ATOM     22  C   LIG d   1      -0.378  86.588 113.570  0.00  0.00     0.382 C 
ATOM     23  O   LIG d   1      -0.775  87.173 112.533  0.00  0.00    -0.241 OA
ATOM     24  O   LIG d   1      -0.774  85.433 113.812  0.00  0.00    -0.241 OA
ENDBRANCH   3  22
TORSDOF 7
ENDMDL
MODEL 9
REMARK VINA RESULT:      -4.2      2.109      3.452
REMARK  7 active torsions:
REMARK  status: ('A' for Active; 'I' for Inactive)
REMARK    1  A    between atoms: C_2  and  C_3 
REMARK    2  A    between atoms: C_3  and  O_6 
REMARK    3  A    between atoms: C_3  and  C_4 
REMARK    4  A    between atoms: C_7  and  O_6 
REMARK    5  A    between atoms: C_9  and  C_10 
REMARK    6  A    between atoms: N_15  and  C_14 
REMARK    7  A    between atoms: N_20  and  C_19 
REMARK       I    between atoms: C_22  and  N_20 
ROOT
ATOM      1  C   LIG d   1       3.055  89.521 114.585  0.00  0.00     0.161 C 
ATOM      2  C   LIG d   1       2.393  90.299 115.549  0.00  0.00     0.016 C 
ATOM      3  C   LIG d   1       1.237  89.867 116.239  0.00  0.00     0.038 C 
ATOM      4  C   LIG d   1       0.749  88.557 116.118  0.00  0.00     0.028 C 
ATOM      5  C   LIG d   1       1.085  87.906 114.781  0.00  0.00    -0.047 C 
ATOM      6  C   LIG d   1       2.602  88.047 114.521  0.00  0.00     0.091 C 
ENDROOT
BRANCH   1   7
ATOM      7  O   LIG d   1       4.480  89.599 114.788  0.00  0.00    -0.368 OA
BRANCH   7   8
ATOM      8  C   LIG d   1       5.031  88.707 115.787  0.00  0.00     0.119 C 
BRANCH   8   9
ATOM      9  C   LIG d   1       5.762  89.575 116.830  0.00  0.00     0.028 C 
ATOM     10  C   LIG d   1       4.927  89.791 118.103  0.00  0.00     0.006 C 
ENDBRANCH   8   9
BRANCH   8  11
ATOM     11  C   LIG d   1       6.108  87.797 115.189  0.00  0.00     0.028 C 
ATOM     12  C   LIG d   1       7.165  87.369 116.219  0.00  0.00     0.006 C 
ENDBRANCH   8  11
ENDBRANCH   7   8
ENDBRANCH   1   7
BRANCH   6  13
ATOM     13  N   LIG d   1       3.002  87.511 113.194  0.00  0.00    -0.311 N 
ATOM     14  C   LIG d   1       3.481  86.281 113.015  0.00  0.00     0.210 C 
ATOM     15  C   LIG d   1       3.851  85.936 111.569  0.00  0.00     0.109 C 
ATOM     16  O   LIG d   1       3.604  85.432 113.911  0.00  0.00    -0.276 OA
ATOM     17  H   LIG d   1       2.905  88.122 112.407  0.00  0.00     0.149 HD
ENDBRANCH   6  13
BRANCH   5  18
ATOM     18  N   LIG d   1       0.637  86.502 114.844  0.00  0.00     0.381 N 
ATOM     19  H   LIG d   1       0.510  86.229 115.799  0.00  0.00    -0.090 HD
ATOM     20  H   LIG d   1       1.347  85.916 114.441  0.00  0.00    -0.090 HD
ATOM     21  H   LIG d   1      -0.217  86.393 114.344  0.00  0.00    -0.090 HD
ENDBRANCH   5  18
BRANCH   3  22
ATOM     22  C   LIG d   1       0.534  90.762 117.030  0.00  0.00     0.382 C 
ATOM     23  O   LIG d   1       0.964  91.929 117.191  0.00  0.00    -0.241 OA
ATOM     24  O   LIG d   1      -0.503  90.404 117.621  0.00  0.00    -0.241 OA
ENDBRANCH   3  22
TORSDOF 7
ENDMDL
