MODEL 1
REMARK VINA RESULT:      -5.1      0.000      0.000
REMARK  7 active torsions:
REMARK  status: ('A' for Active; 'I' for Inactive)
REMARK    1  A    between atoms: C_2  and  C_3 
REMARK    2  A    between atoms: C_3  and  O_6 
REMARK    3  A    between atoms: C_3  and  C_4 
REMARK    4  A    between atoms: C_7  and  O_6 
REMARK    5  A    between atoms: C_9  and  C_10 
REMARK    6  A    between atoms: N_15  and  C_14 
REMARK    7  A    between atoms: N_20  and  C_19 
REMARK       I    between atoms: C_22  and  N_20 
ROOT
ATOM      1  C   LIG d   1      -5.437  89.867 116.184  0.00  0.00     0.161 C 
ATOM      2  C   LIG d   1      -5.081  88.920 115.209  0.00  0.00     0.016 C 
ATOM      3  C   LIG d   1      -5.779  88.757 113.991  0.00  0.00     0.038 C 
ATOM      4  C   LIG d   1      -6.795  89.640 113.595  0.00  0.00     0.028 C 
ATOM      5  C   LIG d   1      -7.519  90.294 114.767  0.00  0.00    -0.047 C 
ATOM      6  C   LIG d   1      -6.473  90.913 115.722  0.00  0.00     0.091 C 
ENDROOT
BRANCH   1   7
ATOM      7  O   LIG d   1      -4.254  90.521 116.684  0.00  0.00    -0.368 OA
BRANCH   7   8
ATOM      8  C   LIG d   1      -3.945  90.299 118.082  0.00  0.00     0.119 C 
BRANCH   8   9
ATOM      9  C   LIG d   1      -3.261  91.573 118.613  0.00  0.00     0.028 C 
ATOM     10  C   LIG d   1      -4.269  92.691 118.930  0.00  0.00     0.006 C 
ENDBRANCH   8   9
BRANCH   8  11
ATOM     11  C   LIG d   1      -2.910  89.182 118.253  0.00  0.00     0.028 C 
ATOM     12  C   LIG d   1      -1.481  89.638 117.918  0.00  0.00     0.006 C 
ENDBRANCH   8  11
ENDBRANCH   7   8
ENDBRANCH   1   7
BRANCH   6  13
ATOM     13  N   LIG d   1      -7.093  91.500 116.938  0.00  0.00    -0.311 N 
ATOM     14  C   LIG d   1      -7.620  92.722 116.975  0.00  0.00     0.210 C 
ATOM     15  C   LIG d   1      -8.189  93.141 118.334  0.00  0.00     0.109 C 
ATOM     16  O   LIG d   1      -7.699  93.488 116.002  0.00  0.00    -0.276 OA
ATOM     17  H   LIG d   1      -7.099  90.935 117.765  0.00  0.00     0.149 HD
ENDBRANCH   6  13
BRANCH   5  18
ATOM     18  N   LIG d   1      -8.456  91.290 114.212  0.00  0.00     0.381 N 
ATOM     19  H   LIG d   1      -9.351  91.192 114.647  0.00  0.00    -0.090 HD
ATOM     20  H   LIG d   1      -8.564  91.121 113.227  0.00  0.00    -0.090 HD
ATOM     21  H   LIG d   1      -8.104  92.210 114.362  0.00  0.00    -0.090 HD
ENDBRANCH   5  18
BRANCH   3  22
ATOM     22  C   LIG d   1      -5.488  87.678 113.171  0.00  0.00     0.382 C 
ATOM     23  O   LIG d   1      -4.476  86.972 113.399  0.00  0.00    -0.241 OA
ATOM     24  O   LIG d   1      -6.201  87.427 112.180  0.00  0.00    -0.241 OA
ENDBRANCH   3  22
TORSDOF 7
ENDMDL
MODEL 2
REMARK VINA RESULT:      -4.9      2.399      5.090
REMARK  7 active torsions:
REMARK  status: ('A' for Active; 'I' for Inactive)
REMARK    1  A    between atoms: C_2  and  C_3 
REMARK    2  A    between atoms: C_3  and  O_6 
REMARK    3  A    between atoms: C_3  and  C_4 
REMARK    4  A    between atoms: C_7  and  O_6 
REMARK    5  A    between atoms: C_9  and  C_10 
REMARK    6  A    between atoms: N_15  and  C_14 
REMARK    7  A    between atoms: N_20  and  C_19 
REMARK       I    between atoms: C_22  and  N_20 
ROOT
ATOM      1  C   LIG d   1      -4.347  90.492 116.873  0.00  0.00     0.161 C 
ATOM      2  C   LIG d   1      -3.107  89.860 117.064  0.00  0.00     0.016 C 
ATOM      3  C   LIG d   1      -2.048  90.433 117.805  0.00  0.00     0.038 C 
ATOM      4  C   LIG d   1      -2.211  91.619 118.537  0.00  0.00     0.028 C 
ATOM      5  C   LIG d   1      -3.280  92.543 117.962  0.00  0.00    -0.047 C 
ATOM      6  C   LIG d   1      -4.582  91.736 117.756  0.00  0.00     0.091 C 
ENDROOT
BRANCH   1   7
ATOM      7  O   LIG d   1      -5.414  89.540 117.054  0.00  0.00    -0.368 OA
BRANCH   7   8
ATOM      8  C   LIG d   1      -6.308  89.362 115.927  0.00  0.00     0.119 C 
BRANCH   8   9
ATOM      9  C   LIG d   1      -5.815  90.284 114.795  0.00  0.00     0.028 C 
ATOM     10  C   LIG d   1      -6.938  91.168 114.227  0.00  0.00     0.006 C 
ENDBRANCH   8   9
BRANCH   8  11
ATOM     11  C   LIG d   1      -7.723  89.845 116.257  0.00  0.00     0.028 C 
ATOM     12  C   LIG d   1      -8.759  88.710 116.244  0.00  0.00     0.006 C 
ENDBRANCH   8  11
ENDBRANCH   7   8
ENDBRANCH   1   7
BRANCH   6  13
ATOM     13  N   LIG d   1      -5.655  92.544 117.119  0.00  0.00    -0.311 N 
ATOM     14  C   LIG d   1      -6.779  92.892 117.742  0.00  0.00     0.210 C 
ATOM     15  C   LIG d   1      -7.761  93.709 116.897  0.00  0.00     0.109 C 
ATOM     16  O   LIG d   1      -7.041  92.631 118.926  0.00  0.00    -0.276 OA
ATOM     17  H   LIG d   1      -5.510  92.826 116.169  0.00  0.00     0.149 HD
ENDBRANCH   6  13
BRANCH   5  18
ATOM     18  N   LIG d   1      -3.442  93.672 118.897  0.00  0.00     0.381 N 
ATOM     19  H   LIG d   1      -2.775  94.387 118.683  0.00  0.00    -0.090 HD
ATOM     20  H   LIG d   1      -3.268  93.348 119.832  0.00  0.00    -0.090 HD
ATOM     21  H   LIG d   1      -4.366  94.039 118.832  0.00  0.00    -0.090 HD
ENDBRANCH   5  18
BRANCH   3  22
ATOM     22  C   LIG d   1      -0.796  89.838 117.786  0.00  0.00     0.382 C 
ATOM     23  O   LIG d   1      -0.287  89.415 118.852  0.00  0.00    -0.241 OA
ATOM     24  O   LIG d   1      -0.150  89.758 116.724  0.00  0.00    -0.241 OA
ENDBRANCH   3  22
TORSDOF 7
ENDMDL
MODEL 3
REMARK VINA RESULT:      -4.8      1.564      4.756
REMARK  7 active torsions:
REMARK  status: ('A' for Active; 'I' for Inactive)
REMARK    1  A    between atoms: C_2  and  C_3 
REMARK    2  A    between atoms: C_3  and  O_6 
REMARK    3  A    between atoms: C_3  and  C_4 
REMARK    4  A    between atoms: C_7  and  O_6 
REMARK    5  A    between atoms: C_9  and  C_10 
REMARK    6  A    between atoms: N_15  and  C_14 
REMARK    7  A    between atoms: N_20  and  C_19 
REMARK       I    between atoms: C_22  and  N_20 
ROOT
ATOM      1  C   LIG d   1      -5.200  91.176 116.956  0.00  0.00     0.161 C 
ATOM      2  C   LIG d   1      -5.718  92.257 117.688  0.00  0.00     0.016 C 
ATOM      3  C   LIG d   1      -6.889  92.958 117.317  0.00  0.00     0.038 C 
ATOM      4  C   LIG d   1      -7.710  92.526 116.264  0.00  0.00     0.028 C 
ATOM      5  C   LIG d   1      -6.958  91.746 115.191  0.00  0.00    -0.047 C 
ATOM      6  C   LIG d   1      -6.142  90.620 115.867  0.00  0.00     0.091 C 
ENDROOT
BRANCH   1   7
ATOM      7  O   LIG d   1      -4.798  90.124 117.855  0.00  0.00    -0.368 OA
BRANCH   7   8
ATOM      8  C   LIG d   1      -3.618  90.385 118.654  0.00  0.00     0.119 C 
BRANCH   8   9
ATOM      9  C   LIG d   1      -2.783  91.447 117.914  0.00  0.00     0.028 C 
ATOM     10  C   LIG d   1      -2.266  92.548 118.855  0.00  0.00     0.006 C 
ENDBRANCH   8   9
BRANCH   8  11
ATOM     11  C   LIG d   1      -2.718  89.148 118.739  0.00  0.00     0.028 C 
ATOM     12  C   LIG d   1      -1.589  89.160 117.696  0.00  0.00     0.006 C 
ENDBRANCH   8  11
ENDBRANCH   7   8
ENDBRANCH   1   7
BRANCH   6  13
ATOM     13  N   LIG d   1      -5.310  89.861 114.897  0.00  0.00    -0.311 N 
ATOM     14  C   LIG d   1      -5.783  88.868 114.147  0.00  0.00     0.210 C 
ATOM     15  C   LIG d   1      -4.752  88.206 113.227  0.00  0.00     0.109 C 
ATOM     16  O   LIG d   1      -6.965  88.493 114.132  0.00  0.00    -0.276 OA
ATOM     17  H   LIG d   1      -4.346  90.121 114.822  0.00  0.00     0.149 HD
ENDBRANCH   6  13
BRANCH   5  18
ATOM     18  N   LIG d   1      -7.954  91.239 114.228  0.00  0.00     0.381 N 
ATOM     19  H   LIG d   1      -8.087  90.257 114.364  0.00  0.00    -0.090 HD
ATOM     20  H   LIG d   1      -7.608  91.385 113.296  0.00  0.00    -0.090 HD
ATOM     21  H   LIG d   1      -8.819  91.719 114.348  0.00  0.00    -0.090 HD
ENDBRANCH   5  18
BRANCH   3  22
ATOM     22  C   LIG d   1      -7.228  94.128 117.978  0.00  0.00     0.382 C 
ATOM     23  O   LIG d   1      -6.407  94.667 118.759  0.00  0.00    -0.241 OA
ATOM     24  O   LIG d   1      -8.360  94.628 117.838  0.00  0.00    -0.241 OA
ENDBRANCH   3  22
TORSDOF 7
ENDMDL
MODEL 4
REMARK VINA RESULT:      -4.8      2.543      4.354
REMARK  7 active torsions:
REMARK  status: ('A' for Active; 'I' for Inactive)
REMARK    1  A    between atoms: C_2  and  C_3 
REMARK    2  A    between atoms: C_3  and  O_6 
REMARK    3  A    between atoms: C_3  and  C_4 
REMARK    4  A    between atoms: C_7  and  O_6 
REMARK    5  A    between atoms: C_9  and  C_10 
REMARK    6  A    between atoms: N_15  and  C_14 
REMARK    7  A    between atoms: N_20  and  C_19 
REMARK       I    between atoms: C_22  and  N_20 
ROOT
ATOM      1  C   LIG d   1      -4.975  91.375 116.859  0.00  0.00     0.161 C 
ATOM      2  C   LIG d   1      -6.164  91.810 116.250  0.00  0.00     0.016 C 
ATOM      3  C   LIG d   1      -6.826  91.087 115.231  0.00  0.00     0.038 C 
ATOM      4  C   LIG d   1      -6.422  89.797 114.855  0.00  0.00     0.028 C 
ATOM      5  C   LIG d   1      -4.937  89.536 115.085  0.00  0.00    -0.047 C 
ATOM      6  C   LIG d   1      -4.580  89.918 116.540  0.00  0.00     0.091 C 
ENDROOT
BRANCH   1   7
ATOM      7  O   LIG d   1      -5.056  91.572 118.284  0.00  0.00    -0.368 OA
BRANCH   7   8
ATOM      8  C   LIG d   1      -4.328  92.708 118.813  0.00  0.00     0.119 C 
BRANCH   8   9
ATOM      9  C   LIG d   1      -5.269  93.927 118.755  0.00  0.00     0.028 C 
ATOM     10  C   LIG d   1      -6.746  93.538 118.930  0.00  0.00     0.006 C 
ENDBRANCH   8   9
BRANCH   8  11
ATOM     11  C   LIG d   1      -3.137  93.071 117.922  0.00  0.00     0.028 C 
ATOM     12  C   LIG d   1      -1.783  92.802 118.597  0.00  0.00     0.006 C 
ENDBRANCH   8  11
ENDBRANCH   7   8
ENDBRANCH   1   7
BRANCH   6  13
ATOM     13  N   LIG d   1      -3.129  89.772 116.824  0.00  0.00    -0.311 N 
ATOM     14  C   LIG d   1      -2.652  89.266 117.960  0.00  0.00     0.210 C 
ATOM     15  C   LIG d   1      -1.123  89.223 118.057  0.00  0.00     0.109 C 
ATOM     16  O   LIG d   1      -3.349  88.818 118.882  0.00  0.00    -0.276 OA
ATOM     17  H   LIG d   1      -2.492  90.082 116.116  0.00  0.00     0.149 HD
ENDBRANCH   6  13
BRANCH   5  18
ATOM     18  N   LIG d   1      -4.683  88.115 114.781  0.00  0.00     0.381 N 
ATOM     19  H   LIG d   1      -5.544  87.655 114.565  0.00  0.00    -0.090 HD
ATOM     20  H   LIG d   1      -4.285  87.675 115.592  0.00  0.00    -0.090 HD
ATOM     21  H   LIG d   1      -4.055  88.038 114.011  0.00  0.00    -0.090 HD
ENDBRANCH   5  18
BRANCH   3  22
ATOM     22  C   LIG d   1      -7.881  91.672 114.548  0.00  0.00     0.382 C 
ATOM     23  O   LIG d   1      -8.233  92.844 114.823  0.00  0.00    -0.241 OA
ATOM     24  O   LIG d   1      -8.515  91.027 113.692  0.00  0.00    -0.241 OA
ENDBRANCH   3  22
TORSDOF 7
ENDMDL
MODEL 5
REMARK VINA RESULT:      -4.5      5.096      8.184
REMARK  7 active torsions:
REMARK  status: ('A' for Active; 'I' for Inactive)
REMARK    1  A    between atoms: C_2  and  C_3 
REMARK    2  A    between atoms: C_3  and  O_6 
REMARK    3  A    between atoms: C_3  and  C_4 
REMARK    4  A    between atoms: C_7  and  O_6 
REMARK    5  A    between atoms: C_9  and  C_10 
REMARK    6  A    between atoms: N_15  and  C_14 
REMARK    7  A    between atoms: N_20  and  C_19 
REMARK       I    between atoms: C_22  and  N_20 
ROOT
ATOM      1  C   LIG d   1       0.845  89.405 117.459  0.00  0.00     0.161 C 
ATOM      2  C   LIG d   1      -0.537  89.159 117.401  0.00  0.00     0.016 C 
ATOM      3  C   LIG d   1      -1.512  90.096 117.813  0.00  0.00     0.038 C 
ATOM      4  C   LIG d   1      -1.174  91.409 118.172  0.00  0.00     0.028 C 
ATOM      5  C   LIG d   1       0.241  91.540 118.726  0.00  0.00    -0.047 C 
ATOM      6  C   LIG d   1       1.229  90.872 117.743  0.00  0.00     0.091 C 
ENDROOT
BRANCH   1   7
ATOM      7  O   LIG d   1       1.474  88.948 116.246  0.00  0.00    -0.368 OA
BRANCH   7   8
ATOM      8  C   LIG d   1       2.463  87.900 116.396  0.00  0.00     0.119 C 
BRANCH   8   9
ATOM      9  C   LIG d   1       3.486  88.062 115.255  0.00  0.00     0.028 C 
ATOM     10  C   LIG d   1       3.801  89.537 114.954  0.00  0.00     0.006 C 
ENDBRANCH   8   9
BRANCH   8  11
ATOM     11  C   LIG d   1       1.843  86.515 116.192  0.00  0.00     0.028 C 
ATOM     12  C   LIG d   1       1.917  86.038 114.732  0.00  0.00     0.006 C 
ENDBRANCH   8  11
ENDBRANCH   7   8
ENDBRANCH   1   7
BRANCH   6  13
ATOM     13  N   LIG d   1       2.626  90.882 118.250  0.00  0.00    -0.311 N 
ATOM     14  C   LIG d   1       3.491  91.863 117.999  0.00  0.00     0.210 C 
ATOM     15  C   LIG d   1       4.886  91.665 118.601  0.00  0.00     0.109 C 
ATOM     16  O   LIG d   1       3.225  92.894 117.362  0.00  0.00    -0.276 OA
ATOM     17  H   LIG d   1       2.916  90.098 118.802  0.00  0.00     0.149 HD
ENDBRANCH   6  13
BRANCH   5  18
ATOM     18  N   LIG d   1       0.509  92.977 118.929  0.00  0.00     0.381 N 
ATOM     19  H   LIG d   1       1.341  93.238 118.440  0.00  0.00    -0.090 HD
ATOM     20  H   LIG d   1       0.652  93.145 119.909  0.00  0.00    -0.090 HD
ATOM     21  H   LIG d   1      -0.262  93.517 118.601  0.00  0.00    -0.090 HD
ENDBRANCH   5  18
BRANCH   3  22
ATOM     22  C   LIG d   1      -2.840  89.709 117.906  0.00  0.00     0.382 C 
ATOM     23  O   LIG d   1      -3.190  88.870 118.771  0.00  0.00    -0.241 OA
ATOM     24  O   LIG d   1      -3.686  90.156 117.108  0.00  0.00    -0.241 OA
ENDBRANCH   3  22
TORSDOF 7
ENDMDL
MODEL 6
REMARK VINA RESULT:      -4.5      8.898     11.663
REMARK  7 active torsions:
REMARK  status: ('A' for Active; 'I' for Inactive)
REMARK    1  A    between atoms: C_2  and  C_3 
REMARK    2  A    between atoms: C_3  and  O_6 
REMARK    3  A    between atoms: C_3  and  C_4 
REMARK    4  A    between atoms: C_7  and  O_6 
REMARK    5  A    between atoms: C_9  and  C_10 
REMARK    6  A    between atoms: N_15  and  C_14 
REMARK    7  A    between atoms: N_20  and  C_19 
REMARK       I    between atoms: C_22  and  N_20 
ROOT
ATOM      1  C   LIG d   1       4.713  86.141 115.550  0.00  0.00     0.161 C 
ATOM      2  C   LIG d   1       5.710  86.294 116.528  0.00  0.00     0.016 C 
ATOM      3  C   LIG d   1       6.696  87.306 116.483  0.00  0.00     0.038 C 
ATOM      4  C   LIG d   1       6.661  88.334 115.529  0.00  0.00     0.028 C 
ATOM      5  C   LIG d   1       5.972  87.931 114.230  0.00  0.00    -0.047 C 
ATOM      6  C   LIG d   1       4.591  87.321 114.562  0.00  0.00     0.091 C 
ENDROOT
BRANCH   1   7
ATOM      7  O   LIG d   1       3.444  85.884 116.182  0.00  0.00    -0.368 OA
BRANCH   7   8
ATOM      8  C   LIG d   1       2.548  87.017 116.298  0.00  0.00     0.119 C 
BRANCH   8   9
ATOM      9  C   LIG d   1       2.563  87.469 117.771  0.00  0.00     0.028 C 
ATOM     10  C   LIG d   1       3.145  88.882 117.945  0.00  0.00     0.006 C 
ENDBRANCH   8   9
BRANCH   8  11
ATOM     11  C   LIG d   1       1.099  86.613 116.012  0.00  0.00     0.028 C 
ATOM     12  C   LIG d   1       0.986  85.511 114.947  0.00  0.00     0.006 C 
ENDBRANCH   8  11
ENDBRANCH   7   8
ENDBRANCH   1   7
BRANCH   6  13
ATOM     13  N   LIG d   1       3.886  86.823 113.352  0.00  0.00    -0.311 N 
ATOM     14  C   LIG d   1       3.059  87.572 112.625  0.00  0.00     0.210 C 
ATOM     15  C   LIG d   1       2.421  86.858 111.430  0.00  0.00     0.109 C 
ATOM     16  O   LIG d   1       2.818  88.770 112.838  0.00  0.00    -0.276 OA
ATOM     17  H   LIG d   1       4.048  85.870 113.089  0.00  0.00     0.149 HD
ENDBRANCH   6  13
BRANCH   5  18
ATOM     18  N   LIG d   1       5.883  89.134 113.381  0.00  0.00     0.381 N 
ATOM     19  H   LIG d   1       6.739  89.650 113.434  0.00  0.00    -0.090 HD
ATOM     20  H   LIG d   1       5.141  89.719 113.723  0.00  0.00    -0.090 HD
ATOM     21  H   LIG d   1       5.702  88.873 112.437  0.00  0.00    -0.090 HD
ENDBRANCH   5  18
BRANCH   3  22
ATOM     22  C   LIG d   1       7.756  87.272 117.376  0.00  0.00     0.382 C 
ATOM     23  O   LIG d   1       7.561  86.935 118.569  0.00  0.00    -0.241 OA
ATOM     24  O   LIG d   1       8.898  87.618 117.016  0.00  0.00    -0.241 OA
ENDBRANCH   3  22
TORSDOF 7
ENDMDL
MODEL 7
REMARK VINA RESULT:      -4.3      8.871     12.072
REMARK  7 active torsions:
REMARK  status: ('A' for Active; 'I' for Inactive)
REMARK    1  A    between atoms: C_2  and  C_3 
REMARK    2  A    between atoms: C_3  and  O_6 
REMARK    3  A    between atoms: C_3  and  C_4 
REMARK    4  A    between atoms: C_7  and  O_6 
REMARK    5  A    between atoms: C_9  and  C_10 
REMARK    6  A    between atoms: N_15  and  C_14 
REMARK    7  A    between atoms: N_20  and  C_19 
REMARK       I    between atoms: C_22  and  N_20 
ROOT
ATOM      1  C   LIG d   1       4.159  87.202 116.187  0.00  0.00     0.161 C 
ATOM      2  C   LIG d   1       3.107  88.131 116.117  0.00  0.00     0.016 C 
ATOM      3  C   LIG d   1       3.205  89.455 116.603  0.00  0.00     0.038 C 
ATOM      4  C   LIG d   1       4.419  89.991 117.057  0.00  0.00     0.028 C 
ATOM      5  C   LIG d   1       5.374  88.940 117.613  0.00  0.00    -0.047 C 
ATOM      6  C   LIG d   1       5.526  87.802 116.578  0.00  0.00     0.091 C 
ENDROOT
BRANCH   1   7
ATOM      7  O   LIG d   1       4.264  86.488 114.939  0.00  0.00    -0.368 OA
BRANCH   7   8
ATOM      8  C   LIG d   1       3.847  87.210 113.755  0.00  0.00     0.119 C 
BRANCH   8   9
ATOM      9  C   LIG d   1       3.092  86.218 112.849  0.00  0.00     0.028 C 
ATOM     10  C   LIG d   1       3.692  86.140 111.435  0.00  0.00     0.006 C 
ENDBRANCH   8   9
BRANCH   8  11
ATOM     11  C   LIG d   1       5.053  87.674 112.931  0.00  0.00     0.028 C 
ATOM     12  C   LIG d   1       5.525  89.086 113.310  0.00  0.00     0.006 C 
ENDBRANCH   8  11
ENDBRANCH   7   8
ENDBRANCH   1   7
BRANCH   6  13
ATOM     13  N   LIG d   1       6.378  86.691 117.078  0.00  0.00    -0.311 N 
ATOM     14  C   LIG d   1       7.705  86.680 116.969  0.00  0.00     0.210 C 
ATOM     15  C   LIG d   1       8.389  85.430 117.532  0.00  0.00     0.109 C 
ATOM     16  O   LIG d   1       8.384  87.601 116.489  0.00  0.00    -0.276 OA
ATOM     17  H   LIG d   1       5.912  85.918 117.509  0.00  0.00     0.149 HD
ENDBRANCH   6  13
BRANCH   5  18
ATOM     18  N   LIG d   1       6.649  89.615 117.922  0.00  0.00     0.381 N 
ATOM     19  H   LIG d   1       7.413  89.068 117.579  0.00  0.00    -0.090 HD
ATOM     20  H   LIG d   1       6.741  89.696 118.919  0.00  0.00    -0.090 HD
ATOM     21  H   LIG d   1       6.665  90.520 117.505  0.00  0.00    -0.090 HD
ENDBRANCH   5  18
BRANCH   3  22
ATOM     22  C   LIG d   1       2.068  90.247 116.673  0.00  0.00     0.382 C 
ATOM     23  O   LIG d   1       0.960  89.785 116.310  0.00  0.00    -0.241 OA
ATOM     24  O   LIG d   1       2.145  91.430 117.055  0.00  0.00    -0.241 OA
ENDBRANCH   3  22
TORSDOF 7
ENDMDL
MODEL 8
REMARK VINA RESULT:      -4.2      9.720     12.727
REMARK  7 active torsions:
REMARK  status: ('A' for Active; 'I' for Inactive)
REMARK    1  A    between atoms: C_2  and  C_3 
REMARK    2  A    between atoms: C_3  and  O_6 
REMARK    3  A    between atoms: C_3  and  C_4 
REMARK    4  A    between atoms: C_7  and  O_6 
REMARK    5  A    between atoms: C_9  and  C_10 
REMARK    6  A    between atoms: N_15  and  C_14 
REMARK    7  A    between atoms: N_20  and  C_19 
REMARK       I    between atoms: C_22  and  N_20 
ROOT
ATOM      1  C   LIG d   1       5.158  87.836 116.900  0.00  0.00     0.161 C 
ATOM      2  C   LIG d   1       4.232  88.887 116.793  0.00  0.00     0.016 C 
ATOM      3  C   LIG d   1       4.564  90.242 117.018  0.00  0.00     0.038 C 
ATOM      4  C   LIG d   1       5.888  90.658 117.219  0.00  0.00     0.028 C 
ATOM      5  C   LIG d   1       6.775  89.580 117.835  0.00  0.00    -0.047 C 
ATOM      6  C   LIG d   1       6.632  88.281 117.009  0.00  0.00     0.091 C 
ENDROOT
BRANCH   1   7
ATOM      7  O   LIG d   1       4.991  86.923 115.797  0.00  0.00    -0.368 OA
BRANCH   7   8
ATOM      8  C   LIG d   1       4.037  87.319 114.781  0.00  0.00     0.119 C 
BRANCH   8   9
ATOM      9  C   LIG d   1       3.018  86.173 114.632  0.00  0.00     0.028 C 
ATOM     10  C   LIG d   1       1.868  86.273 115.649  0.00  0.00     0.006 C 
ENDBRANCH   8   9
BRANCH   8  11
ATOM     11  C   LIG d   1       4.705  87.449 113.409  0.00  0.00     0.028 C 
ATOM     12  C   LIG d   1       5.811  88.515 113.383  0.00  0.00     0.006 C 
ENDBRANCH   8  11
ENDBRANCH   7   8
ENDBRANCH   1   7
BRANCH   6  13
ATOM     13  N   LIG d   1       7.401  87.151 117.592  0.00  0.00    -0.311 N 
ATOM     14  C   LIG d   1       8.454  86.596 116.995  0.00  0.00     0.210 C 
ATOM     15  C   LIG d   1       9.090  85.430 117.759  0.00  0.00     0.109 C 
ATOM     16  O   LIG d   1       8.942  86.979 115.921  0.00  0.00    -0.276 OA
ATOM     17  H   LIG d   1       7.093  86.798 118.477  0.00  0.00     0.149 HD
ENDBRANCH   6  13
BRANCH   5  18
ATOM     18  N   LIG d   1       8.155  90.099 117.861  0.00  0.00     0.381 N 
ATOM     19  H   LIG d   1       8.769  89.453 117.406  0.00  0.00    -0.090 HD
ATOM     20  H   LIG d   1       8.449  90.194 118.817  0.00  0.00    -0.090 HD
ATOM     21  H   LIG d   1       8.195  90.984 117.405  0.00  0.00    -0.090 HD
ENDBRANCH   5  18
BRANCH   3  22
ATOM     22  C   LIG d   1       3.558  91.194 117.084  0.00  0.00     0.382 C 
ATOM     23  O   LIG d   1       2.394  90.902 116.717  0.00  0.00    -0.241 OA
ATOM     24  O   LIG d   1       3.809  92.354 117.462  0.00  0.00    -0.241 OA
ENDBRANCH   3  22
TORSDOF 7
ENDMDL
MODEL 9
REMARK VINA RESULT:      -4.1      7.618     10.643
REMARK  7 active torsions:
REMARK  status: ('A' for Active; 'I' for Inactive)
REMARK    1  A    between atoms: C_2  and  C_3 
REMARK    2  A    between atoms: C_3  and  O_6 
REMARK    3  A    between atoms: C_3  and  C_4 
REMARK    4  A    between atoms: C_7  and  O_6 
REMARK    5  A    between atoms: C_9  and  C_10 
REMARK    6  A    between atoms: N_15  and  C_14 
REMARK    7  A    between atoms: N_20  and  C_19 
REMARK       I    between atoms: C_22  and  N_20 
ROOT
ATOM      1  C   LIG d   1       3.092  88.474 115.564  0.00  0.00     0.161 C 
ATOM      2  C   LIG d   1       3.787  88.277 116.769  0.00  0.00     0.016 C 
ATOM      3  C   LIG d   1       5.196  88.198 116.850  0.00  0.00     0.038 C 
ATOM      4  C   LIG d   1       6.019  88.464 115.745  0.00  0.00     0.028 C 
ATOM      5  C   LIG d   1       5.349  88.169 114.407  0.00  0.00    -0.047 C 
ATOM      6  C   LIG d   1       3.976  88.877 114.366  0.00  0.00     0.091 C 
ENDROOT
BRANCH   1   7
ATOM      7  O   LIG d   1       2.041  89.441 115.759  0.00  0.00    -0.368 OA
BRANCH   7   8
ATOM      8  C   LIG d   1       1.672  89.712 117.134  0.00  0.00     0.119 C 
BRANCH   8   9
ATOM      9  C   LIG d   1       0.237  89.187 117.340  0.00  0.00     0.028 C 
ATOM     10  C   LIG d   1      -0.819  90.297 117.204  0.00  0.00     0.006 C 
ENDBRANCH   8   9
BRANCH   8  11
ATOM     11  C   LIG d   1       1.595  91.218 117.403  0.00  0.00     0.028 C 
ATOM     12  C   LIG d   1       2.955  91.825 117.781  0.00  0.00     0.006 C 
ENDBRANCH   8  11
ENDBRANCH   7   8
ENDBRANCH   1   7
BRANCH   6  13
ATOM     13  N   LIG d   1       3.218  88.572 113.124  0.00  0.00    -0.311 N 
ATOM     14  C   LIG d   1       2.881  87.337 112.756  0.00  0.00     0.210 C 
ATOM     15  C   LIG d   1       2.118  87.243 111.431  0.00  0.00     0.109 C 
ATOM     16  O   LIG d   1       3.114  86.314 113.416  0.00  0.00    -0.276 OA
ATOM     17  H   LIG d   1       2.961  89.347 112.545  0.00  0.00     0.149 HD
ENDBRANCH   6  13
BRANCH   5  18
ATOM     18  N   LIG d   1       6.265  88.620 113.342  0.00  0.00     0.381 N 
ATOM     19  H   LIG d   1       6.248  89.618 113.281  0.00  0.00    -0.090 HD
ATOM     20  H   LIG d   1       5.952  88.244 112.464  0.00  0.00    -0.090 HD
ATOM     21  H   LIG d   1       7.191  88.307 113.534  0.00  0.00    -0.090 HD
ENDBRANCH   5  18
BRANCH   3  22
ATOM     22  C   LIG d   1       5.795  87.810 118.039  0.00  0.00     0.382 C 
ATOM     23  O   LIG d   1       5.114  87.248 118.930  0.00  0.00    -0.241 OA
ATOM     24  O   LIG d   1       6.998  88.055 118.249  0.00  0.00    -0.241 OA
ENDBRANCH   3  22
TORSDOF 7
ENDMDL
