MODEL 1
REMARK VINA RESULT:      -4.6      0.000      0.000
REMARK  7 active torsions:
REMARK  status: ('A' for Active; 'I' for Inactive)
REMARK    1  A    between atoms: C_2  and  C_3 
REMARK    2  A    between atoms: C_3  and  O_6 
REMARK    3  A    between atoms: C_3  and  C_4 
REMARK    4  A    between atoms: C_7  and  O_6 
REMARK    5  A    between atoms: C_9  and  C_10 
REMARK    6  A    between atoms: N_15  and  C_14 
REMARK    7  A    between atoms: N_20  and  C_19 
REMARK       I    between atoms: C_22  and  N_20 
ROOT
ATOM      1  C   LIG d   1       2.845  88.654 115.951  0.00  0.00     0.161 C 
ATOM      2  C   LIG d   1       2.079  88.038 114.948  0.00  0.00     0.016 C 
ATOM      3  C   LIG d   1       2.524  87.881 113.615  0.00  0.00     0.038 C 
ATOM      4  C   LIG d   1       3.835  88.196 113.228  0.00  0.00     0.028 C 
ATOM      5  C   LIG d   1       4.473  89.285 114.085  0.00  0.00    -0.047 C 
ATOM      6  C   LIG d   1       4.321  88.904 115.575  0.00  0.00     0.091 C 
ENDROOT
BRANCH   1   7
ATOM      7  O   LIG d   1       2.762  87.888 117.169  0.00  0.00    -0.368 OA
BRANCH   7   8
ATOM      8  C   LIG d   1       1.999  88.486 118.246  0.00  0.00     0.119 C 
BRANCH   8   9
ATOM      9  C   LIG d   1       0.667  87.719 118.352  0.00  0.00     0.028 C 
ATOM     10  C   LIG d   1      -0.554  88.632 118.145  0.00  0.00     0.006 C 
ENDBRANCH   8   9
BRANCH   8  11
ATOM     11  C   LIG d   1       1.611  89.931 117.919  0.00  0.00     0.028 C 
ATOM     12  C   LIG d   1       2.287  90.955 118.844  0.00  0.00     0.006 C 
ENDBRANCH   8  11
ENDBRANCH   7   8
ENDBRANCH   1   7
BRANCH   6  13
ATOM     13  N   LIG d   1       4.844  89.956 116.485  0.00  0.00    -0.311 N 
ATOM     14  C   LIG d   1       5.900  89.781 117.279  0.00  0.00     0.210 C 
ATOM     15  C   LIG d   1       6.260  90.987 118.152  0.00  0.00     0.109 C 
ATOM     16  O   LIG d   1       6.591  88.752 117.319  0.00  0.00    -0.276 OA
ATOM     17  H   LIG d   1       4.362  90.834 116.493  0.00  0.00     0.149 HD
ENDBRANCH   6  13
BRANCH   5  18
ATOM     18  N   LIG d   1       5.880  89.416 113.662  0.00  0.00     0.381 N 
ATOM     19  H   LIG d   1       6.084  88.746 112.948  0.00  0.00    -0.090 HD
ATOM     20  H   LIG d   1       6.475  89.228 114.450  0.00  0.00    -0.090 HD
ATOM     21  H   LIG d   1       6.049  90.337 113.322  0.00  0.00    -0.090 HD
ENDBRANCH   5  18
BRANCH   3  22
ATOM     22  C   LIG d   1       1.639  87.440 112.642  0.00  0.00     0.382 C 
ATOM     23  O   LIG d   1       1.880  87.656 111.430  0.00  0.00    -0.241 OA
ATOM     24  O   LIG d   1       0.580  86.867 112.964  0.00  0.00    -0.241 OA
ENDBRANCH   3  22
TORSDOF 7
ENDMDL
MODEL 2
REMARK VINA RESULT:      -4.4      1.998      4.663
REMARK  7 active torsions:
REMARK  status: ('A' for Active; 'I' for Inactive)
REMARK    1  A    between atoms: C_2  and  C_3 
REMARK    2  A    between atoms: C_3  and  O_6 
REMARK    3  A    between atoms: C_3  and  C_4 
REMARK    4  A    between atoms: C_7  and  O_6 
REMARK    5  A    between atoms: C_9  and  C_10 
REMARK    6  A    between atoms: N_15  and  C_14 
REMARK    7  A    between atoms: N_20  and  C_19 
REMARK       I    between atoms: C_22  and  N_20 
ROOT
ATOM      1  C   LIG d   1       2.731  87.636 115.811  0.00  0.00     0.161 C 
ATOM      2  C   LIG d   1       3.863  87.723 116.639  0.00  0.00     0.016 C 
ATOM      3  C   LIG d   1       5.187  87.585 116.164  0.00  0.00     0.038 C 
ATOM      4  C   LIG d   1       5.479  87.499 114.795  0.00  0.00     0.028 C 
ATOM      5  C   LIG d   1       4.344  86.901 113.970  0.00  0.00    -0.047 C 
ATOM      6  C   LIG d   1       3.034  87.654 114.298  0.00  0.00     0.091 C 
ENDROOT
BRANCH   1   7
ATOM      7  O   LIG d   1       1.798  88.681 116.147  0.00  0.00    -0.368 OA
BRANCH   7   8
ATOM      8  C   LIG d   1       1.475  88.820 117.553  0.00  0.00     0.119 C 
BRANCH   8   9
ATOM      9  C   LIG d   1       0.127  88.113 117.791  0.00  0.00     0.028 C 
ATOM     10  C   LIG d   1      -0.948  89.067 118.338  0.00  0.00     0.006 C 
ENDBRANCH   8   9
BRANCH   8  11
ATOM     11  C   LIG d   1       1.236  90.285 117.928  0.00  0.00     0.028 C 
ATOM     12  C   LIG d   1       2.533  91.027 118.288  0.00  0.00     0.006 C 
ENDBRANCH   8  11
ENDBRANCH   7   8
ENDBRANCH   1   7
BRANCH   6  13
ATOM     13  N   LIG d   1       1.858  87.077 113.597  0.00  0.00    -0.311 N 
ATOM     14  C   LIG d   1       1.185  87.719 112.644  0.00  0.00     0.210 C 
ATOM     15  C   LIG d   1      -0.008  86.951 112.065  0.00  0.00     0.109 C 
ATOM     16  O   LIG d   1       1.482  88.838 112.199  0.00  0.00    -0.276 OA
ATOM     17  H   LIG d   1       1.567  86.159 113.873  0.00  0.00     0.149 HD
ENDBRANCH   6  13
BRANCH   5  18
ATOM     18  N   LIG d   1       4.727  86.998 112.549  0.00  0.00     0.381 N 
ATOM     19  H   LIG d   1       4.876  87.956 112.303  0.00  0.00    -0.090 HD
ATOM     20  H   LIG d   1       3.976  86.641 111.985  0.00  0.00    -0.090 HD
ATOM     21  H   LIG d   1       5.556  86.472 112.382  0.00  0.00    -0.090 HD
ENDBRANCH   5  18
BRANCH   3  22
ATOM     22  C   LIG d   1       6.235  87.491 117.068  0.00  0.00     0.382 C 
ATOM     23  O   LIG d   1       5.999  87.465 118.300  0.00  0.00    -0.241 OA
ATOM     24  O   LIG d   1       7.414  87.476 116.668  0.00  0.00    -0.241 OA
ENDBRANCH   3  22
TORSDOF 7
ENDMDL
MODEL 3
REMARK VINA RESULT:      -4.2      2.603      5.191
REMARK  7 active torsions:
REMARK  status: ('A' for Active; 'I' for Inactive)
REMARK    1  A    between atoms: C_2  and  C_3 
REMARK    2  A    between atoms: C_3  and  O_6 
REMARK    3  A    between atoms: C_3  and  C_4 
REMARK    4  A    between atoms: C_7  and  O_6 
REMARK    5  A    between atoms: C_9  and  C_10 
REMARK    6  A    between atoms: N_15  and  C_14 
REMARK    7  A    between atoms: N_20  and  C_19 
REMARK       I    between atoms: C_22  and  N_20 
ROOT
ATOM      1  C   LIG d   1       1.857  87.769 114.785  0.00  0.00     0.161 C 
ATOM      2  C   LIG d   1       2.910  88.181 113.950  0.00  0.00     0.016 C 
ATOM      3  C   LIG d   1       4.274  88.066 114.304  0.00  0.00     0.038 C 
ATOM      4  C   LIG d   1       4.685  87.388 115.461  0.00  0.00     0.028 C 
ATOM      5  C   LIG d   1       3.644  87.404 116.575  0.00  0.00    -0.047 C 
ATOM      6  C   LIG d   1       2.290  86.926 116.003  0.00  0.00     0.091 C 
ENDROOT
BRANCH   1   7
ATOM      7  O   LIG d   1       0.868  87.061 114.011  0.00  0.00    -0.368 OA
BRANCH   7   8
ATOM      8  C   LIG d   1       1.177  86.864 112.609  0.00  0.00     0.119 C 
BRANCH   8   9
ATOM      9  C   LIG d   1      -0.147  86.962 111.826  0.00  0.00     0.028 C 
ATOM     10  C   LIG d   1      -1.089  85.782 112.117  0.00  0.00     0.006 C 
ENDBRANCH   8   9
BRANCH   8  11
ATOM     11  C   LIG d   1       1.700  85.449 112.347  0.00  0.00     0.028 C 
ATOM     12  C   LIG d   1       2.933  85.430 111.430  0.00  0.00     0.006 C 
ENDBRANCH   8  11
ENDBRANCH   7   8
ENDBRANCH   1   7
BRANCH   6  13
ATOM     13  N   LIG d   1       1.196  86.991 117.006  0.00  0.00    -0.311 N 
ATOM     14  C   LIG d   1       0.712  88.134 117.491  0.00  0.00     0.210 C 
ATOM     15  C   LIG d   1      -0.401  87.976 118.531  0.00  0.00     0.109 C 
ATOM     16  O   LIG d   1       1.077  89.264 117.133  0.00  0.00    -0.276 OA
ATOM     17  H   LIG d   1       0.819  86.121 117.328  0.00  0.00     0.149 HD
ENDBRANCH   6  13
BRANCH   5  18
ATOM     18  N   LIG d   1       4.145  86.548 117.666  0.00  0.00     0.381 N 
ATOM     19  H   LIG d   1       3.378  86.098 118.124  0.00  0.00    -0.090 HD
ATOM     20  H   LIG d   1       4.621  87.123 118.339  0.00  0.00    -0.090 HD
ATOM     21  H   LIG d   1       4.771  85.863 117.302  0.00  0.00    -0.090 HD
ENDBRANCH   5  18
BRANCH   3  22
ATOM     22  C   LIG d   1       5.241  88.669 113.514  0.00  0.00     0.382 C 
ATOM     23  O   LIG d   1       5.217  89.909 113.330  0.00  0.00    -0.241 OA
ATOM     24  O   LIG d   1       6.112  87.982 112.947  0.00  0.00    -0.241 OA
ENDBRANCH   3  22
TORSDOF 7
ENDMDL
MODEL 4
REMARK VINA RESULT:      -4.2      2.638      6.002
REMARK  7 active torsions:
REMARK  status: ('A' for Active; 'I' for Inactive)
REMARK    1  A    between atoms: C_2  and  C_3 
REMARK    2  A    between atoms: C_3  and  O_6 
REMARK    3  A    between atoms: C_3  and  C_4 
REMARK    4  A    between atoms: C_7  and  O_6 
REMARK    5  A    between atoms: C_9  and  C_10 
REMARK    6  A    between atoms: N_15  and  C_14 
REMARK    7  A    between atoms: N_20  and  C_19 
REMARK       I    between atoms: C_22  and  N_20 
ROOT
ATOM      1  C   LIG d   1       3.828  88.725 116.688  0.00  0.00     0.161 C 
ATOM      2  C   LIG d   1       4.080  90.007 117.205  0.00  0.00     0.016 C 
ATOM      3  C   LIG d   1       3.113  90.771 117.898  0.00  0.00     0.038 C 
ATOM      4  C   LIG d   1       1.865  90.238 118.256  0.00  0.00     0.028 C 
ATOM      5  C   LIG d   1       1.386  89.135 117.318  0.00  0.00    -0.047 C 
ATOM      6  C   LIG d   1       2.509  88.084 117.166  0.00  0.00     0.091 C 
ENDROOT
BRANCH   1   7
ATOM      7  O   LIG d   1       4.941  87.856 116.976  0.00  0.00    -0.368 OA
BRANCH   7   8
ATOM      8  C   LIG d   1       5.594  87.256 115.830  0.00  0.00     0.119 C 
BRANCH   8   9
ATOM      9  C   LIG d   1       7.106  87.223 116.124  0.00  0.00     0.028 C 
ATOM     10  C   LIG d   1       7.481  88.051 117.364  0.00  0.00     0.006 C 
ENDBRANCH   8   9
BRANCH   8  11
ATOM     11  C   LIG d   1       5.442  88.131 114.582  0.00  0.00     0.028 C 
ATOM     12  C   LIG d   1       5.064  87.323 113.330  0.00  0.00     0.006 C 
ENDBRANCH   8  11
ENDBRANCH   7   8
ENDBRANCH   1   7
BRANCH   6  13
ATOM     13  N   LIG d   1       2.154  87.012 116.199  0.00  0.00    -0.311 N 
ATOM     14  C   LIG d   1       1.783  87.252 114.942  0.00  0.00     0.210 C 
ATOM     15  C   LIG d   1       1.442  86.006 114.119  0.00  0.00     0.109 C 
ATOM     16  O   LIG d   1       1.736  88.377 114.421  0.00  0.00    -0.276 OA
ATOM     17  H   LIG d   1       2.196  86.068 116.529  0.00  0.00     0.149 HD
ENDBRANCH   6  13
BRANCH   5  18
ATOM     18  N   LIG d   1       0.144  88.577 117.885  0.00  0.00     0.381 N 
ATOM     19  H   LIG d   1       0.352  87.751 118.410  0.00  0.00    -0.090 HD
ATOM     20  H   LIG d   1      -0.472  88.325 117.133  0.00  0.00    -0.090 HD
ATOM     21  H   LIG d   1      -0.296  89.250 118.473  0.00  0.00    -0.090 HD
ENDBRANCH   5  18
BRANCH   3  22
ATOM     22  C   LIG d   1       3.375  92.097 118.206  0.00  0.00     0.382 C 
ATOM     23  O   LIG d   1       2.511  92.786 118.800  0.00  0.00    -0.241 OA
ATOM     24  O   LIG d   1       4.448  92.626 117.858  0.00  0.00    -0.241 OA
ENDBRANCH   3  22
TORSDOF 7
ENDMDL
MODEL 5
REMARK VINA RESULT:      -4.1      2.206      3.116
REMARK  7 active torsions:
REMARK  status: ('A' for Active; 'I' for Inactive)
REMARK    1  A    between atoms: C_2  and  C_3 
REMARK    2  A    between atoms: C_3  and  O_6 
REMARK    3  A    between atoms: C_3  and  C_4 
REMARK    4  A    between atoms: C_7  and  O_6 
REMARK    5  A    between atoms: C_9  and  C_10 
REMARK    6  A    between atoms: N_15  and  C_14 
REMARK    7  A    between atoms: N_20  and  C_19 
REMARK       I    between atoms: C_22  and  N_20 
ROOT
ATOM      1  C   LIG d   1       5.139  89.243 115.449  0.00  0.00     0.161 C 
ATOM      2  C   LIG d   1       3.945  89.162 114.712  0.00  0.00     0.016 C 
ATOM      3  C   LIG d   1       3.273  87.947 114.450  0.00  0.00     0.038 C 
ATOM      4  C   LIG d   1       3.671  86.737 115.038  0.00  0.00     0.028 C 
ATOM      5  C   LIG d   1       5.157  86.688 115.376  0.00  0.00    -0.047 C 
ATOM      6  C   LIG d   1       5.528  87.948 116.192  0.00  0.00     0.091 C 
ENDROOT
BRANCH   1   7
ATOM      7  O   LIG d   1       5.071  90.349 116.370  0.00  0.00    -0.368 OA
BRANCH   7   8
ATOM      8  C   LIG d   1       4.533  90.053 117.682  0.00  0.00     0.119 C 
BRANCH   8   9
ATOM      9  C   LIG d   1       3.155  90.736 117.782  0.00  0.00     0.028 C 
ATOM     10  C   LIG d   1       3.222  92.090 118.507  0.00  0.00     0.006 C 
ENDBRANCH   8   9
BRANCH   8  11
ATOM     11  C   LIG d   1       5.381  90.687 118.789  0.00  0.00     0.028 C 
ATOM     12  C   LIG d   1       6.772  91.119 118.299  0.00  0.00     0.006 C 
ENDBRANCH   8  11
ENDBRANCH   7   8
ENDBRANCH   1   7
BRANCH   6  13
ATOM     13  N   LIG d   1       6.982  88.021 116.492  0.00  0.00    -0.311 N 
ATOM     14  C   LIG d   1       7.519  87.579 117.628  0.00  0.00     0.210 C 
ATOM     15  C   LIG d   1       9.035  87.769 117.743  0.00  0.00     0.109 C 
ATOM     16  O   LIG d   1       6.889  87.019 118.538  0.00  0.00    -0.276 OA
ATOM     17  H   LIG d   1       7.571  88.433 115.796  0.00  0.00     0.149 HD
ENDBRANCH   6  13
BRANCH   5  18
ATOM     18  N   LIG d   1       5.407  85.432 116.107  0.00  0.00     0.381 N 
ATOM     19  H   LIG d   1       5.761  85.635 117.020  0.00  0.00    -0.090 HD
ATOM     20  H   LIG d   1       6.101  84.900 115.611  0.00  0.00    -0.090 HD
ATOM     21  H   LIG d   1       4.564  84.906 116.178  0.00  0.00    -0.090 HD
ENDBRANCH   5  18
BRANCH   3  22
ATOM     22  C   LIG d   1       2.212  87.927 113.557  0.00  0.00     0.382 C 
ATOM     23  O   LIG d   1       2.158  88.769 112.628  0.00  0.00    -0.241 OA
ATOM     24  O   LIG d   1       1.285  87.106 113.695  0.00  0.00    -0.241 OA
ENDBRANCH   3  22
TORSDOF 7
ENDMDL
MODEL 6
REMARK VINA RESULT:      -4.0      6.027      8.488
REMARK  7 active torsions:
REMARK  status: ('A' for Active; 'I' for Inactive)
REMARK    1  A    between atoms: C_2  and  C_3 
REMARK    2  A    between atoms: C_3  and  O_6 
REMARK    3  A    between atoms: C_3  and  C_4 
REMARK    4  A    between atoms: C_7  and  O_6 
REMARK    5  A    between atoms: C_9  and  C_10 
REMARK    6  A    between atoms: N_15  and  C_14 
REMARK    7  A    between atoms: N_20  and  C_19 
REMARK       I    between atoms: C_22  and  N_20 
ROOT
ATOM      1  C   LIG d   1      -2.764  92.774 118.181  0.00  0.00     0.161 C 
ATOM      2  C   LIG d   1      -2.591  94.168 118.149  0.00  0.00     0.016 C 
ATOM      3  C   LIG d   1      -1.338  94.800 118.322  0.00  0.00     0.038 C 
ATOM      4  C   LIG d   1      -0.142  94.070 118.388  0.00  0.00     0.028 C 
ATOM      5  C   LIG d   1      -0.324  92.657 118.930  0.00  0.00    -0.047 C 
ATOM      6  C   LIG d   1      -1.455  91.959 118.141  0.00  0.00     0.091 C 
ENDROOT
BRANCH   1   7
ATOM      7  O   LIG d   1      -3.641  92.367 117.113  0.00  0.00    -0.368 OA
BRANCH   7   8
ATOM      8  C   LIG d   1      -4.934  91.849 117.512  0.00  0.00     0.119 C 
BRANCH   8   9
ATOM      9  C   LIG d   1      -5.925  92.148 116.371  0.00  0.00     0.028 C 
ATOM     10  C   LIG d   1      -5.851  91.107 115.241  0.00  0.00     0.006 C 
ENDBRANCH   8   9
BRANCH   8  11
ATOM     11  C   LIG d   1      -5.482  92.598 118.731  0.00  0.00     0.028 C 
ATOM     12  C   LIG d   1      -6.768  93.381 118.421  0.00  0.00     0.006 C 
ENDBRANCH   8  11
ENDBRANCH   7   8
ENDBRANCH   1   7
BRANCH   6  13
ATOM     13  N   LIG d   1      -1.755  90.600 118.663  0.00  0.00    -0.311 N 
ATOM     14  C   LIG d   1      -1.096  89.506 118.284  0.00  0.00     0.210 C 
ATOM     15  C   LIG d   1      -1.579  88.204 118.930  0.00  0.00     0.109 C 
ATOM     16  O   LIG d   1      -0.137  89.496 117.498  0.00  0.00    -0.276 OA
ATOM     17  H   LIG d   1      -2.499  90.521 119.329  0.00  0.00     0.149 HD
ENDBRANCH   6  13
BRANCH   5  18
ATOM     18  N   LIG d   1       0.974  91.965 118.815  0.00  0.00     0.381 N 
ATOM     19  H   LIG d   1       1.065  91.566 117.902  0.00  0.00    -0.090 HD
ATOM     20  H   LIG d   1       1.006  91.220 119.489  0.00  0.00    -0.090 HD
ATOM     21  H   LIG d   1       1.718  92.606 118.982  0.00  0.00    -0.090 HD
ENDBRANCH   5  18
BRANCH   3  22
ATOM     22  C   LIG d   1      -1.278  96.178 118.470  0.00  0.00     0.382 C 
ATOM     23  O   LIG d   1      -2.337  96.848 118.538  0.00  0.00    -0.241 OA
ATOM     24  O   LIG d   1      -0.179  96.763 118.493  0.00  0.00    -0.241 OA
ENDBRANCH   3  22
TORSDOF 7
ENDMDL
MODEL 7
REMARK VINA RESULT:      -3.9      1.666      4.855
REMARK  7 active torsions:
REMARK  status: ('A' for Active; 'I' for Inactive)
REMARK    1  A    between atoms: C_2  and  C_3 
REMARK    2  A    between atoms: C_3  and  O_6 
REMARK    3  A    between atoms: C_3  and  C_4 
REMARK    4  A    between atoms: C_7  and  O_6 
REMARK    5  A    between atoms: C_9  and  C_10 
REMARK    6  A    between atoms: N_15  and  C_14 
REMARK    7  A    between atoms: N_20  and  C_19 
REMARK       I    between atoms: C_22  and  N_20 
ROOT
ATOM      1  C   LIG d   1       2.567  88.683 116.692  0.00  0.00     0.161 C 
ATOM      2  C   LIG d   1       3.567  89.369 117.401  0.00  0.00     0.016 C 
ATOM      3  C   LIG d   1       4.820  89.712 116.844  0.00  0.00     0.038 C 
ATOM      4  C   LIG d   1       5.103  89.524 115.483  0.00  0.00     0.028 C 
ATOM      5  C   LIG d   1       4.315  88.380 114.853  0.00  0.00    -0.047 C 
ATOM      6  C   LIG d   1       2.814  88.568 115.173  0.00  0.00     0.091 C 
ENDROOT
BRANCH   1   7
ATOM      7  O   LIG d   1       1.284  89.289 116.946  0.00  0.00    -0.368 OA
BRANCH   7   8
ATOM      8  C   LIG d   1       0.328  88.477 117.671  0.00  0.00     0.119 C 
BRANCH   8   9
ATOM      9  C   LIG d   1      -0.587  89.434 118.460  0.00  0.00     0.028 C 
ATOM     10  C   LIG d   1      -2.071  89.044 118.357  0.00  0.00     0.006 C 
ENDBRANCH   8   9
BRANCH   8  11
ATOM     11  C   LIG d   1       1.019  87.613 118.729  0.00  0.00     0.028 C 
ATOM     12  C   LIG d   1       0.578  86.141 118.677  0.00  0.00     0.006 C 
ENDBRANCH   8  11
ENDBRANCH   7   8
ENDBRANCH   1   7
BRANCH   6  13
ATOM     13  N   LIG d   1       1.981  87.447 114.666  0.00  0.00    -0.311 N 
ATOM     14  C   LIG d   1       1.309  87.495 113.517  0.00  0.00     0.210 C 
ATOM     15  C   LIG d   1       0.496  86.238 113.191  0.00  0.00     0.109 C 
ATOM     16  O   LIG d   1       1.333  88.447 112.722  0.00  0.00    -0.276 OA
ATOM     17  H   LIG d   1       1.930  86.623 115.233  0.00  0.00     0.149 HD
ENDBRANCH   6  13
BRANCH   5  18
ATOM     18  N   LIG d   1       4.602  88.384 113.406  0.00  0.00     0.381 N 
ATOM     19  H   LIG d   1       4.006  89.042 112.945  0.00  0.00    -0.090 HD
ATOM     20  H   LIG d   1       4.412  87.470 113.034  0.00  0.00    -0.090 HD
ATOM     21  H   LIG d   1       5.557  88.623 113.249  0.00  0.00    -0.090 HD
ENDBRANCH   5  18
BRANCH   3  22
ATOM     22  C   LIG d   1       5.822  90.213 117.661  0.00  0.00     0.382 C 
ATOM     23  O   LIG d   1       6.980  89.736 117.598  0.00  0.00    -0.241 OA
ATOM     24  O   LIG d   1       5.571  91.107 118.492  0.00  0.00    -0.241 OA
ENDBRANCH   3  22
TORSDOF 7
ENDMDL
MODEL 8
REMARK VINA RESULT:      -3.9      2.570      5.612
REMARK  7 active torsions:
REMARK  status: ('A' for Active; 'I' for Inactive)
REMARK    1  A    between atoms: C_2  and  C_3 
REMARK    2  A    between atoms: C_3  and  O_6 
REMARK    3  A    between atoms: C_3  and  C_4 
REMARK    4  A    between atoms: C_7  and  O_6 
REMARK    5  A    between atoms: C_9  and  C_10 
REMARK    6  A    between atoms: N_15  and  C_14 
REMARK    7  A    between atoms: N_20  and  C_19 
REMARK       I    between atoms: C_22  and  N_20 
ROOT
ATOM      1  C   LIG d   1       2.520  88.625 115.973  0.00  0.00     0.161 C 
ATOM      2  C   LIG d   1       3.919  88.705 115.870  0.00  0.00     0.016 C 
ATOM      3  C   LIG d   1       4.803  87.957 116.680  0.00  0.00     0.038 C 
ATOM      4  C   LIG d   1       4.344  86.957 117.551  0.00  0.00     0.028 C 
ATOM      5  C   LIG d   1       2.924  87.196 118.053  0.00  0.00    -0.047 C 
ATOM      6  C   LIG d   1       2.002  87.459 116.841  0.00  0.00     0.091 C 
ENDROOT
BRANCH   1   7
ATOM      7  O   LIG d   1       1.935  88.569 114.657  0.00  0.00    -0.368 OA
BRANCH   7   8
ATOM      8  C   LIG d   1       2.081  87.314 113.948  0.00  0.00     0.119 C 
BRANCH   8   9
ATOM      9  C   LIG d   1       2.933  87.588 112.693  0.00  0.00     0.028 C 
ATOM     10  C   LIG d   1       4.270  86.827 112.713  0.00  0.00     0.006 C 
ENDBRANCH   8   9
BRANCH   8  11
ATOM     11  C   LIG d   1       0.734  86.811 113.422  0.00  0.00     0.028 C 
ATOM     12  C   LIG d   1       0.438  87.287 111.990  0.00  0.00     0.006 C 
ENDBRANCH   8  11
ENDBRANCH   7   8
ENDBRANCH   1   7
BRANCH   6  13
ATOM     13  N   LIG d   1       0.610  87.785 117.248  0.00  0.00    -0.311 N 
ATOM     14  C   LIG d   1       0.302  88.794 118.061  0.00  0.00     0.210 C 
ATOM     15  C   LIG d   1      -1.192  88.944 118.369  0.00  0.00     0.109 C 
ATOM     16  O   LIG d   1       1.120  89.600 118.530  0.00  0.00    -0.276 OA
ATOM     17  H   LIG d   1      -0.120  87.202 116.888  0.00  0.00     0.149 HD
ENDBRANCH   6  13
BRANCH   5  18
ATOM     18  N   LIG d   1       2.524  86.013 118.838  0.00  0.00     0.381 N 
ATOM     19  H   LIG d   1       1.657  86.194 119.304  0.00  0.00    -0.090 HD
ATOM     20  H   LIG d   1       3.225  85.834 119.535  0.00  0.00    -0.090 HD
ATOM     21  H   LIG d   1       2.430  85.222 118.240  0.00  0.00    -0.090 HD
ENDBRANCH   5  18
BRANCH   3  22
ATOM     22  C   LIG d   1       6.162  88.233 116.651  0.00  0.00     0.382 C 
ATOM     23  O   LIG d   1       6.600  89.277 117.192  0.00  0.00    -0.241 OA
ATOM     24  O   LIG d   1       6.948  87.474 116.054  0.00  0.00    -0.241 OA
ENDBRANCH   3  22
TORSDOF 7
ENDMDL
MODEL 9
REMARK VINA RESULT:      -3.8      1.507      2.016
REMARK  7 active torsions:
REMARK  status: ('A' for Active; 'I' for Inactive)
REMARK    1  A    between atoms: C_2  and  C_3 
REMARK    2  A    between atoms: C_3  and  O_6 
REMARK    3  A    between atoms: C_3  and  C_4 
REMARK    4  A    between atoms: C_7  and  O_6 
REMARK    5  A    between atoms: C_9  and  C_10 
REMARK    6  A    between atoms: N_15  and  C_14 
REMARK    7  A    between atoms: N_20  and  C_19 
REMARK       I    between atoms: C_22  and  N_20 
ROOT
ATOM      1  C   LIG d   1       3.344  88.832 116.670  0.00  0.00     0.161 C 
ATOM      2  C   LIG d   1       2.623  88.586 115.490  0.00  0.00     0.016 C 
ATOM      3  C   LIG d   1       3.213  88.076 114.310  0.00  0.00     0.038 C 
ATOM      4  C   LIG d   1       4.544  87.633 114.279  0.00  0.00     0.028 C 
ATOM      5  C   LIG d   1       5.439  88.331 115.297  0.00  0.00    -0.047 C 
ATOM      6  C   LIG d   1       4.773  88.251 116.689  0.00  0.00     0.091 C 
ENDROOT
BRANCH   1   7
ATOM      7  O   LIG d   1       2.595  88.358 117.807  0.00  0.00    -0.368 OA
BRANCH   7   8
ATOM      8  C   LIG d   1       1.203  88.038 117.565  0.00  0.00     0.119 C 
BRANCH   8   9
ATOM      9  C   LIG d   1       0.351  89.075 118.322  0.00  0.00     0.028 C 
ATOM     10  C   LIG d   1      -1.158  88.810 118.181  0.00  0.00     0.006 C 
ENDBRANCH   8   9
BRANCH   8  11
ATOM     11  C   LIG d   1       0.829  86.684 118.175  0.00  0.00     0.028 C 
ATOM     12  C   LIG d   1       1.669  85.525 117.614  0.00  0.00     0.006 C 
ENDBRANCH   8  11
ENDBRANCH   7   8
ENDBRANCH   1   7
BRANCH   6  13
ATOM     13  N   LIG d   1       5.543  88.982 117.729  0.00  0.00    -0.311 N 
ATOM     14  C   LIG d   1       5.610  90.311 117.791  0.00  0.00     0.210 C 
ATOM     15  C   LIG d   1       6.474  90.862 118.930  0.00  0.00     0.109 C 
ATOM     16  O   LIG d   1       5.011  91.086 117.031  0.00  0.00    -0.276 OA
ATOM     17  H   LIG d   1       6.034  88.431 118.405  0.00  0.00     0.149 HD
ENDBRANCH   6  13
BRANCH   5  18
ATOM     18  N   LIG d   1       6.761  87.678 115.250  0.00  0.00     0.381 N 
ATOM     19  H   LIG d   1       7.269  87.998 114.450  0.00  0.00    -0.090 HD
ATOM     20  H   LIG d   1       6.630  86.685 115.163  0.00  0.00    -0.090 HD
ATOM     21  H   LIG d   1       7.272  87.882 116.080  0.00  0.00    -0.090 HD
ENDBRANCH   5  18
BRANCH   3  22
ATOM     22  C   LIG d   1       2.480  88.042 113.134  0.00  0.00     0.382 C 
ATOM     23  O   LIG d   1       3.022  87.666 112.067  0.00  0.00    -0.241 OA
ATOM     24  O   LIG d   1       1.295  88.426 113.117  0.00  0.00    -0.241 OA
ENDBRANCH   3  22
TORSDOF 7
ENDMDL
