MODEL 1
REMARK VINA RESULT:      -4.5      0.000      0.000
REMARK  7 active torsions:
REMARK  status: ('A' for Active; 'I' for Inactive)
REMARK    1  A    between atoms: C_2  and  C_3 
REMARK    2  A    between atoms: C_3  and  O_6 
REMARK    3  A    between atoms: C_3  and  C_4 
REMARK    4  A    between atoms: C_7  and  O_6 
REMARK    5  A    between atoms: C_9  and  C_10 
REMARK    6  A    between atoms: N_15  and  C_14 
REMARK    7  A    between atoms: N_20  and  C_19 
REMARK       I    between atoms: C_22  and  N_20 
ROOT
ATOM      1  C   LIG d   1       2.873  88.335 116.195  0.00  0.00     0.161 C 
ATOM      2  C   LIG d   1       3.746  89.096 116.991  0.00  0.00     0.016 C 
ATOM      3  C   LIG d   1       4.971  89.621 116.518  0.00  0.00     0.038 C 
ATOM      4  C   LIG d   1       5.336  89.549 115.165  0.00  0.00     0.028 C 
ATOM      5  C   LIG d   1       4.726  88.357 114.436  0.00  0.00    -0.047 C 
ATOM      6  C   LIG d   1       3.201  88.341 114.688  0.00  0.00     0.091 C 
ENDROOT
BRANCH   1   7
ATOM      7  O   LIG d   1       1.514  88.764 116.414  0.00  0.00    -0.368 OA
BRANCH   7   8
ATOM      8  C   LIG d   1       1.028  88.672 117.776  0.00  0.00     0.119 C 
BRANCH   8   9
ATOM      9  C   LIG d   1      -0.041  87.562 117.811  0.00  0.00     0.028 C 
ATOM     10  C   LIG d   1      -1.436  88.103 118.166  0.00  0.00     0.006 C 
ENDBRANCH   8   9
BRANCH   8  11
ATOM     11  C   LIG d   1       0.299  89.951 118.195  0.00  0.00     0.028 C 
ATOM     12  C   LIG d   1       0.603  91.141 117.271  0.00  0.00     0.006 C 
ENDBRANCH   8  11
ENDBRANCH   7   8
ENDBRANCH   1   7
BRANCH   6  13
ATOM     13  N   LIG d   1       2.538  87.158 114.079  0.00  0.00    -0.311 N 
ATOM     14  C   LIG d   1       1.955  87.180 112.882  0.00  0.00     0.210 C 
ATOM     15  C   LIG d   1       1.313  85.857 112.451  0.00  0.00     0.109 C 
ATOM     16  O   LIG d   1       1.935  88.160 112.123  0.00  0.00    -0.276 OA
ATOM     17  H   LIG d   1       2.535  86.311 114.614  0.00  0.00     0.149 HD
ENDBRANCH   6  13
BRANCH   5  18
ATOM     18  N   LIG d   1       5.076  88.481 113.009  0.00  0.00     0.381 N 
ATOM     19  H   LIG d   1       5.990  88.107 112.850  0.00  0.00    -0.090 HD
ATOM     20  H   LIG d   1       5.085  89.454 112.760  0.00  0.00    -0.090 HD
ATOM     21  H   LIG d   1       4.409  87.995 112.451  0.00  0.00    -0.090 HD
ENDBRANCH   5  18
BRANCH   3  22
ATOM     22  C   LIG d   1       5.864  90.193 117.411  0.00  0.00     0.382 C 
ATOM     23  O   LIG d   1       6.936  89.603 117.691  0.00  0.00    -0.241 OA
ATOM     24  O   LIG d   1       5.591  91.269 117.976  0.00  0.00    -0.241 OA
ENDBRANCH   3  22
TORSDOF 7
ENDMDL
MODEL 2
REMARK VINA RESULT:      -4.4      1.340      2.123
REMARK  7 active torsions:
REMARK  status: ('A' for Active; 'I' for Inactive)
REMARK    1  A    between atoms: C_2  and  C_3 
REMARK    2  A    between atoms: C_3  and  O_6 
REMARK    3  A    between atoms: C_3  and  C_4 
REMARK    4  A    between atoms: C_7  and  O_6 
REMARK    5  A    between atoms: C_9  and  C_10 
REMARK    6  A    between atoms: N_15  and  C_14 
REMARK    7  A    between atoms: N_20  and  C_19 
REMARK       I    between atoms: C_22  and  N_20 
ROOT
ATOM      1  C   LIG d   1       3.347  87.898 115.866  0.00  0.00     0.161 C 
ATOM      2  C   LIG d   1       3.882  88.643 116.930  0.00  0.00     0.016 C 
ATOM      3  C   LIG d   1       4.975  89.528 116.788  0.00  0.00     0.038 C 
ATOM      4  C   LIG d   1       5.515  89.844 115.533  0.00  0.00     0.028 C 
ATOM      5  C   LIG d   1       5.337  88.736 114.501  0.00  0.00    -0.047 C 
ATOM      6  C   LIG d   1       3.850  88.314 114.468  0.00  0.00     0.091 C 
ENDROOT
BRANCH   1   7
ATOM      7  O   LIG d   1       1.907  87.943 115.914  0.00  0.00    -0.368 OA
BRANCH   7   8
ATOM      8  C   LIG d   1       1.243  86.717 116.309  0.00  0.00     0.119 C 
BRANCH   8   9
ATOM      9  C   LIG d   1       0.507  86.995 117.634  0.00  0.00     0.028 C 
ATOM     10  C   LIG d   1       0.030  88.453 117.745  0.00  0.00     0.006 C 
ENDBRANCH   8   9
BRANCH   8  11
ATOM     11  C   LIG d   1       2.256  85.614 116.631  0.00  0.00     0.028 C 
ATOM     12  C   LIG d   1       2.477  85.431 118.141  0.00  0.00     0.006 C 
ENDBRANCH   8  11
ENDBRANCH   7   8
ENDBRANCH   1   7
BRANCH   6  13
ATOM     13  N   LIG d   1       3.604  87.176 113.545  0.00  0.00    -0.311 N 
ATOM     14  C   LIG d   1       2.759  87.235 112.517  0.00  0.00     0.210 C 
ATOM     15  C   LIG d   1       2.639  85.943 111.703  0.00  0.00     0.109 C 
ATOM     16  O   LIG d   1       2.121  88.245 112.184  0.00  0.00    -0.276 OA
ATOM     17  H   LIG d   1       4.104  86.327 113.724  0.00  0.00     0.149 HD
ENDBRANCH   6  13
BRANCH   5  18
ATOM     18  N   LIG d   1       5.820  89.251 113.206  0.00  0.00     0.381 N 
ATOM     19  H   LIG d   1       5.044  89.553 112.650  0.00  0.00    -0.090 HD
ATOM     20  H   LIG d   1       6.289  88.510 112.715  0.00  0.00    -0.090 HD
ATOM     21  H   LIG d   1       6.447  90.011 113.353  0.00  0.00    -0.090 HD
ENDBRANCH   5  18
BRANCH   3  22
ATOM     22  C   LIG d   1       5.566  90.077 117.916  0.00  0.00     0.382 C 
ATOM     23  O   LIG d   1       5.466  91.307 118.141  0.00  0.00    -0.241 OA
ATOM     24  O   LIG d   1       6.236  89.365 118.689  0.00  0.00    -0.241 OA
ENDBRANCH   3  22
TORSDOF 7
ENDMDL
MODEL 3
REMARK VINA RESULT:      -3.7      7.102      9.712
REMARK  7 active torsions:
REMARK  status: ('A' for Active; 'I' for Inactive)
REMARK    1  A    between atoms: C_2  and  C_3 
REMARK    2  A    between atoms: C_3  and  O_6 
REMARK    3  A    between atoms: C_3  and  C_4 
REMARK    4  A    between atoms: C_7  and  O_6 
REMARK    5  A    between atoms: C_9  and  C_10 
REMARK    6  A    between atoms: N_15  and  C_14 
REMARK    7  A    between atoms: N_20  and  C_19 
REMARK       I    between atoms: C_22  and  N_20 
ROOT
ATOM      1  C   LIG d   1      -4.117  92.924 118.051  0.00  0.00     0.161 C 
ATOM      2  C   LIG d   1      -4.041  94.262 118.471  0.00  0.00     0.016 C 
ATOM      3  C   LIG d   1      -5.173  95.097 118.617  0.00  0.00     0.038 C 
ATOM      4  C   LIG d   1      -6.480  94.602 118.496  0.00  0.00     0.028 C 
ATOM      5  C   LIG d   1      -6.585  93.386 117.581  0.00  0.00    -0.047 C 
ATOM      6  C   LIG d   1      -5.542  92.334 118.022  0.00  0.00     0.091 C 
ENDROOT
BRANCH   1   7
ATOM      7  O   LIG d   1      -3.253  92.107 118.865  0.00  0.00    -0.368 OA
BRANCH   7   8
ATOM      8  C   LIG d   1      -2.065  91.591 118.216  0.00  0.00     0.119 C 
BRANCH   8   9
ATOM      9  C   LIG d   1      -1.858  90.146 118.709  0.00  0.00     0.028 C 
ATOM     10  C   LIG d   1      -0.763  89.408 117.921  0.00  0.00     0.006 C 
ENDBRANCH   8   9
BRANCH   8  11
ATOM     11  C   LIG d   1      -0.812  92.353 118.658  0.00  0.00     0.028 C 
ATOM     12  C   LIG d   1       0.163  92.621 117.501  0.00  0.00     0.006 C 
ENDBRANCH   8  11
ENDBRANCH   7   8
ENDBRANCH   1   7
BRANCH   6  13
ATOM     13  N   LIG d   1      -5.520  91.148 117.127  0.00  0.00    -0.311 N 
ATOM     14  C   LIG d   1      -5.878  91.191 115.844  0.00  0.00     0.210 C 
ATOM     15  C   LIG d   1      -5.800  89.850 115.107  0.00  0.00     0.109 C 
ATOM     16  O   LIG d   1      -6.221  92.217 115.239  0.00  0.00    -0.276 OA
ATOM     17  H   LIG d   1      -5.224  90.280 117.528  0.00  0.00     0.149 HD
ENDBRANCH   6  13
BRANCH   5  18
ATOM     18  N   LIG d   1      -7.973  92.891 117.655  0.00  0.00     0.381 N 
ATOM     19  H   LIG d   1      -8.582  93.632 117.938  0.00  0.00    -0.090 HD
ATOM     20  H   LIG d   1      -8.021  92.162 118.344  0.00  0.00    -0.090 HD
ATOM     21  H   LIG d   1      -8.257  92.539 116.767  0.00  0.00    -0.090 HD
ENDBRANCH   5  18
BRANCH   3  22
ATOM     22  C   LIG d   1      -5.002  96.454 118.847  0.00  0.00     0.382 C 
ATOM     23  O   LIG d   1      -6.002  97.207 118.929  0.00  0.00    -0.241 OA
ATOM     24  O   LIG d   1      -3.859  96.941 118.930  0.00  0.00    -0.241 OA
ENDBRANCH   3  22
TORSDOF 7
ENDMDL
MODEL 4
REMARK VINA RESULT:      -3.7      6.528      9.190
REMARK  7 active torsions:
REMARK  status: ('A' for Active; 'I' for Inactive)
REMARK    1  A    between atoms: C_2  and  C_3 
REMARK    2  A    between atoms: C_3  and  O_6 
REMARK    3  A    between atoms: C_3  and  C_4 
REMARK    4  A    between atoms: C_7  and  O_6 
REMARK    5  A    between atoms: C_9  and  C_10 
REMARK    6  A    between atoms: N_15  and  C_14 
REMARK    7  A    between atoms: N_20  and  C_19 
REMARK       I    between atoms: C_22  and  N_20 
ROOT
ATOM      1  C   LIG d   1      -4.836  91.384 117.850  0.00  0.00     0.161 C 
ATOM      2  C   LIG d   1      -5.408  92.658 118.000  0.00  0.00     0.016 C 
ATOM      3  C   LIG d   1      -4.678  93.793 118.422  0.00  0.00     0.038 C 
ATOM      4  C   LIG d   1      -3.284  93.763 118.579  0.00  0.00     0.028 C 
ATOM      5  C   LIG d   1      -2.744  92.380 118.927  0.00  0.00    -0.047 C 
ATOM      6  C   LIG d   1      -3.295  91.355 117.909  0.00  0.00     0.091 C 
ENDROOT
BRANCH   1   7
ATOM      7  O   LIG d   1      -5.302  90.780 116.627  0.00  0.00    -0.368 OA
BRANCH   7   8
ATOM      8  C   LIG d   1      -6.597  91.222 116.151  0.00  0.00     0.119 C 
BRANCH   8   9
ATOM      9  C   LIG d   1      -7.656  90.270 116.741  0.00  0.00     0.028 C 
ATOM     10  C   LIG d   1      -8.480  89.562 115.652  0.00  0.00     0.006 C 
ENDBRANCH   8   9
BRANCH   8  11
ATOM     11  C   LIG d   1      -6.715  91.068 114.632  0.00  0.00     0.028 C 
ATOM     12  C   LIG d   1      -7.220  92.345 113.941  0.00  0.00     0.006 C 
ENDBRANCH   8  11
ENDBRANCH   7   8
ENDBRANCH   1   7
BRANCH   6  13
ATOM     13  N   LIG d   1      -2.882  89.963 118.227  0.00  0.00    -0.311 N 
ATOM     14  C   LIG d   1      -1.677  89.473 117.944  0.00  0.00     0.210 C 
ATOM     15  C   LIG d   1      -1.466  88.008 118.339  0.00  0.00     0.109 C 
ATOM     16  O   LIG d   1      -0.751  90.121 117.433  0.00  0.00    -0.276 OA
ATOM     17  H   LIG d   1      -3.562  89.376 118.671  0.00  0.00     0.149 HD
ENDBRANCH   6  13
BRANCH   5  18
ATOM     18  N   LIG d   1      -1.271  92.463 118.925  0.00  0.00     0.381 N 
ATOM     19  H   LIG d   1      -0.986  93.419 118.845  0.00  0.00    -0.090 HD
ATOM     20  H   LIG d   1      -0.919  91.961 118.129  0.00  0.00    -0.090 HD
ATOM     21  H   LIG d   1      -0.906  92.069 119.764  0.00  0.00    -0.090 HD
ENDBRANCH   5  18
BRANCH   3  22
ATOM     22  C   LIG d   1      -5.350  94.966 118.731  0.00  0.00     0.382 C 
ATOM     23  O   LIG d   1      -6.604  94.980 118.767  0.00  0.00    -0.241 OA
ATOM     24  O   LIG d   1      -4.719  96.022 118.929  0.00  0.00    -0.241 OA
ENDBRANCH   3  22
TORSDOF 7
ENDMDL
MODEL 5
REMARK VINA RESULT:      -3.6      2.250      4.697
REMARK  7 active torsions:
REMARK  status: ('A' for Active; 'I' for Inactive)
REMARK    1  A    between atoms: C_2  and  C_3 
REMARK    2  A    between atoms: C_3  and  O_6 
REMARK    3  A    between atoms: C_3  and  C_4 
REMARK    4  A    between atoms: C_7  and  O_6 
REMARK    5  A    between atoms: C_9  and  C_10 
REMARK    6  A    between atoms: N_15  and  C_14 
REMARK    7  A    between atoms: N_20  and  C_19 
REMARK       I    between atoms: C_22  and  N_20 
ROOT
ATOM      1  C   LIG d   1       4.504  88.814 115.653  0.00  0.00     0.161 C 
ATOM      2  C   LIG d   1       4.289  89.978 116.410  0.00  0.00     0.016 C 
ATOM      3  C   LIG d   1       3.174  90.158 117.261  0.00  0.00     0.038 C 
ATOM      4  C   LIG d   1       2.270  89.119 117.529  0.00  0.00     0.028 C 
ATOM      5  C   LIG d   1       2.166  88.100 116.399  0.00  0.00    -0.047 C 
ATOM      6  C   LIG d   1       3.588  87.627 116.018  0.00  0.00     0.091 C 
ENDROOT
BRANCH   1   7
ATOM      7  O   LIG d   1       5.888  88.423 115.739  0.00  0.00    -0.368 OA
BRANCH   7   8
ATOM      8  C   LIG d   1       6.294  87.781 116.973  0.00  0.00     0.119 C 
BRANCH   8   9
ATOM      9  C   LIG d   1       7.358  88.678 117.634  0.00  0.00     0.028 C 
ATOM     10  C   LIG d   1       6.845  89.346 118.922  0.00  0.00     0.006 C 
ENDBRANCH   8   9
BRANCH   8  11
ATOM     11  C   LIG d   1       6.998  86.448 116.702  0.00  0.00     0.028 C 
ATOM     12  C   LIG d   1       8.487  86.620 116.359  0.00  0.00     0.006 C 
ENDBRANCH   8  11
ENDBRANCH   7   8
ENDBRANCH   1   7
BRANCH   6  13
ATOM     13  N   LIG d   1       3.583  86.691 114.864  0.00  0.00    -0.311 N 
ATOM     14  C   LIG d   1       3.024  86.978 113.689  0.00  0.00     0.210 C 
ATOM     15  C   LIG d   1       3.114  85.865 112.641  0.00  0.00     0.109 C 
ATOM     16  O   LIG d   1       2.491  88.062 113.406  0.00  0.00    -0.276 OA
ATOM     17  H   LIG d   1       4.022  85.801 114.996  0.00  0.00     0.149 HD
ENDBRANCH   6  13
BRANCH   5  18
ATOM     18  N   LIG d   1       1.298  87.003 116.867  0.00  0.00     0.381 N 
ATOM     19  H   LIG d   1       1.721  86.122 116.654  0.00  0.00    -0.090 HD
ATOM     20  H   LIG d   1       0.418  87.056 116.385  0.00  0.00    -0.090 HD
ATOM     21  H   LIG d   1       1.152  87.080 117.850  0.00  0.00    -0.090 HD
ENDBRANCH   5  18
BRANCH   3  22
ATOM     22  C   LIG d   1       2.932  91.403 117.822  0.00  0.00     0.382 C 
ATOM     23  O   LIG d   1       1.889  92.033 117.524  0.00  0.00    -0.241 OA
ATOM     24  O   LIG d   1       3.765  91.923 118.588  0.00  0.00    -0.241 OA
ENDBRANCH   3  22
TORSDOF 7
ENDMDL
MODEL 6
REMARK VINA RESULT:      -3.4      7.492     10.211
REMARK  7 active torsions:
REMARK  status: ('A' for Active; 'I' for Inactive)
REMARK    1  A    between atoms: C_2  and  C_3 
REMARK    2  A    between atoms: C_3  and  O_6 
REMARK    3  A    between atoms: C_3  and  C_4 
REMARK    4  A    between atoms: C_7  and  O_6 
REMARK    5  A    between atoms: C_9  and  C_10 
REMARK    6  A    between atoms: N_15  and  C_14 
REMARK    7  A    between atoms: N_20  and  C_19 
REMARK       I    between atoms: C_22  and  N_20 
ROOT
ATOM      1  C   LIG d   1      -5.066  92.607 117.755  0.00  0.00     0.161 C 
ATOM      2  C   LIG d   1      -5.420  93.801 118.406  0.00  0.00     0.016 C 
ATOM      3  C   LIG d   1      -6.556  94.568 118.061  0.00  0.00     0.038 C 
ATOM      4  C   LIG d   1      -7.506  94.111 117.135  0.00  0.00     0.028 C 
ATOM      5  C   LIG d   1      -6.928  93.159 116.094  0.00  0.00    -0.047 C 
ATOM      6  C   LIG d   1      -6.150  92.036 116.818  0.00  0.00     0.091 C 
ENDROOT
BRANCH   1   7
ATOM      7  O   LIG d   1      -4.672  91.619 118.727  0.00  0.00    -0.368 OA
BRANCH   7   8
ATOM      8  C   LIG d   1      -3.255  91.325 118.799  0.00  0.00     0.119 C 
BRANCH   8   9
ATOM      9  C   LIG d   1      -2.498  92.578 118.320  0.00  0.00     0.028 C 
ATOM     10  C   LIG d   1      -0.983  92.480 118.571  0.00  0.00     0.006 C 
ENDBRANCH   8   9
BRANCH   8  11
ATOM     11  C   LIG d   1      -2.865  90.215 117.818  0.00  0.00     0.028 C 
ATOM     12  C   LIG d   1      -2.510  88.896 118.522  0.00  0.00     0.006 C 
ENDBRANCH   8  11
ENDBRANCH   7   8
ENDBRANCH   1   7
BRANCH   6  13
ATOM     13  N   LIG d   1      -5.481  91.107 115.869  0.00  0.00    -0.311 N 
ATOM     14  C   LIG d   1      -6.067  90.018 115.374  0.00  0.00     0.210 C 
ATOM     15  C   LIG d   1      -5.193  89.188 114.428  0.00  0.00     0.109 C 
ATOM     16  O   LIG d   1      -7.237  89.678 115.603  0.00  0.00    -0.276 OA
ATOM     17  H   LIG d   1      -4.540  91.325 115.605  0.00  0.00     0.149 HD
ENDBRANCH   6  13
BRANCH   5  18
ATOM     18  N   LIG d   1      -8.049  92.654 115.280  0.00  0.00     0.381 N 
ATOM     19  H   LIG d   1      -7.800  91.779 114.865  0.00  0.00    -0.090 HD
ATOM     20  H   LIG d   1      -8.238  93.311 114.543  0.00  0.00    -0.090 HD
ATOM     21  H   LIG d   1      -8.859  92.541 115.849  0.00  0.00    -0.090 HD
ENDBRANCH   5  18
BRANCH   3  22
ATOM     22  C   LIG d   1      -6.730  95.826 118.617  0.00  0.00     0.382 C 
ATOM     23  O   LIG d   1      -5.731  96.517 118.930  0.00  0.00    -0.241 OA
ATOM     24  O   LIG d   1      -7.874  96.262 118.849  0.00  0.00    -0.241 OA
ENDBRANCH   3  22
TORSDOF 7
ENDMDL
MODEL 7
REMARK VINA RESULT:      -3.2      2.655      4.309
REMARK  7 active torsions:
REMARK  status: ('A' for Active; 'I' for Inactive)
REMARK    1  A    between atoms: C_2  and  C_3 
REMARK    2  A    between atoms: C_3  and  O_6 
REMARK    3  A    between atoms: C_3  and  C_4 
REMARK    4  A    between atoms: C_7  and  O_6 
REMARK    5  A    between atoms: C_9  and  C_10 
REMARK    6  A    between atoms: N_15  and  C_14 
REMARK    7  A    between atoms: N_20  and  C_19 
REMARK       I    between atoms: C_22  and  N_20 
ROOT
ATOM      1  C   LIG d   1       2.760  88.508 116.523  0.00  0.00     0.161 C 
ATOM      2  C   LIG d   1       3.580  88.342 115.395  0.00  0.00     0.016 C 
ATOM      3  C   LIG d   1       4.656  89.204 115.082  0.00  0.00     0.038 C 
ATOM      4  C   LIG d   1       5.082  90.209 115.964  0.00  0.00     0.028 C 
ATOM      5  C   LIG d   1       3.971  90.731 116.869  0.00  0.00    -0.047 C 
ATOM      6  C   LIG d   1       3.278  89.531 117.555  0.00  0.00     0.091 C 
ENDROOT
BRANCH   1   7
ATOM      7  O   LIG d   1       2.533  87.232 117.154  0.00  0.00    -0.368 OA
BRANCH   7   8
ATOM      8  C   LIG d   1       1.314  86.543 116.780  0.00  0.00     0.119 C 
BRANCH   8   9
ATOM      9  C   LIG d   1       0.784  85.825 118.036  0.00  0.00     0.028 C 
ATOM     10  C   LIG d   1      -0.190  86.698 118.844  0.00  0.00     0.006 C 
ENDBRANCH   8   9
BRANCH   8  11
ATOM     11  C   LIG d   1       1.592  85.432 115.763  0.00  0.00     0.028 C 
ATOM     12  C   LIG d   1       1.200  85.823 114.330  0.00  0.00     0.006 C 
ENDBRANCH   8  11
ENDBRANCH   7   8
ENDBRANCH   1   7
BRANCH   6  13
ATOM     13  N   LIG d   1       2.124  89.948 118.394  0.00  0.00    -0.311 N 
ATOM     14  C   LIG d   1       0.960  90.355 117.890  0.00  0.00     0.210 C 
ATOM     15  C   LIG d   1      -0.090  90.758 118.930  0.00  0.00     0.109 C 
ATOM     16  O   LIG d   1       0.687  90.391 116.681  0.00  0.00    -0.276 OA
ATOM     17  H   LIG d   1       2.248  89.920 119.387  0.00  0.00     0.149 HD
ENDBRANCH   6  13
BRANCH   5  18
ATOM     18  N   LIG d   1       4.582  91.671 117.828  0.00  0.00     0.381 N 
ATOM     19  H   LIG d   1       5.358  92.135 117.400  0.00  0.00    -0.090 HD
ATOM     20  H   LIG d   1       4.922  91.153 118.619  0.00  0.00    -0.090 HD
ATOM     21  H   LIG d   1       3.908  92.341 118.125  0.00  0.00    -0.090 HD
ENDBRANCH   5  18
BRANCH   3  22
ATOM     22  C   LIG d   1       5.294  89.090 113.856  0.00  0.00     0.382 C 
ATOM     23  O   LIG d   1       4.717  89.477 112.811  0.00  0.00    -0.241 OA
ATOM     24  O   LIG d   1       6.421  88.565 113.777  0.00  0.00    -0.241 OA
ENDBRANCH   3  22
TORSDOF 7
ENDMDL
MODEL 8
REMARK VINA RESULT:      -3.1      2.997      4.493
REMARK  7 active torsions:
REMARK  status: ('A' for Active; 'I' for Inactive)
REMARK    1  A    between atoms: C_2  and  C_3 
REMARK    2  A    between atoms: C_3  and  O_6 
REMARK    3  A    between atoms: C_3  and  C_4 
REMARK    4  A    between atoms: C_7  and  O_6 
REMARK    5  A    between atoms: C_9  and  C_10 
REMARK    6  A    between atoms: N_15  and  C_14 
REMARK    7  A    between atoms: N_20  and  C_19 
REMARK       I    between atoms: C_22  and  N_20 
ROOT
ATOM      1  C   LIG d   1       1.974  89.297 117.787  0.00  0.00     0.161 C 
ATOM      2  C   LIG d   1       2.581  88.465 116.831  0.00  0.00     0.016 C 
ATOM      3  C   LIG d   1       3.761  88.813 116.135  0.00  0.00     0.038 C 
ATOM      4  C   LIG d   1       4.503  89.958 116.458  0.00  0.00     0.028 C 
ATOM      5  C   LIG d   1       3.660  91.076 117.063  0.00  0.00    -0.047 C 
ATOM      6  C   LIG d   1       2.830  90.501 118.234  0.00  0.00     0.091 C 
ENDROOT
BRANCH   1   7
ATOM      7  O   LIG d   1       1.573  88.516 118.930  0.00  0.00    -0.368 OA
BRANCH   7   8
ATOM      8  C   LIG d   1       0.224  87.988 118.900  0.00  0.00     0.119 C 
BRANCH   8   9
ATOM      9  C   LIG d   1       0.230  86.756 117.974  0.00  0.00     0.028 C 
ATOM     10  C   LIG d   1       0.189  85.433 118.757  0.00  0.00     0.006 C 
ENDBRANCH   8   9
BRANCH   8  11
ATOM     11  C   LIG d   1      -0.748  88.979 118.250  0.00  0.00     0.028 C 
ATOM     12  C   LIG d   1      -2.198  88.470 118.240  0.00  0.00     0.006 C 
ENDBRANCH   8  11
ENDBRANCH   7   8
ENDBRANCH   1   7
BRANCH   6  13
ATOM     13  N   LIG d   1       1.913  91.509 118.827  0.00  0.00    -0.311 N 
ATOM     14  C   LIG d   1       0.980  92.153 118.129  0.00  0.00     0.210 C 
ATOM     15  C   LIG d   1       0.156  93.166 118.930  0.00  0.00     0.109 C 
ATOM     16  O   LIG d   1       0.735  91.958 116.929  0.00  0.00    -0.276 OA
ATOM     17  H   LIG d   1       2.022  91.705 119.803  0.00  0.00     0.149 HD
ENDBRANCH   6  13
BRANCH   5  18
ATOM     18  N   LIG d   1       4.578  92.152 117.479  0.00  0.00     0.381 N 
ATOM     19  H   LIG d   1       4.145  92.713 118.185  0.00  0.00    -0.090 HD
ATOM     20  H   LIG d   1       4.773  92.738 116.686  0.00  0.00    -0.090 HD
ATOM     21  H   LIG d   1       5.426  91.761 117.828  0.00  0.00    -0.090 HD
ENDBRANCH   5  18
BRANCH   3  22
ATOM     22  C   LIG d   1       4.188  88.029 115.073  0.00  0.00     0.382 C 
ATOM     23  O   LIG d   1       4.535  86.840 115.272  0.00  0.00    -0.241 OA
ATOM     24  O   LIG d   1       4.274  88.510 113.927  0.00  0.00    -0.241 OA
ENDBRANCH   3  22
TORSDOF 7
ENDMDL
MODEL 9
REMARK VINA RESULT:      -2.9      2.037      4.509
REMARK  7 active torsions:
REMARK  status: ('A' for Active; 'I' for Inactive)
REMARK    1  A    between atoms: C_2  and  C_3 
REMARK    2  A    between atoms: C_3  and  O_6 
REMARK    3  A    between atoms: C_3  and  C_4 
REMARK    4  A    between atoms: C_7  and  O_6 
REMARK    5  A    between atoms: C_9  and  C_10 
REMARK    6  A    between atoms: N_15  and  C_14 
REMARK    7  A    between atoms: N_20  and  C_19 
REMARK       I    between atoms: C_22  and  N_20 
ROOT
ATOM      1  C   LIG d   1       3.273  88.171 116.768  0.00  0.00     0.161 C 
ATOM      2  C   LIG d   1       2.596  87.403 115.806  0.00  0.00     0.016 C 
ATOM      3  C   LIG d   1       2.971  87.356 114.444  0.00  0.00     0.038 C 
ATOM      4  C   LIG d   1       4.148  87.959 113.977  0.00  0.00     0.028 C 
ATOM      5  C   LIG d   1       4.585  89.159 114.811  0.00  0.00    -0.047 C 
ATOM      6  C   LIG d   1       4.626  88.747 116.300  0.00  0.00     0.091 C 
ENDROOT
BRANCH   1   7
ATOM      7  O   LIG d   1       3.447  87.401 117.974  0.00  0.00    -0.368 OA
BRANCH   7   8
ATOM      8  C   LIG d   1       2.327  87.393 118.893  0.00  0.00     0.119 C 
BRANCH   8   9
ATOM      9  C   LIG d   1       1.769  85.957 118.930  0.00  0.00     0.028 C 
ATOM     10  C   LIG d   1       0.320  85.878 118.419  0.00  0.00     0.006 C 
ENDBRANCH   8   9
BRANCH   8  11
ATOM     11  C   LIG d   1       1.177  88.262 118.376  0.00  0.00     0.028 C 
ATOM     12  C   LIG d   1       1.217  89.695 118.930  0.00  0.00     0.006 C 
ENDBRANCH   8  11
ENDBRANCH   7   8
ENDBRANCH   1   7
BRANCH   6  13
ATOM     13  N   LIG d   1       4.963  89.886 117.194  0.00  0.00    -0.311 N 
ATOM     14  C   LIG d   1       4.234  90.998 117.272  0.00  0.00     0.210 C 
ATOM     15  C   LIG d   1       4.770  92.056 118.242  0.00  0.00     0.109 C 
ATOM     16  O   LIG d   1       3.177  91.195 116.654  0.00  0.00    -0.276 OA
ATOM     17  H   LIG d   1       5.788  89.797 117.754  0.00  0.00     0.149 HD
ENDBRANCH   6  13
BRANCH   5  18
ATOM     18  N   LIG d   1       5.895  89.605 114.298  0.00  0.00     0.381 N 
ATOM     19  H   LIG d   1       5.932  89.475 113.307  0.00  0.00    -0.090 HD
ATOM     20  H   LIG d   1       6.616  89.044 114.717  0.00  0.00    -0.090 HD
ATOM     21  H   LIG d   1       6.039  90.565 114.521  0.00  0.00    -0.090 HD
ENDBRANCH   5  18
BRANCH   3  22
ATOM     22  C   LIG d   1       2.141  86.733 113.524  0.00  0.00     0.382 C 
ATOM     23  O   LIG d   1       2.140  85.481 113.429  0.00  0.00    -0.241 OA
ATOM     24  O   LIG d   1       1.427  87.407 112.758  0.00  0.00    -0.241 OA
ENDBRANCH   3  22
TORSDOF 7
ENDMDL
