MODEL 1
REMARK VINA RESULT:      -5.0      0.000      0.000
REMARK  7 active torsions:
REMARK  status: ('A' for Active; 'I' for Inactive)
REMARK    1  A    between atoms: C_2  and  C_3 
REMARK    2  A    between atoms: C_3  and  O_6 
REMARK    3  A    between atoms: C_3  and  C_4 
REMARK    4  A    between atoms: C_7  and  O_6 
REMARK    5  A    between atoms: C_9  and  C_10 
REMARK    6  A    between atoms: N_15  and  C_14 
REMARK    7  A    between atoms: N_20  and  C_19 
REMARK       I    between atoms: C_22  and  N_20 
ROOT
ATOM      1  C   LIG d   1       2.669  88.067 116.182  0.00  0.00     0.161 C 
ATOM      2  C   LIG d   1       2.987  88.899 117.268  0.00  0.00     0.016 C 
ATOM      3  C   LIG d   1       3.940  89.942 117.196  0.00  0.00     0.038 C 
ATOM      4  C   LIG d   1       4.533  90.322 115.983  0.00  0.00     0.028 C 
ATOM      5  C   LIG d   1       4.620  89.187 114.969  0.00  0.00    -0.047 C 
ATOM      6  C   LIG d   1       3.224  88.538 114.821  0.00  0.00     0.091 C 
ENDROOT
BRANCH   1   7
ATOM      7  O   LIG d   1       1.241  87.887 116.105  0.00  0.00    -0.368 OA
BRANCH   7   8
ATOM      8  C   LIG d   1       0.566  87.611 117.357  0.00  0.00     0.119 C 
BRANCH   8   9
ATOM      9  C   LIG d   1       0.321  86.092 117.425  0.00  0.00     0.028 C 
ATOM     10  C   LIG d   1      -0.658  85.705 118.547  0.00  0.00     0.006 C 
ENDBRANCH   8   9
BRANCH   8  11
ATOM     11  C   LIG d   1      -0.827  88.249 117.391  0.00  0.00     0.028 C 
ATOM     12  C   LIG d   1      -0.780  89.772 117.591  0.00  0.00     0.006 C 
ENDBRANCH   8  11
ENDBRANCH   7   8
ENDBRANCH   1   7
BRANCH   6  13
ATOM     13  N   LIG d   1       3.239  87.364 113.911  0.00  0.00    -0.311 N 
ATOM     14  C   LIG d   1       2.561  87.316 112.765  0.00  0.00     0.210 C 
ATOM     15  C   LIG d   1       2.698  86.003 111.987  0.00  0.00     0.109 C 
ATOM     16  O   LIG d   1       1.885  88.248 112.304  0.00  0.00    -0.276 OA
ATOM     17  H   LIG d   1       3.787  86.575 114.192  0.00  0.00     0.149 HD
ENDBRANCH   6  13
BRANCH   5  18
ATOM     18  N   LIG d   1       5.130  89.755 113.707  0.00  0.00     0.381 N 
ATOM     19  H   LIG d   1       4.807  90.696 113.604  0.00  0.00    -0.090 HD
ATOM     20  H   LIG d   1       4.772  89.214 112.939  0.00  0.00    -0.090 HD
ATOM     21  H   LIG d   1       6.126  89.734 113.701  0.00  0.00    -0.090 HD
ENDBRANCH   5  18
BRANCH   3  22
ATOM     22  C   LIG d   1       4.337  90.590 118.355  0.00  0.00     0.382 C 
ATOM     23  O   LIG d   1       3.554  91.384 118.930  0.00  0.00    -0.241 OA
ATOM     24  O   LIG d   1       5.485  90.426 118.810  0.00  0.00    -0.241 OA
ENDBRANCH   3  22
TORSDOF 7
ENDMDL
MODEL 2
REMARK VINA RESULT:      -4.9      6.870      9.372
REMARK  7 active torsions:
REMARK  status: ('A' for Active; 'I' for Inactive)
REMARK    1  A    between atoms: C_2  and  C_3 
REMARK    2  A    between atoms: C_3  and  O_6 
REMARK    3  A    between atoms: C_3  and  C_4 
REMARK    4  A    between atoms: C_7  and  O_6 
REMARK    5  A    between atoms: C_9  and  C_10 
REMARK    6  A    between atoms: N_15  and  C_14 
REMARK    7  A    between atoms: N_20  and  C_19 
REMARK       I    between atoms: C_22  and  N_20 
ROOT
ATOM      1  C   LIG d   1      -5.102  90.980 116.654  0.00  0.00     0.161 C 
ATOM      2  C   LIG d   1      -4.038  90.075 116.803  0.00  0.00     0.016 C 
ATOM      3  C   LIG d   1      -2.896  90.340 117.594  0.00  0.00     0.038 C 
ATOM      4  C   LIG d   1      -2.810  91.474 118.415  0.00  0.00     0.028 C 
ATOM      5  C   LIG d   1      -3.633  92.653 117.909  0.00  0.00    -0.047 C 
ATOM      6  C   LIG d   1      -5.076  92.175 117.631  0.00  0.00     0.091 C 
ENDROOT
BRANCH   1   7
ATOM      7  O   LIG d   1      -6.358  90.280 116.753  0.00  0.00    -0.368 OA
BRANCH   7   8
ATOM      8  C   LIG d   1      -7.005  89.952 115.499  0.00  0.00     0.119 C 
BRANCH   8   9
ATOM      9  C   LIG d   1      -6.531  90.978 114.452  0.00  0.00     0.028 C 
ATOM     10  C   LIG d   1      -7.694  91.559 113.631  0.00  0.00     0.006 C 
ENDBRANCH   8   9
BRANCH   8  11
ATOM     11  C   LIG d   1      -8.523  90.138 115.591  0.00  0.00     0.028 C 
ATOM     12  C   LIG d   1      -9.189  89.137 116.547  0.00  0.00     0.006 C 
ENDBRANCH   8  11
ENDBRANCH   7   8
ENDBRANCH   1   7
BRANCH   6  13
ATOM     13  N   LIG d   1      -5.927  93.247 117.052  0.00  0.00    -0.311 N 
ATOM     14  C   LIG d   1      -6.975  93.773 117.685  0.00  0.00     0.210 C 
ATOM     15  C   LIG d   1      -7.728  94.853 116.901  0.00  0.00     0.109 C 
ATOM     16  O   LIG d   1      -7.333  93.471 118.833  0.00  0.00    -0.276 OA
ATOM     17  H   LIG d   1      -5.689  93.574 116.136  0.00  0.00     0.149 HD
ENDBRANCH   6  13
BRANCH   5  18
ATOM     18  N   LIG d   1      -3.562  93.717 118.928  0.00  0.00     0.381 N 
ATOM     19  H   LIG d   1      -4.047  94.529 118.604  0.00  0.00    -0.090 HD
ATOM     20  H   LIG d   1      -2.599  93.962 119.076  0.00  0.00    -0.090 HD
ATOM     21  H   LIG d   1      -3.966  93.398 119.782  0.00  0.00    -0.090 HD
ENDBRANCH   5  18
BRANCH   3  22
ATOM     22  C   LIG d   1      -1.807  89.483 117.536  0.00  0.00     0.382 C 
ATOM     23  O   LIG d   1      -0.703  89.901 117.112  0.00  0.00    -0.241 OA
ATOM     24  O   LIG d   1      -1.927  88.287 117.861  0.00  0.00    -0.241 OA
ENDBRANCH   3  22
TORSDOF 7
ENDMDL
MODEL 3
REMARK VINA RESULT:      -4.4      2.951      5.699
REMARK  7 active torsions:
REMARK  status: ('A' for Active; 'I' for Inactive)
REMARK    1  A    between atoms: C_2  and  C_3 
REMARK    2  A    between atoms: C_3  and  O_6 
REMARK    3  A    between atoms: C_3  and  C_4 
REMARK    4  A    between atoms: C_7  and  O_6 
REMARK    5  A    between atoms: C_9  and  C_10 
REMARK    6  A    between atoms: N_15  and  C_14 
REMARK    7  A    between atoms: N_20  and  C_19 
REMARK       I    between atoms: C_22  and  N_20 
ROOT
ATOM      1  C   LIG d   1       0.748  88.883 117.451  0.00  0.00     0.161 C 
ATOM      2  C   LIG d   1      -0.649  88.748 117.390  0.00  0.00     0.016 C 
ATOM      3  C   LIG d   1      -1.546  89.798 117.693  0.00  0.00     0.038 C 
ATOM      4  C   LIG d   1      -1.102  91.107 117.932  0.00  0.00     0.028 C 
ATOM      5  C   LIG d   1       0.312  91.172 118.499  0.00  0.00    -0.047 C 
ATOM      6  C   LIG d   1       1.252  90.333 117.602  0.00  0.00     0.091 C 
ENDROOT
BRANCH   1   7
ATOM      7  O   LIG d   1       1.350  88.261 116.298  0.00  0.00    -0.368 OA
BRANCH   7   8
ATOM      8  C   LIG d   1       2.205  87.122 116.561  0.00  0.00     0.119 C 
BRANCH   8   9
ATOM      9  C   LIG d   1       3.514  87.334 115.777  0.00  0.00     0.028 C 
ATOM     10  C   LIG d   1       3.502  88.635 114.956  0.00  0.00     0.006 C 
ENDBRANCH   8   9
BRANCH   8  11
ATOM     11  C   LIG d   1       1.601  85.831 116.001  0.00  0.00     0.028 C 
ATOM     12  C   LIG d   1       0.836  86.052 114.687  0.00  0.00     0.006 C 
ENDBRANCH   8  11
ENDBRANCH   7   8
ENDBRANCH   1   7
BRANCH   6  13
ATOM     13  N   LIG d   1       2.639  90.275 118.133  0.00  0.00    -0.311 N 
ATOM     14  C   LIG d   1       3.609  91.099 117.740  0.00  0.00     0.210 C 
ATOM     15  C   LIG d   1       4.971  90.854 118.398  0.00  0.00     0.109 C 
ATOM     16  O   LIG d   1       3.464  92.029 116.934  0.00  0.00    -0.276 OA
ATOM     17  H   LIG d   1       2.837  89.569 118.815  0.00  0.00     0.149 HD
ENDBRANCH   6  13
BRANCH   5  18
ATOM     18  N   LIG d   1       0.699  92.594 118.571  0.00  0.00     0.381 N 
ATOM     19  H   LIG d   1       0.215  93.038 119.325  0.00  0.00    -0.090 HD
ATOM     20  H   LIG d   1       0.431  93.047 117.714  0.00  0.00    -0.090 HD
ATOM     21  H   LIG d   1       1.683  92.674 118.704  0.00  0.00    -0.090 HD
ENDBRANCH   5  18
BRANCH   3  22
ATOM     22  C   LIG d   1      -2.903  89.533 117.797  0.00  0.00     0.382 C 
ATOM     23  O   LIG d   1      -3.720  90.156 117.076  0.00  0.00    -0.241 OA
ATOM     24  O   LIG d   1      -3.324  88.712 118.634  0.00  0.00    -0.241 OA
ENDBRANCH   3  22
TORSDOF 7
ENDMDL
MODEL 4
REMARK VINA RESULT:      -4.3      1.354      2.032
REMARK  7 active torsions:
REMARK  status: ('A' for Active; 'I' for Inactive)
REMARK    1  A    between atoms: C_2  and  C_3 
REMARK    2  A    between atoms: C_3  and  O_6 
REMARK    3  A    between atoms: C_3  and  C_4 
REMARK    4  A    between atoms: C_7  and  O_6 
REMARK    5  A    between atoms: C_9  and  C_10 
REMARK    6  A    between atoms: N_15  and  C_14 
REMARK    7  A    between atoms: N_20  and  C_19 
REMARK       I    between atoms: C_22  and  N_20 
ROOT
ATOM      1  C   LIG d   1       3.939  87.696 116.711  0.00  0.00     0.161 C 
ATOM      2  C   LIG d   1       4.523  88.544 117.666  0.00  0.00     0.016 C 
ATOM      3  C   LIG d   1       5.155  89.766 117.339  0.00  0.00     0.038 C 
ATOM      4  C   LIG d   1       5.112  90.299 116.042  0.00  0.00     0.028 C 
ATOM      5  C   LIG d   1       4.973  89.238 114.956  0.00  0.00    -0.047 C 
ATOM      6  C   LIG d   1       3.784  88.314 115.306  0.00  0.00     0.091 C 
ENDROOT
BRANCH   1   7
ATOM      7  O   LIG d   1       2.666  87.221 117.193  0.00  0.00    -0.368 OA
BRANCH   7   8
ATOM      8  C   LIG d   1       1.495  87.891 116.664  0.00  0.00     0.119 C 
BRANCH   8   9
ATOM      9  C   LIG d   1       0.908  88.758 117.795  0.00  0.00     0.028 C 
ATOM     10  C   LIG d   1       1.052  90.263 117.515  0.00  0.00     0.006 C 
ENDBRANCH   8   9
BRANCH   8  11
ATOM     11  C   LIG d   1       0.393  86.888 116.308  0.00  0.00     0.028 C 
ATOM     12  C   LIG d   1       0.921  85.453 116.154  0.00  0.00     0.006 C 
ENDBRANCH   8  11
ENDBRANCH   7   8
ENDBRANCH   1   7
BRANCH   6  13
ATOM     13  N   LIG d   1       3.630  87.197 114.337  0.00  0.00    -0.311 N 
ATOM     14  C   LIG d   1       2.889  87.280 113.234  0.00  0.00     0.210 C 
ATOM     15  C   LIG d   1       2.850  86.007 112.383  0.00  0.00     0.109 C 
ATOM     16  O   LIG d   1       2.286  88.298 112.862  0.00  0.00    -0.276 OA
ATOM     17  H   LIG d   1       4.111  86.344 114.545  0.00  0.00     0.149 HD
ENDBRANCH   6  13
BRANCH   5  18
ATOM     18  N   LIG d   1       4.801  89.939 113.669  0.00  0.00     0.381 N 
ATOM     19  H   LIG d   1       3.938  90.445 113.671  0.00  0.00    -0.090 HD
ATOM     20  H   LIG d   1       4.765  89.258 112.930  0.00  0.00    -0.090 HD
ATOM     21  H   LIG d   1       5.561  90.564 113.517  0.00  0.00    -0.090 HD
ENDBRANCH   5  18
BRANCH   3  22
ATOM     22  C   LIG d   1       5.874  90.449 118.308  0.00  0.00     0.382 C 
ATOM     23  O   LIG d   1       5.371  91.450 118.873  0.00  0.00    -0.241 OA
ATOM     24  O   LIG d   1       7.036  90.103 118.593  0.00  0.00    -0.241 OA
ENDBRANCH   3  22
TORSDOF 7
ENDMDL
MODEL 5
REMARK VINA RESULT:      -4.3      2.617      5.711
REMARK  7 active torsions:
REMARK  status: ('A' for Active; 'I' for Inactive)
REMARK    1  A    between atoms: C_2  and  C_3 
REMARK    2  A    between atoms: C_3  and  O_6 
REMARK    3  A    between atoms: C_3  and  C_4 
REMARK    4  A    between atoms: C_7  and  O_6 
REMARK    5  A    between atoms: C_9  and  C_10 
REMARK    6  A    between atoms: N_15  and  C_14 
REMARK    7  A    between atoms: N_20  and  C_19 
REMARK       I    between atoms: C_22  and  N_20 
ROOT
ATOM      1  C   LIG d   1       2.021  88.965 117.867  0.00  0.00     0.161 C 
ATOM      2  C   LIG d   1       0.700  88.512 117.714  0.00  0.00     0.016 C 
ATOM      3  C   LIG d   1      -0.419  89.374 117.679  0.00  0.00     0.038 C 
ATOM      4  C   LIG d   1      -0.279  90.770 117.642  0.00  0.00     0.028 C 
ATOM      5  C   LIG d   1       1.002  91.267 118.302  0.00  0.00    -0.047 C 
ATOM      6  C   LIG d   1       2.203  90.490 117.716  0.00  0.00     0.091 C 
ENDROOT
BRANCH   1   7
ATOM      7  O   LIG d   1       2.887  88.264 116.951  0.00  0.00    -0.368 OA
BRANCH   7   8
ATOM      8  C   LIG d   1       2.875  88.731 115.579  0.00  0.00     0.119 C 
BRANCH   8   9
ATOM      9  C   LIG d   1       2.507  87.530 114.686  0.00  0.00     0.028 C 
ATOM     10  C   LIG d   1       2.890  87.756 113.213  0.00  0.00     0.006 C 
ENDBRANCH   8   9
BRANCH   8  11
ATOM     11  C   LIG d   1       4.272  89.162 115.125  0.00  0.00     0.028 C 
ATOM     12  C   LIG d   1       5.388  88.616 116.031  0.00  0.00     0.006 C 
ENDBRANCH   8  11
ENDBRANCH   7   8
ENDBRANCH   1   7
BRANCH   6  13
ATOM     13  N   LIG d   1       3.488  90.856 118.367  0.00  0.00    -0.311 N 
ATOM     14  C   LIG d   1       4.358  91.715 117.840  0.00  0.00     0.210 C 
ATOM     15  C   LIG d   1       5.630  91.936 118.665  0.00  0.00     0.109 C 
ATOM     16  O   LIG d   1       4.184  92.339 116.782  0.00  0.00    -0.276 OA
ATOM     17  H   LIG d   1       3.695  90.420 119.244  0.00  0.00     0.149 HD
ENDBRANCH   6  13
BRANCH   5  18
ATOM     18  N   LIG d   1       1.087  92.722 118.070  0.00  0.00     0.381 N 
ATOM     19  H   LIG d   1       0.236  93.049 117.659  0.00  0.00    -0.090 HD
ATOM     20  H   LIG d   1       1.838  92.906 117.429  0.00  0.00    -0.090 HD
ATOM     21  H   LIG d   1       1.251  93.195 118.931  0.00  0.00    -0.090 HD
ENDBRANCH   5  18
BRANCH   3  22
ATOM     22  C   LIG d   1      -1.699  88.841 117.721  0.00  0.00     0.382 C 
ATOM     23  O   LIG d   1      -1.873  87.659 118.101  0.00  0.00    -0.241 OA
ATOM     24  O   LIG d   1      -2.676  89.514 117.342  0.00  0.00    -0.241 OA
ENDBRANCH   3  22
TORSDOF 7
ENDMDL
MODEL 6
REMARK VINA RESULT:      -4.2      2.005      4.704
REMARK  7 active torsions:
REMARK  status: ('A' for Active; 'I' for Inactive)
REMARK    1  A    between atoms: C_2  and  C_3 
REMARK    2  A    between atoms: C_3  and  O_6 
REMARK    3  A    between atoms: C_3  and  C_4 
REMARK    4  A    between atoms: C_7  and  O_6 
REMARK    5  A    between atoms: C_9  and  C_10 
REMARK    6  A    between atoms: N_15  and  C_14 
REMARK    7  A    between atoms: N_20  and  C_19 
REMARK       I    between atoms: C_22  and  N_20 
ROOT
ATOM      1  C   LIG d   1       2.708  89.366 116.765  0.00  0.00     0.161 C 
ATOM      2  C   LIG d   1       2.343  88.725 115.569  0.00  0.00     0.016 C 
ATOM      3  C   LIG d   1       3.277  88.148 114.678  0.00  0.00     0.038 C 
ATOM      4  C   LIG d   1       4.638  88.040 114.999  0.00  0.00     0.028 C 
ATOM      5  C   LIG d   1       5.122  89.120 115.961  0.00  0.00    -0.047 C 
ATOM      6  C   LIG d   1       4.179  89.160 117.186  0.00  0.00     0.091 C 
ENDROOT
BRANCH   1   7
ATOM      7  O   LIG d   1       1.822  88.961 117.827  0.00  0.00    -0.368 OA
BRANCH   7   8
ATOM      8  C   LIG d   1       1.038  90.015 118.439  0.00  0.00     0.119 C 
BRANCH   8   9
ATOM      9  C   LIG d   1      -0.372  89.451 118.700  0.00  0.00     0.028 C 
ATOM     10  C   LIG d   1      -0.852  88.524 117.570  0.00  0.00     0.006 C 
ENDBRANCH   8   9
BRANCH   8  11
ATOM     11  C   LIG d   1       0.834  91.188 117.476  0.00  0.00     0.028 C 
ATOM     12  C   LIG d   1       0.945  92.555 118.171  0.00  0.00     0.006 C 
ENDBRANCH   8  11
ENDBRANCH   7   8
ENDBRANCH   1   7
BRANCH   6  13
ATOM     13  N   LIG d   1       4.531  90.246 118.137  0.00  0.00    -0.311 N 
ATOM     14  C   LIG d   1       4.552  91.535 117.803  0.00  0.00     0.210 C 
ATOM     15  C   LIG d   1       4.961  92.488 118.930  0.00  0.00     0.109 C 
ATOM     16  O   LIG d   1       4.240  91.982 116.689  0.00  0.00    -0.276 OA
ATOM     17  H   LIG d   1       4.767  89.975 119.072  0.00  0.00     0.149 HD
ENDBRANCH   6  13
BRANCH   5  18
ATOM     18  N   LIG d   1       6.518  88.807 116.317  0.00  0.00     0.381 N 
ATOM     19  H   LIG d   1       7.129  89.094 115.578  0.00  0.00    -0.090 HD
ATOM     20  H   LIG d   1       6.609  87.813 116.434  0.00  0.00    -0.090 HD
ATOM     21  H   LIG d   1       6.767  89.272 117.163  0.00  0.00    -0.090 HD
ENDBRANCH   5  18
BRANCH   3  22
ATOM     22  C   LIG d   1       2.857  87.708 113.433  0.00  0.00     0.382 C 
ATOM     23  O   LIG d   1       2.154  88.453 112.708  0.00  0.00    -0.241 OA
ATOM     24  O   LIG d   1       3.134  86.558 113.043  0.00  0.00    -0.241 OA
ENDBRANCH   3  22
TORSDOF 7
ENDMDL
MODEL 7
REMARK VINA RESULT:      -3.7      2.392      4.716
REMARK  7 active torsions:
REMARK  status: ('A' for Active; 'I' for Inactive)
REMARK    1  A    between atoms: C_2  and  C_3 
REMARK    2  A    between atoms: C_3  and  O_6 
REMARK    3  A    between atoms: C_3  and  C_4 
REMARK    4  A    between atoms: C_7  and  O_6 
REMARK    5  A    between atoms: C_9  and  C_10 
REMARK    6  A    between atoms: N_15  and  C_14 
REMARK    7  A    between atoms: N_20  and  C_19 
REMARK       I    between atoms: C_22  and  N_20 
ROOT
ATOM      1  C   LIG d   1       3.078  88.654 115.652  0.00  0.00     0.161 C 
ATOM      2  C   LIG d   1       4.483  88.641 115.669  0.00  0.00     0.016 C 
ATOM      3  C   LIG d   1       5.244  88.012 116.680  0.00  0.00     0.038 C 
ATOM      4  C   LIG d   1       4.647  87.217 117.670  0.00  0.00     0.028 C 
ATOM      5  C   LIG d   1       3.210  87.618 117.984  0.00  0.00    -0.047 C 
ATOM      6  C   LIG d   1       2.411  87.698 116.663  0.00  0.00     0.091 C 
ENDROOT
BRANCH   1   7
ATOM      7  O   LIG d   1       2.603  88.384 114.319  0.00  0.00    -0.368 OA
BRANCH   7   8
ATOM      8  C   LIG d   1       2.991  87.110 113.749  0.00  0.00     0.119 C 
BRANCH   8   9
ATOM      9  C   LIG d   1       2.822  87.215 112.221  0.00  0.00     0.028 C 
ATOM     10  C   LIG d   1       3.491  86.048 111.475  0.00  0.00     0.006 C 
ENDBRANCH   8   9
BRANCH   8  11
ATOM     11  C   LIG d   1       2.040  85.991 114.187  0.00  0.00     0.028 C 
ATOM     12  C   LIG d   1       0.620  86.163 113.626  0.00  0.00     0.006 C 
ENDBRANCH   8  11
ENDBRANCH   7   8
ENDBRANCH   1   7
BRANCH   6  13
ATOM     13  N   LIG d   1       1.016  88.165 116.872  0.00  0.00    -0.311 N 
ATOM     14  C   LIG d   1      -0.004  87.344 117.116  0.00  0.00     0.210 C 
ATOM     15  C   LIG d   1      -1.363  88.032 117.280  0.00  0.00     0.109 C 
ATOM     16  O   LIG d   1       0.094  86.114 117.244  0.00  0.00    -0.276 OA
ATOM     17  H   LIG d   1       0.853  89.152 116.816  0.00  0.00     0.149 HD
ENDBRANCH   6  13
BRANCH   5  18
ATOM     18  N   LIG d   1       2.666  86.624 118.929  0.00  0.00     0.381 N 
ATOM     19  H   LIG d   1       1.667  86.663 118.924  0.00  0.00    -0.090 HD
ATOM     20  H   LIG d   1       2.986  86.847 119.855  0.00  0.00    -0.090 HD
ATOM     21  H   LIG d   1       2.972  85.710 118.676  0.00  0.00    -0.090 HD
ENDBRANCH   5  18
BRANCH   3  22
ATOM     22  C   LIG d   1       6.616  88.208 116.731  0.00  0.00     0.382 C 
ATOM     23  O   LIG d   1       7.394  87.282 116.395  0.00  0.00    -0.241 OA
ATOM     24  O   LIG d   1       7.085  89.283 117.149  0.00  0.00    -0.241 OA
ENDBRANCH   3  22
TORSDOF 7
ENDMDL
MODEL 8
REMARK VINA RESULT:      -3.6      2.711      4.785
REMARK  7 active torsions:
REMARK  status: ('A' for Active; 'I' for Inactive)
REMARK    1  A    between atoms: C_2  and  C_3 
REMARK    2  A    between atoms: C_3  and  O_6 
REMARK    3  A    between atoms: C_3  and  C_4 
REMARK    4  A    between atoms: C_7  and  O_6 
REMARK    5  A    between atoms: C_9  and  C_10 
REMARK    6  A    between atoms: N_15  and  C_14 
REMARK    7  A    between atoms: N_20  and  C_19 
REMARK       I    between atoms: C_22  and  N_20 
ROOT
ATOM      1  C   LIG d   1       3.201  87.151 116.515  0.00  0.00     0.161 C 
ATOM      2  C   LIG d   1       2.070  87.971 116.655  0.00  0.00     0.016 C 
ATOM      3  C   LIG d   1       2.045  89.131 117.463  0.00  0.00     0.038 C 
ATOM      4  C   LIG d   1       3.204  89.636 118.071  0.00  0.00     0.028 C 
ATOM      5  C   LIG d   1       4.249  88.565 118.367  0.00  0.00    -0.047 C 
ATOM      6  C   LIG d   1       4.507  87.747 117.081  0.00  0.00     0.091 C 
ENDROOT
BRANCH   1   7
ATOM      7  O   LIG d   1       3.375  86.791 115.130  0.00  0.00    -0.368 OA
BRANCH   7   8
ATOM      8  C   LIG d   1       2.916  87.761 114.157  0.00  0.00     0.119 C 
BRANCH   8   9
ATOM      9  C   LIG d   1       2.146  86.994 113.065  0.00  0.00     0.028 C 
ATOM     10  C   LIG d   1       3.063  86.517 111.926  0.00  0.00     0.006 C 
ENDBRANCH   8   9
BRANCH   8  11
ATOM     11  C   LIG d   1       4.093  88.424 113.433  0.00  0.00     0.028 C 
ATOM     12  C   LIG d   1       4.651  89.638 114.193  0.00  0.00     0.006 C 
ENDBRANCH   8  11
ENDBRANCH   7   8
ENDBRANCH   1   7
BRANCH   6  13
ATOM     13  N   LIG d   1       5.454  86.624 117.305  0.00  0.00    -0.311 N 
ATOM     14  C   LIG d   1       6.763  86.711 117.074  0.00  0.00     0.210 C 
ATOM     15  C   LIG d   1       7.556  85.430 117.351  0.00  0.00     0.109 C 
ATOM     16  O   LIG d   1       7.347  87.738 116.696  0.00  0.00    -0.276 OA
ATOM     17  H   LIG d   1       5.069  85.762 117.641  0.00  0.00     0.149 HD
ENDBRANCH   6  13
BRANCH   5  18
ATOM     18  N   LIG d   1       5.456  89.247 118.871  0.00  0.00     0.381 N 
ATOM     19  H   LIG d   1       5.211  89.857 119.625  0.00  0.00    -0.090 HD
ATOM     20  H   LIG d   1       5.848  89.802 118.131  0.00  0.00    -0.090 HD
ATOM     21  H   LIG d   1       6.123  88.575 119.181  0.00  0.00    -0.090 HD
ENDBRANCH   5  18
BRANCH   3  22
ATOM     22  C   LIG d   1       0.842  89.777 117.703  0.00  0.00     0.382 C 
ATOM     23  O   LIG d   1       0.175  90.236 116.744  0.00  0.00    -0.241 OA
ATOM     24  O   LIG d   1       0.436  89.945 118.868  0.00  0.00    -0.241 OA
ENDBRANCH   3  22
TORSDOF 7
ENDMDL
MODEL 9
REMARK VINA RESULT:      -3.4      2.036      2.797
REMARK  7 active torsions:
REMARK  status: ('A' for Active; 'I' for Inactive)
REMARK    1  A    between atoms: C_2  and  C_3 
REMARK    2  A    between atoms: C_3  and  O_6 
REMARK    3  A    between atoms: C_3  and  C_4 
REMARK    4  A    between atoms: C_7  and  O_6 
REMARK    5  A    between atoms: C_9  and  C_10 
REMARK    6  A    between atoms: N_15  and  C_14 
REMARK    7  A    between atoms: N_20  and  C_19 
REMARK       I    between atoms: C_22  and  N_20 
ROOT
ATOM      1  C   LIG d   1       3.177  90.129 117.533  0.00  0.00     0.161 C 
ATOM      2  C   LIG d   1       3.970  91.146 118.090  0.00  0.00     0.016 C 
ATOM      3  C   LIG d   1       5.356  91.276 117.841  0.00  0.00     0.038 C 
ATOM      4  C   LIG d   1       6.017  90.482 116.892  0.00  0.00     0.028 C 
ATOM      5  C   LIG d   1       5.365  89.119 116.683  0.00  0.00    -0.047 C 
ATOM      6  C   LIG d   1       3.857  89.321 116.409  0.00  0.00     0.091 C 
ENDROOT
BRANCH   1   7
ATOM      7  O   LIG d   1       1.929  90.681 117.069  0.00  0.00    -0.368 OA
BRANCH   7   8
ATOM      8  C   LIG d   1       0.963  91.022 118.093  0.00  0.00     0.119 C 
BRANCH   8   9
ATOM      9  C   LIG d   1       0.330  89.708 118.589  0.00  0.00     0.028 C 
ATOM     10  C   LIG d   1      -0.255  88.869 117.440  0.00  0.00     0.006 C 
ENDBRANCH   8   9
BRANCH   8  11
ATOM     11  C   LIG d   1      -0.197  91.838 117.515  0.00  0.00     0.028 C 
ATOM     12  C   LIG d   1      -1.251  92.207 118.571  0.00  0.00     0.006 C 
ENDBRANCH   8  11
ENDBRANCH   7   8
ENDBRANCH   1   7
BRANCH   6  13
ATOM     13  N   LIG d   1       3.128  88.032 116.276  0.00  0.00    -0.311 N 
ATOM     14  C   LIG d   1       2.458  87.678 115.181  0.00  0.00     0.210 C 
ATOM     15  C   LIG d   1       1.761  86.317 115.261  0.00  0.00     0.109 C 
ATOM     16  O   LIG d   1       2.402  88.348 114.139  0.00  0.00    -0.276 OA
ATOM     17  H   LIG d   1       3.148  87.414 117.064  0.00  0.00     0.149 HD
ENDBRANCH   6  13
BRANCH   5  18
ATOM     18  N   LIG d   1       6.072  88.453 115.573  0.00  0.00     0.381 N 
ATOM     19  H   LIG d   1       5.432  88.271 114.826  0.00  0.00    -0.090 HD
ATOM     20  H   LIG d   1       6.434  87.574 115.899  0.00  0.00    -0.090 HD
ATOM     21  H   LIG d   1       6.817  89.029 115.249  0.00  0.00    -0.090 HD
ENDBRANCH   5  18
BRANCH   3  22
ATOM     22  C   LIG d   1       6.104  92.184 118.576  0.00  0.00     0.382 C 
ATOM     23  O   LIG d   1       7.272  91.893 118.930  0.00  0.00    -0.241 OA
ATOM     24  O   LIG d   1       5.609  93.272 118.927  0.00  0.00    -0.241 OA
ENDBRANCH   3  22
TORSDOF 7
ENDMDL
