MODEL 1
REMARK VINA RESULT:      -4.8      0.000      0.000
REMARK  7 active torsions:
REMARK  status: ('A' for Active; 'I' for Inactive)
REMARK    1  A    between atoms: C_2  and  C_3 
REMARK    2  A    between atoms: C_3  and  O_6 
REMARK    3  A    between atoms: C_3  and  C_4 
REMARK    4  A    between atoms: C_7  and  O_6 
REMARK    5  A    between atoms: C_9  and  C_10 
REMARK    6  A    between atoms: N_15  and  C_14 
REMARK    7  A    between atoms: N_20  and  C_19 
REMARK       I    between atoms: C_22  and  N_20 
ROOT
ATOM      1  C   LIG d   1       2.964  88.664 115.750  0.00  0.00     0.161 C 
ATOM      2  C   LIG d   1       3.565  89.212 116.896  0.00  0.00     0.016 C 
ATOM      3  C   LIG d   1       4.788  89.921 116.869  0.00  0.00     0.038 C 
ATOM      4  C   LIG d   1       5.422  90.262 115.664  0.00  0.00     0.028 C 
ATOM      5  C   LIG d   1       5.115  89.296 114.525  0.00  0.00    -0.047 C 
ATOM      6  C   LIG d   1       3.583  89.121 114.413  0.00  0.00     0.091 C 
ENDROOT
BRANCH   1   7
ATOM      7  O   LIG d   1       1.548  88.933 115.765  0.00  0.00    -0.368 OA
BRANCH   7   8
ATOM      8  C   LIG d   1       0.957  89.162 117.067  0.00  0.00     0.119 C 
BRANCH   8   9
ATOM      9  C   LIG d   1      -0.015  87.999 117.345  0.00  0.00     0.028 C 
ATOM     10  C   LIG d   1      -1.403  88.488 117.792  0.00  0.00     0.006 C 
ENDBRANCH   8   9
BRANCH   8  11
ATOM     11  C   LIG d   1       0.090  90.425 117.071  0.00  0.00     0.028 C 
ATOM     12  C   LIG d   1       0.715  91.575 117.876  0.00  0.00     0.006 C 
ENDBRANCH   8  11
ENDBRANCH   7   8
ENDBRANCH   1   7
BRANCH   6  13
ATOM     13  N   LIG d   1       3.200  88.127 113.377  0.00  0.00    -0.311 N 
ATOM     14  C   LIG d   1       2.271  88.355 112.450  0.00  0.00     0.210 C 
ATOM     15  C   LIG d   1       2.016  87.189 111.490  0.00  0.00     0.109 C 
ATOM     16  O   LIG d   1       1.657  89.423 112.313  0.00  0.00    -0.276 OA
ATOM     17  H   LIG d   1       3.672  87.244 113.396  0.00  0.00     0.149 HD
ENDBRANCH   6  13
BRANCH   5  18
ATOM     18  N   LIG d   1       5.725  89.845 113.299  0.00  0.00     0.381 N 
ATOM     19  H   LIG d   1       6.378  89.187 112.921  0.00  0.00    -0.090 HD
ATOM     20  H   LIG d   1       6.224  90.685 113.532  0.00  0.00    -0.090 HD
ATOM     21  H   LIG d   1       5.018  90.046 112.627  0.00  0.00    -0.090 HD
ENDBRANCH   5  18
BRANCH   3  22
ATOM     22  C   LIG d   1       5.411  90.262 118.060  0.00  0.00     0.382 C 
ATOM     23  O   LIG d   1       5.624  89.384 118.930  0.00  0.00    -0.241 OA
ATOM     24  O   LIG d   1       5.723  91.445 118.293  0.00  0.00    -0.241 OA
ENDBRANCH   3  22
TORSDOF 7
ENDMDL
MODEL 2
REMARK VINA RESULT:      -4.7      1.689      4.775
REMARK  7 active torsions:
REMARK  status: ('A' for Active; 'I' for Inactive)
REMARK    1  A    between atoms: C_2  and  C_3 
REMARK    2  A    between atoms: C_3  and  O_6 
REMARK    3  A    between atoms: C_3  and  C_4 
REMARK    4  A    between atoms: C_7  and  O_6 
REMARK    5  A    between atoms: C_9  and  C_10 
REMARK    6  A    between atoms: N_15  and  C_14 
REMARK    7  A    between atoms: N_20  and  C_19 
REMARK       I    between atoms: C_22  and  N_20 
ROOT
ATOM      1  C   LIG d   1       3.332  88.588 115.341  0.00  0.00     0.161 C 
ATOM      2  C   LIG d   1       2.652  87.842 114.364  0.00  0.00     0.016 C 
ATOM      3  C   LIG d   1       3.063  87.772 113.013  0.00  0.00     0.038 C 
ATOM      4  C   LIG d   1       4.276  88.326 112.578  0.00  0.00     0.028 C 
ATOM      5  C   LIG d   1       4.737  89.512 113.418  0.00  0.00    -0.047 C 
ATOM      6  C   LIG d   1       4.719  89.108 114.910  0.00  0.00     0.091 C 
ENDROOT
BRANCH   1   7
ATOM      7  O   LIG d   1       3.441  87.818 116.555  0.00  0.00    -0.368 OA
BRANCH   7   8
ATOM      8  C   LIG d   1       2.636  88.271 117.672  0.00  0.00     0.119 C 
BRANCH   8   9
ATOM      9  C   LIG d   1       1.512  87.237 117.882  0.00  0.00     0.028 C 
ATOM     10  C   LIG d   1       0.187  87.671 117.233  0.00  0.00     0.006 C 
ENDBRANCH   8   9
BRANCH   8  11
ATOM     11  C   LIG d   1       1.921  89.586 117.346  0.00  0.00     0.028 C 
ATOM     12  C   LIG d   1       2.371  90.748 118.246  0.00  0.00     0.006 C 
ENDBRANCH   8  11
ENDBRANCH   7   8
ENDBRANCH   1   7
BRANCH   6  13
ATOM     13  N   LIG d   1       5.075  90.238 115.808  0.00  0.00    -0.311 N 
ATOM     14  C   LIG d   1       5.935  90.127 116.818  0.00  0.00     0.210 C 
ATOM     15  C   LIG d   1       6.145  91.408 117.631  0.00  0.00     0.109 C 
ATOM     16  O   LIG d   1       6.569  89.099 117.099  0.00  0.00    -0.276 OA
ATOM     17  H   LIG d   1       4.631  91.117 115.632  0.00  0.00     0.149 HD
ENDBRANCH   6  13
BRANCH   5  18
ATOM     18  N   LIG d   1       6.077  89.903 112.941  0.00  0.00     0.381 N 
ATOM     19  H   LIG d   1       6.728  89.876 113.700  0.00  0.00    -0.090 HD
ATOM     20  H   LIG d   1       6.036  90.845 112.594  0.00  0.00    -0.090 HD
ATOM     21  H   LIG d   1       6.374  89.287 112.217  0.00  0.00    -0.090 HD
ENDBRANCH   5  18
BRANCH   3  22
ATOM     22  C   LIG d   1       2.236  87.177 112.073  0.00  0.00     0.382 C 
ATOM     23  O   LIG d   1       1.072  87.611 111.897  0.00  0.00    -0.241 OA
ATOM     24  O   LIG d   1       2.624  86.183 111.430  0.00  0.00    -0.241 OA
ENDBRANCH   3  22
TORSDOF 7
ENDMDL
MODEL 3
REMARK VINA RESULT:      -4.5      1.155      1.950
REMARK  7 active torsions:
REMARK  status: ('A' for Active; 'I' for Inactive)
REMARK    1  A    between atoms: C_2  and  C_3 
REMARK    2  A    between atoms: C_3  and  O_6 
REMARK    3  A    between atoms: C_3  and  C_4 
REMARK    4  A    between atoms: C_7  and  O_6 
REMARK    5  A    between atoms: C_9  and  C_10 
REMARK    6  A    between atoms: N_15  and  C_14 
REMARK    7  A    between atoms: N_20  and  C_19 
REMARK       I    between atoms: C_22  and  N_20 
ROOT
ATOM      1  C   LIG d   1       3.135  88.550 115.834  0.00  0.00     0.161 C 
ATOM      2  C   LIG d   1       3.771  89.064 116.976  0.00  0.00     0.016 C 
ATOM      3  C   LIG d   1       4.948  89.846 116.926  0.00  0.00     0.038 C 
ATOM      4  C   LIG d   1       5.488  90.296 115.712  0.00  0.00     0.028 C 
ATOM      5  C   LIG d   1       5.169  89.384 114.532  0.00  0.00    -0.047 C 
ATOM      6  C   LIG d   1       3.646  89.124 114.496  0.00  0.00     0.091 C 
ENDROOT
BRANCH   1   7
ATOM      7  O   LIG d   1       1.710  88.732 115.946  0.00  0.00    -0.368 OA
BRANCH   7   8
ATOM      8  C   LIG d   1       0.925  87.526 116.121  0.00  0.00     0.119 C 
BRANCH   8   9
ATOM      9  C   LIG d   1       0.463  87.485 117.591  0.00  0.00     0.028 C 
ATOM     10  C   LIG d   1      -0.788  88.344 117.837  0.00  0.00     0.006 C 
ENDBRANCH   8   9
BRANCH   8  11
ATOM     11  C   LIG d   1       1.782  86.271 115.930  0.00  0.00     0.028 C 
ATOM     12  C   LIG d   1       1.345  85.431 114.719  0.00  0.00     0.006 C 
ENDBRANCH   8  11
ENDBRANCH   7   8
ENDBRANCH   1   7
BRANCH   6  13
ATOM     13  N   LIG d   1       3.259  88.173 113.422  0.00  0.00    -0.311 N 
ATOM     14  C   LIG d   1       2.317  88.433 112.517  0.00  0.00     0.210 C 
ATOM     15  C   LIG d   1       2.060  87.307 111.509  0.00  0.00     0.109 C 
ATOM     16  O   LIG d   1       1.692  89.501 112.433  0.00  0.00    -0.276 OA
ATOM     17  H   LIG d   1       3.737  87.293 113.397  0.00  0.00     0.149 HD
ENDBRANCH   6  13
BRANCH   5  18
ATOM     18  N   LIG d   1       5.672  90.042 113.311  0.00  0.00     0.381 N 
ATOM     19  H   LIG d   1       6.265  90.809 113.560  0.00  0.00    -0.090 HD
ATOM     20  H   LIG d   1       4.892  90.402 112.791  0.00  0.00    -0.090 HD
ATOM     21  H   LIG d   1       6.178  89.389 112.755  0.00  0.00    -0.090 HD
ENDBRANCH   5  18
BRANCH   3  22
ATOM     22  C   LIG d   1       5.621  90.151 118.099  0.00  0.00     0.382 C 
ATOM     23  O   LIG d   1       6.547  89.408 118.503  0.00  0.00    -0.241 OA
ATOM     24  O   LIG d   1       5.284  91.137 118.782  0.00  0.00    -0.241 OA
ENDBRANCH   3  22
TORSDOF 7
ENDMDL
MODEL 4
REMARK VINA RESULT:      -4.5      2.006      5.196
REMARK  7 active torsions:
REMARK  status: ('A' for Active; 'I' for Inactive)
REMARK    1  A    between atoms: C_2  and  C_3 
REMARK    2  A    between atoms: C_3  and  O_6 
REMARK    3  A    between atoms: C_3  and  C_4 
REMARK    4  A    between atoms: C_7  and  O_6 
REMARK    5  A    between atoms: C_9  and  C_10 
REMARK    6  A    between atoms: N_15  and  C_14 
REMARK    7  A    between atoms: N_20  and  C_19 
REMARK       I    between atoms: C_22  and  N_20 
ROOT
ATOM      1  C   LIG d   1       3.226  88.792 115.265  0.00  0.00     0.161 C 
ATOM      2  C   LIG d   1       2.557  88.011 114.308  0.00  0.00     0.016 C 
ATOM      3  C   LIG d   1       3.014  87.849 112.980  0.00  0.00     0.038 C 
ATOM      4  C   LIG d   1       4.259  88.338 112.559  0.00  0.00     0.028 C 
ATOM      5  C   LIG d   1       4.728  89.558 113.346  0.00  0.00    -0.047 C 
ATOM      6  C   LIG d   1       4.643  89.243 114.857  0.00  0.00     0.091 C 
ENDROOT
BRANCH   1   7
ATOM      7  O   LIG d   1       3.266  88.092 116.525  0.00  0.00    -0.368 OA
BRANCH   7   8
ATOM      8  C   LIG d   1       2.610  86.801 116.558  0.00  0.00     0.119 C 
BRANCH   8   9
ATOM      9  C   LIG d   1       1.394  86.923 117.496  0.00  0.00     0.028 C 
ATOM     10  C   LIG d   1       1.546  88.071 118.508  0.00  0.00     0.006 C 
ENDBRANCH   8   9
BRANCH   8  11
ATOM     11  C   LIG d   1       3.508  85.736 117.195  0.00  0.00     0.028 C 
ATOM     12  C   LIG d   1       5.005  86.024 116.998  0.00  0.00     0.006 C 
ENDBRANCH   8  11
ENDBRANCH   7   8
ENDBRANCH   1   7
BRANCH   6  13
ATOM     13  N   LIG d   1       5.004  90.412 115.700  0.00  0.00    -0.311 N 
ATOM     14  C   LIG d   1       5.844  90.341 116.732  0.00  0.00     0.210 C 
ATOM     15  C   LIG d   1       6.062  91.659 117.480  0.00  0.00     0.109 C 
ATOM     16  O   LIG d   1       6.453  89.317 117.078  0.00  0.00    -0.276 OA
ATOM     17  H   LIG d   1       4.579  91.289 115.470  0.00  0.00     0.149 HD
ENDBRANCH   6  13
BRANCH   5  18
ATOM     18  N   LIG d   1       6.096  89.878 112.898  0.00  0.00     0.381 N 
ATOM     19  H   LIG d   1       6.213  90.871 112.850  0.00  0.00    -0.090 HD
ATOM     20  H   LIG d   1       6.234  89.500 111.977  0.00  0.00    -0.090 HD
ATOM     21  H   LIG d   1       6.762  89.488 113.528  0.00  0.00    -0.090 HD
ENDBRANCH   5  18
BRANCH   3  22
ATOM     22  C   LIG d   1       2.202  87.224 112.045  0.00  0.00     0.382 C 
ATOM     23  O   LIG d   1       1.040  87.650 111.839  0.00  0.00    -0.241 OA
ATOM     24  O   LIG d   1       2.601  86.212 111.438  0.00  0.00    -0.241 OA
ENDBRANCH   3  22
TORSDOF 7
ENDMDL
MODEL 5
REMARK VINA RESULT:      -4.3      2.053      5.168
REMARK  7 active torsions:
REMARK  status: ('A' for Active; 'I' for Inactive)
REMARK    1  A    between atoms: C_2  and  C_3 
REMARK    2  A    between atoms: C_3  and  O_6 
REMARK    3  A    between atoms: C_3  and  C_4 
REMARK    4  A    between atoms: C_7  and  O_6 
REMARK    5  A    between atoms: C_9  and  C_10 
REMARK    6  A    between atoms: N_15  and  C_14 
REMARK    7  A    between atoms: N_20  and  C_19 
REMARK       I    between atoms: C_22  and  N_20 
ROOT
ATOM      1  C   LIG d   1       3.341  88.357 115.362  0.00  0.00     0.161 C 
ATOM      2  C   LIG d   1       2.662  87.634 114.366  0.00  0.00     0.016 C 
ATOM      3  C   LIG d   1       3.054  87.626 113.008  0.00  0.00     0.038 C 
ATOM      4  C   LIG d   1       4.248  88.223 112.576  0.00  0.00     0.028 C 
ATOM      5  C   LIG d   1       4.695  89.386 113.455  0.00  0.00    -0.047 C 
ATOM      6  C   LIG d   1       4.709  88.924 114.930  0.00  0.00     0.091 C 
ENDROOT
BRANCH   1   7
ATOM      7  O   LIG d   1       3.486  87.543 116.543  0.00  0.00    -0.368 OA
BRANCH   7   8
ATOM      8  C   LIG d   1       2.769  87.993 117.719  0.00  0.00     0.119 C 
BRANCH   8   9
ATOM      9  C   LIG d   1       3.746  87.932 118.908  0.00  0.00     0.028 C 
ATOM     10  C   LIG d   1       4.847  86.876 118.711  0.00  0.00     0.006 C 
ENDBRANCH   8   9
BRANCH   8  11
ATOM     11  C   LIG d   1       1.631  87.033 118.079  0.00  0.00     0.028 C 
ATOM     12  C   LIG d   1       0.316  87.371 117.361  0.00  0.00     0.006 C 
ENDBRANCH   8  11
ENDBRANCH   7   8
ENDBRANCH   1   7
BRANCH   6  13
ATOM     13  N   LIG d   1       5.055  90.025 115.866  0.00  0.00    -0.311 N 
ATOM     14  C   LIG d   1       6.072  89.966 116.724  0.00  0.00     0.210 C 
ATOM     15  C   LIG d   1       6.241  91.203 117.613  0.00  0.00     0.109 C 
ATOM     16  O   LIG d   1       6.869  89.021 116.812  0.00  0.00    -0.276 OA
ATOM     17  H   LIG d   1       4.478  90.844 115.840  0.00  0.00     0.149 HD
ENDBRANCH   6  13
BRANCH   5  18
ATOM     18  N   LIG d   1       6.018  89.825 112.974  0.00  0.00     0.381 N 
ATOM     19  H   LIG d   1       6.630  89.037 112.899  0.00  0.00    -0.090 HD
ATOM     20  H   LIG d   1       6.410  90.467 113.641  0.00  0.00    -0.090 HD
ATOM     21  H   LIG d   1       5.929  90.270 112.087  0.00  0.00    -0.090 HD
ENDBRANCH   5  18
BRANCH   3  22
ATOM     22  C   LIG d   1       2.225  87.049 112.057  0.00  0.00     0.382 C 
ATOM     23  O   LIG d   1       2.605  86.030 111.430  0.00  0.00    -0.241 OA
ATOM     24  O   LIG d   1       1.122  87.559 111.788  0.00  0.00    -0.241 OA
ENDBRANCH   3  22
TORSDOF 7
ENDMDL
MODEL 6
REMARK VINA RESULT:      -4.2      2.319      5.352
REMARK  7 active torsions:
REMARK  status: ('A' for Active; 'I' for Inactive)
REMARK    1  A    between atoms: C_2  and  C_3 
REMARK    2  A    between atoms: C_3  and  O_6 
REMARK    3  A    between atoms: C_3  and  C_4 
REMARK    4  A    between atoms: C_7  and  O_6 
REMARK    5  A    between atoms: C_9  and  C_10 
REMARK    6  A    between atoms: N_15  and  C_14 
REMARK    7  A    between atoms: N_20  and  C_19 
REMARK       I    between atoms: C_22  and  N_20 
ROOT
ATOM      1  C   LIG d   1       3.519  87.833 116.043  0.00  0.00     0.161 C 
ATOM      2  C   LIG d   1       2.139  88.097 116.029  0.00  0.00     0.016 C 
ATOM      3  C   LIG d   1       1.531  89.095 116.824  0.00  0.00     0.038 C 
ATOM      4  C   LIG d   1       2.286  90.004 117.579  0.00  0.00     0.028 C 
ATOM      5  C   LIG d   1       3.639  89.453 118.015  0.00  0.00    -0.047 C 
ATOM      6  C   LIG d   1       4.373  88.888 116.777  0.00  0.00     0.091 C 
ENDROOT
BRANCH   1   7
ATOM      7  O   LIG d   1       3.995  87.653 114.694  0.00  0.00    -0.368 OA
BRANCH   7   8
ATOM      8  C   LIG d   1       3.279  88.377 113.663  0.00  0.00     0.119 C 
BRANCH   8   9
ATOM      9  C   LIG d   1       3.370  87.548 112.368  0.00  0.00     0.028 C 
ATOM     10  C   LIG d   1       2.014  87.429 111.651  0.00  0.00     0.006 C 
ENDBRANCH   8   9
BRANCH   8  11
ATOM     11  C   LIG d   1       3.962  89.709 113.341  0.00  0.00     0.028 C 
ATOM     12  C   LIG d   1       5.492  89.590 113.259  0.00  0.00     0.006 C 
ENDBRANCH   8  11
ENDBRANCH   7   8
ENDBRANCH   1   7
BRANCH   6  13
ATOM     13  N   LIG d   1       5.670  88.253 117.127  0.00  0.00    -0.311 N 
ATOM     14  C   LIG d   1       6.832  88.902 117.110  0.00  0.00     0.210 C 
ATOM     15  C   LIG d   1       8.052  88.055 117.486  0.00  0.00     0.109 C 
ATOM     16  O   LIG d   1       6.965  90.107 116.850  0.00  0.00    -0.276 OA
ATOM     17  H   LIG d   1       5.650  87.284 117.381  0.00  0.00     0.149 HD
ENDBRANCH   6  13
BRANCH   5  18
ATOM     18  N   LIG d   1       4.376  90.548 118.673  0.00  0.00     0.381 N 
ATOM     19  H   LIG d   1       3.944  90.769 119.548  0.00  0.00    -0.090 HD
ATOM     20  H   LIG d   1       4.337  91.364 118.087  0.00  0.00    -0.090 HD
ATOM     21  H   LIG d   1       5.324  90.281 118.820  0.00  0.00    -0.090 HD
ENDBRANCH   5  18
BRANCH   3  22
ATOM     22  C   LIG d   1       0.148  89.165 116.899  0.00  0.00     0.382 C 
ATOM     23  O   LIG d   1      -0.526  88.117 117.043  0.00  0.00    -0.241 OA
ATOM     24  O   LIG d   1      -0.437  90.259 116.780  0.00  0.00    -0.241 OA
ENDBRANCH   3  22
TORSDOF 7
ENDMDL
MODEL 7
REMARK VINA RESULT:      -4.2      2.532      4.651
REMARK  7 active torsions:
REMARK  status: ('A' for Active; 'I' for Inactive)
REMARK    1  A    between atoms: C_2  and  C_3 
REMARK    2  A    between atoms: C_3  and  O_6 
REMARK    3  A    between atoms: C_3  and  C_4 
REMARK    4  A    between atoms: C_7  and  O_6 
REMARK    5  A    between atoms: C_9  and  C_10 
REMARK    6  A    between atoms: N_15  and  C_14 
REMARK    7  A    between atoms: N_20  and  C_19 
REMARK       I    between atoms: C_22  and  N_20 
ROOT
ATOM      1  C   LIG d   1       2.839  88.847 116.026  0.00  0.00     0.161 C 
ATOM      2  C   LIG d   1       3.670  89.113 114.924  0.00  0.00     0.016 C 
ATOM      3  C   LIG d   1       3.642  88.358 113.729  0.00  0.00     0.038 C 
ATOM      4  C   LIG d   1       2.669  87.376 113.495  0.00  0.00     0.028 C 
ATOM      5  C   LIG d   1       2.136  86.735 114.772  0.00  0.00    -0.047 C 
ATOM      6  C   LIG d   1       1.695  87.850 115.747  0.00  0.00     0.091 C 
ENDROOT
BRANCH   1   7
ATOM      7  O   LIG d   1       2.311  90.083 116.548  0.00  0.00    -0.368 OA
BRANCH   7   8
ATOM      8  C   LIG d   1       2.835  90.508 117.830  0.00  0.00     0.119 C 
BRANCH   8   9
ATOM      9  C   LIG d   1       1.874  91.574 118.392  0.00  0.00     0.028 C 
ATOM     10  C   LIG d   1       0.411  91.313 117.995  0.00  0.00     0.006 C 
ENDBRANCH   8   9
BRANCH   8  11
ATOM     11  C   LIG d   1       4.182  91.220 117.673  0.00  0.00     0.028 C 
ATOM     12  C   LIG d   1       4.074  92.744 117.843  0.00  0.00     0.006 C 
ENDBRANCH   8  11
ENDBRANCH   7   8
ENDBRANCH   1   7
BRANCH   6  13
ATOM     13  N   LIG d   1       1.239  87.312 117.055  0.00  0.00    -0.311 N 
ATOM     14  C   LIG d   1       0.027  87.538 117.558  0.00  0.00     0.210 C 
ATOM     15  C   LIG d   1      -0.232  86.907 118.930  0.00  0.00     0.109 C 
ATOM     16  O   LIG d   1      -0.870  88.174 116.984  0.00  0.00    -0.276 OA
ATOM     17  H   LIG d   1       1.893  86.759 117.574  0.00  0.00     0.149 HD
ENDBRANCH   6  13
BRANCH   5  18
ATOM     18  N   LIG d   1       1.035  85.831 114.391  0.00  0.00     0.381 N 
ATOM     19  H   LIG d   1       0.156  86.279 114.557  0.00  0.00    -0.090 HD
ATOM     20  H   LIG d   1       1.080  85.005 114.961  0.00  0.00    -0.090 HD
ATOM     21  H   LIG d   1       1.113  85.584 113.429  0.00  0.00    -0.090 HD
ENDBRANCH   5  18
BRANCH   3  22
ATOM     22  C   LIG d   1       4.621  88.558 112.767  0.00  0.00     0.382 C 
ATOM     23  O   LIG d   1       5.452  89.489 112.902  0.00  0.00    -0.241 OA
ATOM     24  O   LIG d   1       4.657  87.847 111.745  0.00  0.00    -0.241 OA
ENDBRANCH   3  22
TORSDOF 7
ENDMDL
MODEL 8
REMARK VINA RESULT:      -3.7      2.375      4.544
REMARK  7 active torsions:
REMARK  status: ('A' for Active; 'I' for Inactive)
REMARK    1  A    between atoms: C_2  and  C_3 
REMARK    2  A    between atoms: C_3  and  O_6 
REMARK    3  A    between atoms: C_3  and  C_4 
REMARK    4  A    between atoms: C_7  and  O_6 
REMARK    5  A    between atoms: C_9  and  C_10 
REMARK    6  A    between atoms: N_15  and  C_14 
REMARK    7  A    between atoms: N_20  and  C_19 
REMARK       I    between atoms: C_22  and  N_20 
ROOT
ATOM      1  C   LIG d   1       3.296  88.790 116.633  0.00  0.00     0.161 C 
ATOM      2  C   LIG d   1       3.887  89.527 115.593  0.00  0.00     0.016 C 
ATOM      3  C   LIG d   1       3.689  89.237 114.223  0.00  0.00     0.038 C 
ATOM      4  C   LIG d   1       2.758  88.278 113.796  0.00  0.00     0.028 C 
ATOM      5  C   LIG d   1       2.517  87.170 114.816  0.00  0.00    -0.047 C 
ATOM      6  C   LIG d   1       2.191  87.811 116.185  0.00  0.00     0.091 C 
ENDROOT
BRANCH   1   7
ATOM      7  O   LIG d   1       2.791  89.688 117.641  0.00  0.00    -0.368 OA
BRANCH   7   8
ATOM      8  C   LIG d   1       2.498  91.038 117.204  0.00  0.00     0.119 C 
BRANCH   8   9
ATOM      9  C   LIG d   1       3.341  91.997 118.067  0.00  0.00     0.028 C 
ATOM     10  C   LIG d   1       4.744  92.232 117.483  0.00  0.00     0.006 C 
ENDBRANCH   8   9
BRANCH   8  11
ATOM     11  C   LIG d   1       1.041  91.411 117.488  0.00  0.00     0.028 C 
ATOM     12  C   LIG d   1       0.271  90.297 118.215  0.00  0.00     0.006 C 
ENDBRANCH   8  11
ENDBRANCH   7   8
ENDBRANCH   1   7
BRANCH   6  13
ATOM     13  N   LIG d   1       2.024  86.799 117.260  0.00  0.00    -0.311 N 
ATOM     14  C   LIG d   1       0.852  86.518 117.827  0.00  0.00     0.210 C 
ATOM     15  C   LIG d   1       0.905  85.456 118.930  0.00  0.00     0.109 C 
ATOM     16  O   LIG d   1      -0.232  87.025 117.500  0.00  0.00    -0.276 OA
ATOM     17  H   LIG d   1       2.847  86.317 117.564  0.00  0.00     0.149 HD
ENDBRANCH   6  13
BRANCH   5  18
ATOM     18  N   LIG d   1       1.428  86.319 114.302  0.00  0.00     0.381 N 
ATOM     19  H   LIG d   1       1.812  85.513 113.850  0.00  0.00    -0.090 HD
ATOM     20  H   LIG d   1       0.902  86.840 113.623  0.00  0.00    -0.090 HD
ATOM     21  H   LIG d   1       0.833  86.038 115.050  0.00  0.00    -0.090 HD
ENDBRANCH   5  18
BRANCH   3  22
ATOM     22  C   LIG d   1       4.455  89.883 113.266  0.00  0.00     0.382 C 
ATOM     23  O   LIG d   1       5.473  89.321 112.793  0.00  0.00    -0.241 OA
ATOM     24  O   LIG d   1       4.168  91.039 112.901  0.00  0.00    -0.241 OA
ENDBRANCH   3  22
TORSDOF 7
ENDMDL
MODEL 9
REMARK VINA RESULT:      -3.7      2.751      5.793
REMARK  7 active torsions:
REMARK  status: ('A' for Active; 'I' for Inactive)
REMARK    1  A    between atoms: C_2  and  C_3 
REMARK    2  A    between atoms: C_3  and  O_6 
REMARK    3  A    between atoms: C_3  and  C_4 
REMARK    4  A    between atoms: C_7  and  O_6 
REMARK    5  A    between atoms: C_9  and  C_10 
REMARK    6  A    between atoms: N_15  and  C_14 
REMARK    7  A    between atoms: N_20  and  C_19 
REMARK       I    between atoms: C_22  and  N_20 
ROOT
ATOM      1  C   LIG d   1       1.684  89.128 116.692  0.00  0.00     0.161 C 
ATOM      2  C   LIG d   1       0.294  89.036 116.875  0.00  0.00     0.016 C 
ATOM      3  C   LIG d   1      -0.448  89.944 117.665  0.00  0.00     0.038 C 
ATOM      4  C   LIG d   1       0.131  91.101 118.207  0.00  0.00     0.028 C 
ATOM      5  C   LIG d   1       1.628  90.964 118.468  0.00  0.00    -0.047 C 
ATOM      6  C   LIG d   1       2.316  90.447 117.185  0.00  0.00     0.091 C 
ENDROOT
BRANCH   1   7
ATOM      7  O   LIG d   1       2.010  88.903 115.307  0.00  0.00    -0.368 OA
BRANCH   7   8
ATOM      8  C   LIG d   1       2.854  87.758 115.028  0.00  0.00     0.119 C 
BRANCH   8   9
ATOM      9  C   LIG d   1       4.111  88.276 114.303  0.00  0.00     0.028 C 
ATOM     10  C   LIG d   1       3.932  89.706 113.766  0.00  0.00     0.006 C 
ENDBRANCH   8   9
BRANCH   8  11
ATOM     11  C   LIG d   1       2.183  86.798 114.042  0.00  0.00     0.028 C 
ATOM     12  C   LIG d   1       1.196  85.837 114.724  0.00  0.00     0.006 C 
ENDBRANCH   8  11
ENDBRANCH   7   8
ENDBRANCH   1   7
BRANCH   6  13
ATOM     13  N   LIG d   1       3.769  90.204 117.379  0.00  0.00    -0.311 N 
ATOM     14  C   LIG d   1       4.701  91.135 117.181  0.00  0.00     0.210 C 
ATOM     15  C   LIG d   1       6.141  90.670 117.419  0.00  0.00     0.109 C 
ATOM     16  O   LIG d   1       4.469  92.311 116.862  0.00  0.00    -0.276 OA
ATOM     17  H   LIG d   1       4.044  89.286 117.668  0.00  0.00     0.149 HD
ENDBRANCH   6  13
BRANCH   5  18
ATOM     18  N   LIG d   1       2.127  92.283 118.901  0.00  0.00     0.381 N 
ATOM     19  H   LIG d   1       1.470  92.993 118.649  0.00  0.00    -0.090 HD
ATOM     20  H   LIG d   1       2.993  92.473 118.429  0.00  0.00    -0.090 HD
ATOM     21  H   LIG d   1       2.270  92.286 119.887  0.00  0.00    -0.090 HD
ENDBRANCH   5  18
BRANCH   3  22
ATOM     22  C   LIG d   1      -1.778  89.677 117.953  0.00  0.00     0.382 C 
ATOM     23  O   LIG d   1      -2.552  90.613 118.268  0.00  0.00    -0.241 OA
ATOM     24  O   LIG d   1      -2.203  88.506 117.946  0.00  0.00    -0.241 OA
ENDBRANCH   3  22
TORSDOF 7
ENDMDL
