MODEL 1
REMARK VINA RESULT:      -4.7      0.000      0.000
REMARK  7 active torsions:
REMARK  status: ('A' for Active; 'I' for Inactive)
REMARK    1  A    between atoms: C_2  and  C_3 
REMARK    2  A    between atoms: C_3  and  O_6 
REMARK    3  A    between atoms: C_3  and  C_4 
REMARK    4  A    between atoms: C_7  and  O_6 
REMARK    5  A    between atoms: C_9  and  C_10 
REMARK    6  A    between atoms: N_15  and  C_14 
REMARK    7  A    between atoms: N_20  and  C_19 
REMARK       I    between atoms: C_22  and  N_20 
ROOT
ATOM      1  C   LIG d   1       4.244  89.606 114.866  0.00  0.00     0.161 C 
ATOM      2  C   LIG d   1       3.540  88.981 113.823  0.00  0.00     0.016 C 
ATOM      3  C   LIG d   1       3.631  87.599 113.541  0.00  0.00     0.038 C 
ATOM      4  C   LIG d   1       4.322  86.715 114.384  0.00  0.00     0.028 C 
ATOM      5  C   LIG d   1       5.458  87.376 115.156  0.00  0.00    -0.047 C 
ATOM      6  C   LIG d   1       4.915  88.639 115.864  0.00  0.00     0.091 C 
ENDROOT
BRANCH   1   7
ATOM      7  O   LIG d   1       3.375  90.521 115.562  0.00  0.00    -0.368 OA
BRANCH   7   8
ATOM      8  C   LIG d   1       2.556  89.949 116.612  0.00  0.00     0.119 C 
BRANCH   8   9
ATOM      9  C   LIG d   1       1.091  90.011 116.140  0.00  0.00     0.028 C 
ATOM     10  C   LIG d   1       0.146  90.546 117.229  0.00  0.00     0.006 C 
ENDBRANCH   8   9
BRANCH   8  11
ATOM     11  C   LIG d   1       2.609  90.799 117.885  0.00  0.00     0.028 C 
ATOM     12  C   LIG d   1       3.650  91.927 117.806  0.00  0.00     0.006 C 
ENDBRANCH   8  11
ENDBRANCH   7   8
ENDBRANCH   1   7
BRANCH   6  13
ATOM     13  N   LIG d   1       5.981  89.393 116.574  0.00  0.00    -0.311 N 
ATOM     14  C   LIG d   1       6.227  89.264 117.876  0.00  0.00     0.210 C 
ATOM     15  C   LIG d   1       7.356  90.149 118.412  0.00  0.00     0.109 C 
ATOM     16  O   LIG d   1       5.639  88.476 118.632  0.00  0.00    -0.276 OA
ATOM     17  H   LIG d   1       6.527  90.032 116.030  0.00  0.00     0.149 HD
ENDBRANCH   6  13
BRANCH   5  18
ATOM     18  N   LIG d   1       6.001  86.376 116.095  0.00  0.00     0.381 N 
ATOM     19  H   LIG d   1       5.508  86.424 116.964  0.00  0.00    -0.090 HD
ATOM     20  H   LIG d   1       6.968  86.586 116.269  0.00  0.00    -0.090 HD
ATOM     21  H   LIG d   1       5.916  85.463 115.706  0.00  0.00    -0.090 HD
ENDBRANCH   5  18
BRANCH   3  22
ATOM     22  C   LIG d   1       3.060  87.094 112.383  0.00  0.00     0.382 C 
ATOM     23  O   LIG d   1       3.165  85.873 112.113  0.00  0.00    -0.241 OA
ATOM     24  O   LIG d   1       2.480  87.852 111.583  0.00  0.00    -0.241 OA
ENDBRANCH   3  22
TORSDOF 7
ENDMDL
MODEL 2
REMARK VINA RESULT:      -4.4      2.772      6.057
REMARK  7 active torsions:
REMARK  status: ('A' for Active; 'I' for Inactive)
REMARK    1  A    between atoms: C_2  and  C_3 
REMARK    2  A    between atoms: C_3  and  O_6 
REMARK    3  A    between atoms: C_3  and  C_4 
REMARK    4  A    between atoms: C_7  and  O_6 
REMARK    5  A    between atoms: C_9  and  C_10 
REMARK    6  A    between atoms: N_15  and  C_14 
REMARK    7  A    between atoms: N_20  and  C_19 
REMARK       I    between atoms: C_22  and  N_20 
ROOT
ATOM      1  C   LIG d   1       3.180  89.678 116.113  0.00  0.00     0.161 C 
ATOM      2  C   LIG d   1       3.497  90.832 116.849  0.00  0.00     0.016 C 
ATOM      3  C   LIG d   1       2.523  91.677 117.429  0.00  0.00     0.038 C 
ATOM      4  C   LIG d   1       1.161  91.340 117.440  0.00  0.00     0.028 C 
ATOM      5  C   LIG d   1       0.749  90.447 116.275  0.00  0.00    -0.047 C 
ATOM      6  C   LIG d   1       1.705  89.235 116.209  0.00  0.00     0.091 C 
ENDROOT
BRANCH   1   7
ATOM      7  O   LIG d   1       4.054  88.598 116.496  0.00  0.00    -0.368 OA
BRANCH   7   8
ATOM      8  C   LIG d   1       5.145  88.308 115.588  0.00  0.00     0.119 C 
BRANCH   8   9
ATOM      9  C   LIG d   1       4.790  88.929 114.224  0.00  0.00     0.028 C 
ATOM     10  C   LIG d   1       4.636  87.870 113.119  0.00  0.00     0.006 C 
ENDBRANCH   8   9
BRANCH   8  11
ATOM     11  C   LIG d   1       5.269  86.803 115.329  0.00  0.00     0.028 C 
ATOM     12  C   LIG d   1       5.267  85.974 116.623  0.00  0.00     0.006 C 
ENDBRANCH   8  11
ENDBRANCH   7   8
ENDBRANCH   1   7
BRANCH   6  13
ATOM     13  N   LIG d   1       1.424  88.353 115.045  0.00  0.00    -0.311 N 
ATOM     14  C   LIG d   1       1.530  87.026 115.088  0.00  0.00     0.210 C 
ATOM     15  C   LIG d   1       1.213  86.310 113.772  0.00  0.00     0.109 C 
ATOM     16  O   LIG d   1       1.824  86.373 116.100  0.00  0.00    -0.276 OA
ATOM     17  H   LIG d   1       1.149  88.799 114.192  0.00  0.00     0.149 HD
ENDBRANCH   6  13
BRANCH   5  18
ATOM     18  N   LIG d   1      -0.659  90.062 116.485  0.00  0.00     0.381 N 
ATOM     19  H   LIG d   1      -1.028  89.654 115.649  0.00  0.00    -0.090 HD
ATOM     20  H   LIG d   1      -1.194  90.886 116.696  0.00  0.00    -0.090 HD
ATOM     21  H   LIG d   1      -0.726  89.412 117.238  0.00  0.00    -0.090 HD
ENDBRANCH   5  18
BRANCH   3  22
ATOM     22  C   LIG d   1       2.905  92.894 117.972  0.00  0.00     0.382 C 
ATOM     23  O   LIG d   1       3.917  93.489 117.528  0.00  0.00    -0.241 OA
ATOM     24  O   LIG d   1       2.277  93.384 118.930  0.00  0.00    -0.241 OA
ENDBRANCH   3  22
TORSDOF 7
ENDMDL
MODEL 3
REMARK VINA RESULT:      -4.4      3.257      6.057
REMARK  7 active torsions:
REMARK  status: ('A' for Active; 'I' for Inactive)
REMARK    1  A    between atoms: C_2  and  C_3 
REMARK    2  A    between atoms: C_3  and  O_6 
REMARK    3  A    between atoms: C_3  and  C_4 
REMARK    4  A    between atoms: C_7  and  O_6 
REMARK    5  A    between atoms: C_9  and  C_10 
REMARK    6  A    between atoms: N_15  and  C_14 
REMARK    7  A    between atoms: N_20  and  C_19 
REMARK       I    between atoms: C_22  and  N_20 
ROOT
ATOM      1  C   LIG d   1       1.075  90.243 116.938  0.00  0.00     0.161 C 
ATOM      2  C   LIG d   1      -0.329  90.196 116.908  0.00  0.00     0.016 C 
ATOM      3  C   LIG d   1      -1.154  91.183 117.495  0.00  0.00     0.038 C 
ATOM      4  C   LIG d   1      -0.627  92.370 118.024  0.00  0.00     0.028 C 
ATOM      5  C   LIG d   1       0.806  92.226 118.527  0.00  0.00    -0.047 C 
ATOM      6  C   LIG d   1       1.666  91.587 117.414  0.00  0.00     0.091 C 
ENDROOT
BRANCH   1   7
ATOM      7  O   LIG d   1       1.604  89.894 115.643  0.00  0.00    -0.368 OA
BRANCH   7   8
ATOM      8  C   LIG d   1       2.372  88.667 115.579  0.00  0.00     0.119 C 
BRANCH   8   9
ATOM      9  C   LIG d   1       3.507  88.885 114.560  0.00  0.00     0.028 C 
ATOM     10  C   LIG d   1       4.744  89.544 115.193  0.00  0.00     0.006 C 
ENDBRANCH   8   9
BRANCH   8  11
ATOM     11  C   LIG d   1       1.535  87.515 115.014  0.00  0.00     0.028 C 
ATOM     12  C   LIG d   1       2.108  86.133 115.368  0.00  0.00     0.006 C 
ENDBRANCH   8  11
ENDBRANCH   7   8
ENDBRANCH   1   7
BRANCH   6  13
ATOM     13  N   LIG d   1       3.063  91.333 117.852  0.00  0.00    -0.311 N 
ATOM     14  C   LIG d   1       4.035  92.240 117.765  0.00  0.00     0.210 C 
ATOM     15  C   LIG d   1       5.407  91.766 118.255  0.00  0.00     0.109 C 
ATOM     16  O   LIG d   1       3.884  93.402 117.358  0.00  0.00    -0.276 OA
ATOM     17  H   LIG d   1       3.267  90.426 118.224  0.00  0.00     0.149 HD
ENDBRANCH   6  13
BRANCH   5  18
ATOM     18  N   LIG d   1       1.276  93.567 118.923  0.00  0.00     0.381 N 
ATOM     19  H   LIG d   1       1.836  93.499 119.749  0.00  0.00    -0.090 HD
ATOM     20  H   LIG d   1       0.479  94.143 119.130  0.00  0.00    -0.090 HD
ATOM     21  H   LIG d   1       1.807  93.974 118.185  0.00  0.00    -0.090 HD
ENDBRANCH   5  18
BRANCH   3  22
ATOM     22  C   LIG d   1      -2.520  90.967 117.592  0.00  0.00     0.382 C 
ATOM     23  O   LIG d   1      -3.028  89.933 117.097  0.00  0.00    -0.241 OA
ATOM     24  O   LIG d   1      -3.257  91.816 118.130  0.00  0.00    -0.241 OA
ENDBRANCH   3  22
TORSDOF 7
ENDMDL
MODEL 4
REMARK VINA RESULT:      -4.2      2.049      5.096
REMARK  7 active torsions:
REMARK  status: ('A' for Active; 'I' for Inactive)
REMARK    1  A    between atoms: C_2  and  C_3 
REMARK    2  A    between atoms: C_3  and  O_6 
REMARK    3  A    between atoms: C_3  and  C_4 
REMARK    4  A    between atoms: C_7  and  O_6 
REMARK    5  A    between atoms: C_9  and  C_10 
REMARK    6  A    between atoms: N_15  and  C_14 
REMARK    7  A    between atoms: N_20  and  C_19 
REMARK       I    between atoms: C_22  and  N_20 
ROOT
ATOM      1  C   LIG d   1       2.840  88.881 115.556  0.00  0.00     0.161 C 
ATOM      2  C   LIG d   1       1.597  89.350 116.011  0.00  0.00     0.016 C 
ATOM      3  C   LIG d   1       1.455  90.433 116.909  0.00  0.00     0.038 C 
ATOM      4  C   LIG d   1       2.548  91.223 117.297  0.00  0.00     0.028 C 
ATOM      5  C   LIG d   1       3.877  90.477 117.262  0.00  0.00    -0.047 C 
ATOM      6  C   LIG d   1       4.037  89.800 115.881  0.00  0.00     0.091 C 
ENDROOT
BRANCH   1   7
ATOM      7  O   LIG d   1       2.776  88.624 114.139  0.00  0.00    -0.368 OA
BRANCH   7   8
ATOM      8  C   LIG d   1       3.081  87.270 113.723  0.00  0.00     0.119 C 
BRANCH   8   9
ATOM      9  C   LIG d   1       4.092  87.360 112.562  0.00  0.00     0.028 C 
ATOM     10  C   LIG d   1       3.782  86.359 111.436  0.00  0.00     0.006 C 
ENDBRANCH   8   9
BRANCH   8  11
ATOM     11  C   LIG d   1       1.849  86.577 113.135  0.00  0.00     0.028 C 
ATOM     12  C   LIG d   1       0.834  86.154 114.209  0.00  0.00     0.006 C 
ENDBRANCH   8  11
ENDBRANCH   7   8
ENDBRANCH   1   7
BRANCH   6  13
ATOM     13  N   LIG d   1       5.272  88.979 115.791  0.00  0.00    -0.311 N 
ATOM     14  C   LIG d   1       5.499  87.910 116.552  0.00  0.00     0.210 C 
ATOM     15  C   LIG d   1       6.844  87.219 116.312  0.00  0.00     0.109 C 
ATOM     16  O   LIG d   1       4.699  87.449 117.380  0.00  0.00    -0.276 OA
ATOM     17  H   LIG d   1       5.961  89.264 115.123  0.00  0.00     0.149 HD
ENDBRANCH   6  13
BRANCH   5  18
ATOM     18  N   LIG d   1       4.944  91.453 117.554  0.00  0.00     0.381 N 
ATOM     19  H   LIG d   1       5.795  91.168 117.111  0.00  0.00    -0.090 HD
ATOM     20  H   LIG d   1       5.099  91.477 118.547  0.00  0.00    -0.090 HD
ATOM     21  H   LIG d   1       4.678  92.356 117.229  0.00  0.00    -0.090 HD
ENDBRANCH   5  18
BRANCH   3  22
ATOM     22  C   LIG d   1       0.213  90.711 117.460  0.00  0.00     0.382 C 
ATOM     23  O   LIG d   1      -0.832  90.383 116.848  0.00  0.00    -0.241 OA
ATOM     24  O   LIG d   1       0.125  91.325 118.540  0.00  0.00    -0.241 OA
ENDBRANCH   3  22
TORSDOF 7
ENDMDL
MODEL 5
REMARK VINA RESULT:      -4.2      2.045      2.862
REMARK  7 active torsions:
REMARK  status: ('A' for Active; 'I' for Inactive)
REMARK    1  A    between atoms: C_2  and  C_3 
REMARK    2  A    between atoms: C_3  and  O_6 
REMARK    3  A    between atoms: C_3  and  C_4 
REMARK    4  A    between atoms: C_7  and  O_6 
REMARK    5  A    between atoms: C_9  and  C_10 
REMARK    6  A    between atoms: N_15  and  C_14 
REMARK    7  A    between atoms: N_20  and  C_19 
REMARK       I    between atoms: C_22  and  N_20 
ROOT
ATOM      1  C   LIG d   1       1.961  89.937 116.803  0.00  0.00     0.161 C 
ATOM      2  C   LIG d   1       1.504  88.850 116.039  0.00  0.00     0.016 C 
ATOM      3  C   LIG d   1       2.358  88.022 115.275  0.00  0.00     0.038 C 
ATOM      4  C   LIG d   1       3.754  88.133 115.343  0.00  0.00     0.028 C 
ATOM      5  C   LIG d   1       4.233  89.535 115.705  0.00  0.00    -0.047 C 
ATOM      6  C   LIG d   1       3.493  90.006 116.977  0.00  0.00     0.091 C 
ENDROOT
BRANCH   1   7
ATOM      7  O   LIG d   1       1.310  89.940 118.088  0.00  0.00    -0.368 OA
BRANCH   7   8
ATOM      8  C   LIG d   1       0.301  90.960 118.289  0.00  0.00     0.119 C 
BRANCH   8   9
ATOM      9  C   LIG d   1      -1.044  90.382 117.808  0.00  0.00     0.028 C 
ATOM     10  C   LIG d   1      -2.106  90.363 118.920  0.00  0.00     0.006 C 
ENDBRANCH   8   9
BRANCH   8  11
ATOM     11  C   LIG d   1       0.558  92.181 117.401  0.00  0.00     0.028 C 
ATOM     12  C   LIG d   1      -0.121  93.455 117.929  0.00  0.00     0.006 C 
ENDBRANCH   8  11
ENDBRANCH   7   8
ENDBRANCH   1   7
BRANCH   6  13
ATOM     13  N   LIG d   1       3.841  91.401 117.353  0.00  0.00    -0.311 N 
ATOM     14  C   LIG d   1       4.825  91.710 118.195  0.00  0.00     0.210 C 
ATOM     15  C   LIG d   1       5.003  93.208 118.461  0.00  0.00     0.109 C 
ATOM     16  O   LIG d   1       5.589  90.887 118.723  0.00  0.00    -0.276 OA
ATOM     17  H   LIG d   1       3.292  92.133 116.946  0.00  0.00     0.149 HD
ENDBRANCH   6  13
BRANCH   5  18
ATOM     18  N   LIG d   1       5.697  89.476 115.876  0.00  0.00     0.381 N 
ATOM     19  H   LIG d   1       5.955  89.908 116.741  0.00  0.00    -0.090 HD
ATOM     20  H   LIG d   1       6.133  89.983 115.127  0.00  0.00    -0.090 HD
ATOM     21  H   LIG d   1       6.003  88.527 115.867  0.00  0.00    -0.090 HD
ENDBRANCH   5  18
BRANCH   3  22
ATOM     22  C   LIG d   1       1.813  87.095 114.399  0.00  0.00     0.382 C 
ATOM     23  O   LIG d   1       1.255  86.064 114.846  0.00  0.00    -0.241 OA
ATOM     24  O   LIG d   1       1.911  87.255 113.168  0.00  0.00    -0.241 OA
ENDBRANCH   3  22
TORSDOF 7
ENDMDL
MODEL 6
REMARK VINA RESULT:      -4.2      2.351      5.003
REMARK  7 active torsions:
REMARK  status: ('A' for Active; 'I' for Inactive)
REMARK    1  A    between atoms: C_2  and  C_3 
REMARK    2  A    between atoms: C_3  and  O_6 
REMARK    3  A    between atoms: C_3  and  C_4 
REMARK    4  A    between atoms: C_7  and  O_6 
REMARK    5  A    between atoms: C_9  and  C_10 
REMARK    6  A    between atoms: N_15  and  C_14 
REMARK    7  A    between atoms: N_20  and  C_19 
REMARK       I    between atoms: C_22  and  N_20 
ROOT
ATOM      1  C   LIG d   1       1.862  89.317 116.676  0.00  0.00     0.161 C 
ATOM      2  C   LIG d   1       2.804  90.229 117.181  0.00  0.00     0.016 C 
ATOM      3  C   LIG d   1       4.165  90.236 116.796  0.00  0.00     0.038 C 
ATOM      4  C   LIG d   1       4.646  89.422 115.759  0.00  0.00     0.028 C 
ATOM      5  C   LIG d   1       3.844  88.138 115.575  0.00  0.00    -0.047 C 
ATOM      6  C   LIG d   1       2.344  88.494 115.463  0.00  0.00     0.091 C 
ENDROOT
BRANCH   1   7
ATOM      7  O   LIG d   1       0.636  90.005 116.360  0.00  0.00    -0.368 OA
BRANCH   7   8
ATOM      8  C   LIG d   1       0.006  90.718 117.452  0.00  0.00     0.119 C 
BRANCH   8   9
ATOM      9  C   LIG d   1      -1.488  90.339 117.452  0.00  0.00     0.028 C 
ATOM     10  C   LIG d   1      -2.094  90.337 118.865  0.00  0.00     0.006 C 
ENDBRANCH   8   9
BRANCH   8  11
ATOM     11  C   LIG d   1       0.040  92.232 117.223  0.00  0.00     0.028 C 
ATOM     12  C   LIG d   1       0.728  92.993 118.367  0.00  0.00     0.006 C 
ENDBRANCH   8  11
ENDBRANCH   7   8
ENDBRANCH   1   7
BRANCH   6  13
ATOM     13  N   LIG d   1       1.481  87.289 115.365  0.00  0.00    -0.311 N 
ATOM     14  C   LIG d   1       1.129  86.731 114.208  0.00  0.00     0.210 C 
ATOM     15  C   LIG d   1       0.217  85.506 114.332  0.00  0.00     0.109 C 
ATOM     16  O   LIG d   1       1.512  87.114 113.093  0.00  0.00    -0.276 OA
ATOM     17  H   LIG d   1       1.151  86.893 116.224  0.00  0.00     0.149 HD
ENDBRANCH   6  13
BRANCH   5  18
ATOM     18  N   LIG d   1       4.367  87.454 114.378  0.00  0.00     0.381 N 
ATOM     19  H   LIG d   1       5.033  88.040 113.916  0.00  0.00    -0.090 HD
ATOM     20  H   LIG d   1       3.607  87.280 113.744  0.00  0.00    -0.090 HD
ATOM     21  H   LIG d   1       4.796  86.592 114.637  0.00  0.00    -0.090 HD
ENDBRANCH   5  18
BRANCH   3  22
ATOM     22  C   LIG d   1       5.068  91.036 117.478  0.00  0.00     0.382 C 
ATOM     23  O   LIG d   1       6.125  90.538 117.936  0.00  0.00    -0.241 OA
ATOM     24  O   LIG d   1       4.819  92.240 117.680  0.00  0.00    -0.241 OA
ENDBRANCH   3  22
TORSDOF 7
ENDMDL
MODEL 7
REMARK VINA RESULT:      -4.1      2.180      4.643
REMARK  7 active torsions:
REMARK  status: ('A' for Active; 'I' for Inactive)
REMARK    1  A    between atoms: C_2  and  C_3 
REMARK    2  A    between atoms: C_3  and  O_6 
REMARK    3  A    between atoms: C_3  and  C_4 
REMARK    4  A    between atoms: C_7  and  O_6 
REMARK    5  A    between atoms: C_9  and  C_10 
REMARK    6  A    between atoms: N_15  and  C_14 
REMARK    7  A    between atoms: N_20  and  C_19 
REMARK       I    between atoms: C_22  and  N_20 
ROOT
ATOM      1  C   LIG d   1       4.090  86.947 116.242  0.00  0.00     0.161 C 
ATOM      2  C   LIG d   1       2.946  87.761 116.177  0.00  0.00     0.016 C 
ATOM      3  C   LIG d   1       2.839  89.007 116.835  0.00  0.00     0.038 C 
ATOM      4  C   LIG d   1       3.932  89.599 117.486  0.00  0.00     0.028 C 
ATOM      5  C   LIG d   1       4.948  88.587 118.005  0.00  0.00    -0.047 C 
ATOM      6  C   LIG d   1       5.332  87.627 116.855  0.00  0.00     0.091 C 
ENDROOT
BRANCH   1   7
ATOM      7  O   LIG d   1       4.397  86.429 114.933  0.00  0.00    -0.368 OA
BRANCH   7   8
ATOM      8  C   LIG d   1       3.683  87.032 113.826  0.00  0.00     0.119 C 
BRANCH   8   9
ATOM      9  C   LIG d   1       3.249  85.894 112.881  0.00  0.00     0.028 C 
ATOM     10  C   LIG d   1       3.700  86.131 111.430  0.00  0.00     0.006 C 
ENDBRANCH   8   9
BRANCH   8  11
ATOM     11  C   LIG d   1       4.604  87.924 112.988  0.00  0.00     0.028 C 
ATOM     12  C   LIG d   1       4.656  89.373 113.500  0.00  0.00     0.006 C 
ENDBRANCH   8  11
ENDBRANCH   7   8
ENDBRANCH   1   7
BRANCH   6  13
ATOM     13  N   LIG d   1       6.259  86.553 117.300  0.00  0.00    -0.311 N 
ATOM     14  C   LIG d   1       7.585  86.661 117.246  0.00  0.00     0.210 C 
ATOM     15  C   LIG d   1       8.355  85.430 117.735  0.00  0.00     0.109 C 
ATOM     16  O   LIG d   1       8.198  87.672 116.871  0.00  0.00    -0.276 OA
ATOM     17  H   LIG d   1       5.847  85.710 117.648  0.00  0.00     0.149 HD
ENDBRANCH   6  13
BRANCH   5  18
ATOM     18  N   LIG d   1       6.098  89.342 118.536  0.00  0.00     0.381 N 
ATOM     19  H   LIG d   1       5.774  90.142 119.042  0.00  0.00    -0.090 HD
ATOM     20  H   LIG d   1       6.660  89.663 117.766  0.00  0.00    -0.090 HD
ATOM     21  H   LIG d   1       6.642  88.760 119.133  0.00  0.00    -0.090 HD
ENDBRANCH   5  18
BRANCH   3  22
ATOM     22  C   LIG d   1       1.615  89.657 116.881  0.00  0.00     0.382 C 
ATOM     23  O   LIG d   1       1.082  89.912 117.988  0.00  0.00    -0.241 OA
ATOM     24  O   LIG d   1       1.016  89.951 115.829  0.00  0.00    -0.241 OA
ENDBRANCH   3  22
TORSDOF 7
ENDMDL
MODEL 8
REMARK VINA RESULT:      -3.9      2.306      4.867
REMARK  7 active torsions:
REMARK  status: ('A' for Active; 'I' for Inactive)
REMARK    1  A    between atoms: C_2  and  C_3 
REMARK    2  A    between atoms: C_3  and  O_6 
REMARK    3  A    between atoms: C_3  and  C_4 
REMARK    4  A    between atoms: C_7  and  O_6 
REMARK    5  A    between atoms: C_9  and  C_10 
REMARK    6  A    between atoms: N_15  and  C_14 
REMARK    7  A    between atoms: N_20  and  C_19 
REMARK       I    between atoms: C_22  and  N_20 
ROOT
ATOM      1  C   LIG d   1       3.237  87.323 116.943  0.00  0.00     0.161 C 
ATOM      2  C   LIG d   1       4.564  87.643 117.275  0.00  0.00     0.016 C 
ATOM      3  C   LIG d   1       5.640  87.548 116.362  0.00  0.00     0.038 C 
ATOM      4  C   LIG d   1       5.435  87.269 115.002  0.00  0.00     0.028 C 
ATOM      5  C   LIG d   1       4.179  86.447 114.735  0.00  0.00    -0.047 C 
ATOM      6  C   LIG d   1       2.978  87.124 115.435  0.00  0.00     0.091 C 
ENDROOT
BRANCH   1   7
ATOM      7  O   LIG d   1       2.346  88.322 117.477  0.00  0.00    -0.368 OA
BRANCH   7   8
ATOM      8  C   LIG d   1       2.306  89.585 116.768  0.00  0.00     0.119 C 
BRANCH   8   9
ATOM      9  C   LIG d   1       2.701  90.689 117.768  0.00  0.00     0.028 C 
ATOM     10  C   LIG d   1       4.121  91.225 117.520  0.00  0.00     0.006 C 
ENDBRANCH   8   9
BRANCH   8  11
ATOM     11  C   LIG d   1       0.882  89.930 116.324  0.00  0.00     0.028 C 
ATOM     12  C   LIG d   1       0.380  91.259 116.912  0.00  0.00     0.006 C 
ENDBRANCH   8  11
ENDBRANCH   7   8
ENDBRANCH   1   7
BRANCH   6  13
ATOM     13  N   LIG d   1       1.724  86.339 115.293  0.00  0.00    -0.311 N 
ATOM     14  C   LIG d   1       0.943  86.393 114.216  0.00  0.00     0.210 C 
ATOM     15  C   LIG d   1      -0.314  85.520 114.284  0.00  0.00     0.109 C 
ATOM     16  O   LIG d   1       1.188  87.057 113.197  0.00  0.00    -0.276 OA
ATOM     17  H   LIG d   1       1.466  85.750 116.061  0.00  0.00     0.149 HD
ENDBRANCH   6  13
BRANCH   5  18
ATOM     18  N   LIG d   1       4.015  86.348 113.272  0.00  0.00     0.381 N 
ATOM     19  H   LIG d   1       3.149  85.895 113.058  0.00  0.00    -0.090 HD
ATOM     20  H   LIG d   1       4.763  85.791 112.898  0.00  0.00    -0.090 HD
ATOM     21  H   LIG d   1       4.031  87.257 112.865  0.00  0.00    -0.090 HD
ENDBRANCH   5  18
BRANCH   3  22
ATOM     22  C   LIG d   1       6.942  87.693 116.816  0.00  0.00     0.382 C 
ATOM     23  O   LIG d   1       7.848  86.949 116.371  0.00  0.00    -0.241 OA
ATOM     24  O   LIG d   1       7.213  88.530 117.698  0.00  0.00    -0.241 OA
ENDBRANCH   3  22
TORSDOF 7
ENDMDL
MODEL 9
REMARK VINA RESULT:      -3.8      2.129      3.107
REMARK  7 active torsions:
REMARK  status: ('A' for Active; 'I' for Inactive)
REMARK    1  A    between atoms: C_2  and  C_3 
REMARK    2  A    between atoms: C_3  and  O_6 
REMARK    3  A    between atoms: C_3  and  C_4 
REMARK    4  A    between atoms: C_7  and  O_6 
REMARK    5  A    between atoms: C_9  and  C_10 
REMARK    6  A    between atoms: N_15  and  C_14 
REMARK    7  A    between atoms: N_20  and  C_19 
REMARK       I    between atoms: C_22  and  N_20 
ROOT
ATOM      1  C   LIG d   1       2.109  89.516 117.092  0.00  0.00     0.161 C 
ATOM      2  C   LIG d   1       1.530  88.757 116.062  0.00  0.00     0.016 C 
ATOM      3  C   LIG d   1       2.105  87.570 115.552  0.00  0.00     0.038 C 
ATOM      4  C   LIG d   1       3.229  86.976 116.147  0.00  0.00     0.028 C 
ATOM      5  C   LIG d   1       4.133  87.974 116.863  0.00  0.00    -0.047 C 
ATOM      6  C   LIG d   1       3.277  88.825 117.827  0.00  0.00     0.091 C 
ENDROOT
BRANCH   1   7
ATOM      7  O   LIG d   1       1.094  89.920 118.032  0.00  0.00    -0.368 OA
BRANCH   7   8
ATOM      8  C   LIG d   1      -0.029  90.652 117.482  0.00  0.00     0.119 C 
BRANCH   8   9
ATOM      9  C   LIG d   1       0.413  92.119 117.313  0.00  0.00     0.028 C 
ATOM     10  C   LIG d   1       1.167  92.650 118.544  0.00  0.00     0.006 C 
ENDBRANCH   8   9
BRANCH   8  11
ATOM     11  C   LIG d   1      -1.203  90.693 118.464  0.00  0.00     0.028 C 
ATOM     12  C   LIG d   1      -2.538  90.298 117.814  0.00  0.00     0.006 C 
ENDBRANCH   8  11
ENDBRANCH   7   8
ENDBRANCH   1   7
BRANCH   6  13
ATOM     13  N   LIG d   1       4.070  89.883 118.507  0.00  0.00    -0.311 N 
ATOM     14  C   LIG d   1       4.509  90.979 117.891  0.00  0.00     0.210 C 
ATOM     15  C   LIG d   1       5.325  91.931 118.770  0.00  0.00     0.109 C 
ATOM     16  O   LIG d   1       4.274  91.268 116.708  0.00  0.00    -0.276 OA
ATOM     17  H   LIG d   1       4.280  89.744 119.476  0.00  0.00     0.149 HD
ENDBRANCH   6  13
BRANCH   5  18
ATOM     18  N   LIG d   1       5.187  87.205 117.551  0.00  0.00     0.381 N 
ATOM     19  H   LIG d   1       5.221  87.465 118.517  0.00  0.00    -0.090 HD
ATOM     20  H   LIG d   1       6.075  87.425 117.135  0.00  0.00    -0.090 HD
ATOM     21  H   LIG d   1       5.006  86.229 117.469  0.00  0.00    -0.090 HD
ENDBRANCH   5  18
BRANCH   3  22
ATOM     22  C   LIG d   1       1.578  86.985 114.411  0.00  0.00     0.382 C 
ATOM     23  O   LIG d   1       2.067  87.253 113.287  0.00  0.00    -0.241 OA
ATOM     24  O   LIG d   1       0.591  86.229 114.487  0.00  0.00    -0.241 OA
ENDBRANCH   3  22
TORSDOF 7
ENDMDL
