MODEL 1
REMARK VINA RESULT:      -4.6      0.000      0.000
REMARK  7 active torsions:
REMARK  status: ('A' for Active; 'I' for Inactive)
REMARK    1  A    between atoms: C_2  and  C_3 
REMARK    2  A    between atoms: C_3  and  O_6 
REMARK    3  A    between atoms: C_3  and  C_4 
REMARK    4  A    between atoms: C_7  and  O_6 
REMARK    5  A    between atoms: C_9  and  C_10 
REMARK    6  A    between atoms: N_15  and  C_14 
REMARK    7  A    between atoms: N_20  and  C_19 
REMARK       I    between atoms: C_22  and  N_20 
ROOT
ATOM      1  C   LIG d   1       3.174  89.056 115.989  0.00  0.00     0.161 C 
ATOM      2  C   LIG d   1       3.579  90.272 116.564  0.00  0.00     0.016 C 
ATOM      3  C   LIG d   1       2.688  91.164 117.205  0.00  0.00     0.038 C 
ATOM      4  C   LIG d   1       1.349  90.826 117.450  0.00  0.00     0.028 C 
ATOM      5  C   LIG d   1       0.782  89.830 116.444  0.00  0.00    -0.047 C 
ATOM      6  C   LIG d   1       1.738  88.619 116.344  0.00  0.00     0.091 C 
ENDROOT
BRANCH   1   7
ATOM      7  O   LIG d   1       4.113  88.017 116.333  0.00  0.00    -0.368 OA
BRANCH   7   8
ATOM      8  C   LIG d   1       4.796  87.383 115.224  0.00  0.00     0.119 C 
BRANCH   8   9
ATOM      9  C   LIG d   1       6.301  87.368 115.554  0.00  0.00     0.028 C 
ATOM     10  C   LIG d   1       6.603  87.961 116.940  0.00  0.00     0.006 C 
ENDBRANCH   8   9
BRANCH   8  11
ATOM     11  C   LIG d   1       4.670  88.213 113.943  0.00  0.00     0.028 C 
ATOM     12  C   LIG d   1       4.109  87.406 112.762  0.00  0.00     0.006 C 
ENDBRANCH   8  11
ENDBRANCH   7   8
ENDBRANCH   1   7
BRANCH   6  13
ATOM     13  N   LIG d   1       1.300  87.635 115.320  0.00  0.00    -0.311 N 
ATOM     14  C   LIG d   1       1.328  86.317 115.510  0.00  0.00     0.210 C 
ATOM     15  C   LIG d   1       0.852  85.481 114.318  0.00  0.00     0.109 C 
ATOM     16  O   LIG d   1       1.670  85.762 116.565  0.00  0.00    -0.276 OA
ATOM     17  H   LIG d   1       0.978  88.000 114.445  0.00  0.00     0.149 HD
ENDBRANCH   6  13
BRANCH   5  18
ATOM     18  N   LIG d   1      -0.573  89.462 116.897  0.00  0.00     0.381 N 
ATOM     19  H   LIG d   1      -1.001  90.242 117.355  0.00  0.00    -0.090 HD
ATOM     20  H   LIG d   1      -0.501  88.709 117.558  0.00  0.00    -0.090 HD
ATOM     21  H   LIG d   1      -1.127  89.179 116.119  0.00  0.00    -0.090 HD
ENDBRANCH   5  18
BRANCH   3  22
ATOM     22  C   LIG d   1       3.127  92.427 117.573  0.00  0.00     0.382 C 
ATOM     23  O   LIG d   1       2.459  93.110 118.386  0.00  0.00    -0.241 OA
ATOM     24  O   LIG d   1       4.160  92.909 117.070  0.00  0.00    -0.241 OA
ENDBRANCH   3  22
TORSDOF 7
ENDMDL
MODEL 2
REMARK VINA RESULT:      -4.6      2.381      4.104
REMARK  7 active torsions:
REMARK  status: ('A' for Active; 'I' for Inactive)
REMARK    1  A    between atoms: C_2  and  C_3 
REMARK    2  A    between atoms: C_3  and  O_6 
REMARK    3  A    between atoms: C_3  and  C_4 
REMARK    4  A    between atoms: C_7  and  O_6 
REMARK    5  A    between atoms: C_9  and  C_10 
REMARK    6  A    between atoms: N_15  and  C_14 
REMARK    7  A    between atoms: N_20  and  C_19 
REMARK       I    between atoms: C_22  and  N_20 
ROOT
ATOM      1  C   LIG d   1       3.965  87.228 115.983  0.00  0.00     0.161 C 
ATOM      2  C   LIG d   1       4.209  88.042 117.102  0.00  0.00     0.016 C 
ATOM      3  C   LIG d   1       4.702  89.364 117.009  0.00  0.00     0.038 C 
ATOM      4  C   LIG d   1       4.843  90.018 115.776  0.00  0.00     0.028 C 
ATOM      5  C   LIG d   1       5.089  89.066 114.610  0.00  0.00    -0.047 C 
ATOM      6  C   LIG d   1       4.007  87.962 114.627  0.00  0.00     0.091 C 
ENDROOT
BRANCH   1   7
ATOM      7  O   LIG d   1       2.707  86.542 116.143  0.00  0.00    -0.368 OA
BRANCH   7   8
ATOM      8  C   LIG d   1       1.548  87.195 115.568  0.00  0.00     0.119 C 
BRANCH   8   9
ATOM      9  C   LIG d   1       0.928  88.084 116.663  0.00  0.00     0.028 C 
ATOM     10  C   LIG d   1       1.017  89.581 116.324  0.00  0.00     0.006 C 
ENDBRANCH   8   9
BRANCH   8  11
ATOM     11  C   LIG d   1       0.460  86.180 115.205  0.00  0.00     0.028 C 
ATOM     12  C   LIG d   1       0.586  85.662 113.764  0.00  0.00     0.006 C 
ENDBRANCH   8  11
ENDBRANCH   7   8
ENDBRANCH   1   7
BRANCH   6  13
ATOM     13  N   LIG d   1       4.223  86.941 113.569  0.00  0.00    -0.311 N 
ATOM     14  C   LIG d   1       3.656  87.001 112.365  0.00  0.00     0.210 C 
ATOM     15  C   LIG d   1       3.996  85.835 111.431  0.00  0.00     0.109 C 
ATOM     16  O   LIG d   1       2.928  87.925 111.972  0.00  0.00    -0.276 OA
ATOM     17  H   LIG d   1       4.825  86.172 113.793  0.00  0.00     0.149 HD
ENDBRANCH   6  13
BRANCH   5  18
ATOM     18  N   LIG d   1       5.079  89.867 113.371  0.00  0.00     0.381 N 
ATOM     19  H   LIG d   1       4.174  90.273 113.238  0.00  0.00    -0.090 HD
ATOM     20  H   LIG d   1       5.271  89.263 112.592  0.00  0.00    -0.090 HD
ATOM     21  H   LIG d   1       5.768  90.585 113.423  0.00  0.00    -0.090 HD
ENDBRANCH   5  18
BRANCH   3  22
ATOM     22  C   LIG d   1       5.099  90.031 118.158  0.00  0.00     0.382 C 
ATOM     23  O   LIG d   1       4.446  91.024 118.563  0.00  0.00    -0.241 OA
ATOM     24  O   LIG d   1       6.126  89.681 118.770  0.00  0.00    -0.241 OA
ENDBRANCH   3  22
TORSDOF 7
ENDMDL
MODEL 3
REMARK VINA RESULT:      -4.4      1.902      2.832
REMARK  7 active torsions:
REMARK  status: ('A' for Active; 'I' for Inactive)
REMARK    1  A    between atoms: C_2  and  C_3 
REMARK    2  A    between atoms: C_3  and  O_6 
REMARK    3  A    between atoms: C_3  and  C_4 
REMARK    4  A    between atoms: C_7  and  O_6 
REMARK    5  A    between atoms: C_9  and  C_10 
REMARK    6  A    between atoms: N_15  and  C_14 
REMARK    7  A    between atoms: N_20  and  C_19 
REMARK       I    between atoms: C_22  and  N_20 
ROOT
ATOM      1  C   LIG d   1       4.214  89.534 115.819  0.00  0.00     0.161 C 
ATOM      2  C   LIG d   1       3.706  90.601 116.578  0.00  0.00     0.016 C 
ATOM      3  C   LIG d   1       2.367  90.669 117.026  0.00  0.00     0.038 C 
ATOM      4  C   LIG d   1       1.478  89.594 116.873  0.00  0.00     0.028 C 
ATOM      5  C   LIG d   1       1.800  88.709 115.674  0.00  0.00    -0.047 C 
ATOM      6  C   LIG d   1       3.290  88.301 115.737  0.00  0.00     0.091 C 
ENDROOT
BRANCH   1   7
ATOM      7  O   LIG d   1       5.512  89.154 116.317  0.00  0.00    -0.368 OA
BRANCH   7   8
ATOM      8  C   LIG d   1       5.528  88.444 117.580  0.00  0.00     0.119 C 
BRANCH   8   9
ATOM      9  C   LIG d   1       6.405  89.253 118.555  0.00  0.00     0.028 C 
ATOM     10  C   LIG d   1       7.207  90.357 117.845  0.00  0.00     0.006 C 
ENDBRANCH   8   9
BRANCH   8  11
ATOM     11  C   LIG d   1       6.218  87.084 117.447  0.00  0.00     0.028 C 
ATOM     12  C   LIG d   1       6.996  86.937 116.129  0.00  0.00     0.006 C 
ENDBRANCH   8  11
ENDBRANCH   7   8
ENDBRANCH   1   7
BRANCH   6  13
ATOM     13  N   LIG d   1       3.709  87.502 114.556  0.00  0.00    -0.311 N 
ATOM     14  C   LIG d   1       3.602  87.936 113.302  0.00  0.00     0.210 C 
ATOM     15  C   LIG d   1       4.074  86.946 112.232  0.00  0.00     0.109 C 
ATOM     16  O   LIG d   1       3.191  89.060 112.975  0.00  0.00    -0.276 OA
ATOM     17  H   LIG d   1       4.083  86.590 114.732  0.00  0.00     0.149 HD
ENDBRANCH   6  13
BRANCH   5  18
ATOM     18  N   LIG d   1       0.882  87.554 115.713  0.00  0.00     0.381 N 
ATOM     19  H   LIG d   1       1.408  86.704 115.749  0.00  0.00    -0.090 HD
ATOM     20  H   LIG d   1       0.331  87.549 114.874  0.00  0.00    -0.090 HD
ATOM     21  H   LIG d   1       0.287  87.619 116.510  0.00  0.00    -0.090 HD
ENDBRANCH   5  18
BRANCH   3  22
ATOM     22  C   LIG d   1       1.893  91.839 117.601  0.00  0.00     0.382 C 
ATOM     23  O   LIG d   1       2.691  92.760 117.896  0.00  0.00    -0.241 OA
ATOM     24  O   LIG d   1       0.683  91.966 117.868  0.00  0.00    -0.241 OA
ENDBRANCH   3  22
TORSDOF 7
ENDMDL
MODEL 4
REMARK VINA RESULT:      -4.3      2.289      3.797
REMARK  7 active torsions:
REMARK  status: ('A' for Active; 'I' for Inactive)
REMARK    1  A    between atoms: C_2  and  C_3 
REMARK    2  A    between atoms: C_3  and  O_6 
REMARK    3  A    between atoms: C_3  and  C_4 
REMARK    4  A    between atoms: C_7  and  O_6 
REMARK    5  A    between atoms: C_9  and  C_10 
REMARK    6  A    between atoms: N_15  and  C_14 
REMARK    7  A    between atoms: N_20  and  C_19 
REMARK       I    between atoms: C_22  and  N_20 
ROOT
ATOM      1  C   LIG d   1       1.050  89.498 116.356  0.00  0.00     0.161 C 
ATOM      2  C   LIG d   1       2.362  90.002 116.348  0.00  0.00     0.016 C 
ATOM      3  C   LIG d   1       2.767  91.129 117.099  0.00  0.00     0.038 C 
ATOM      4  C   LIG d   1       1.918  91.743 118.032  0.00  0.00     0.028 C 
ATOM      5  C   LIG d   1       0.438  91.583 117.701  0.00  0.00    -0.047 C 
ATOM      6  C   LIG d   1       0.138  90.087 117.453  0.00  0.00     0.091 C 
ENDROOT
BRANCH   1   7
ATOM      7  O   LIG d   1       1.079  88.060 116.447  0.00  0.00    -0.368 OA
BRANCH   7   8
ATOM      8  C   LIG d   1       2.273  87.414 115.940  0.00  0.00     0.119 C 
BRANCH   8   9
ATOM      9  C   LIG d   1       1.839  86.460 114.811  0.00  0.00     0.028 C 
ATOM     10  C   LIG d   1       0.342  86.113 114.878  0.00  0.00     0.006 C 
ENDBRANCH   8   9
BRANCH   8  11
ATOM     11  C   LIG d   1       2.915  86.518 117.004  0.00  0.00     0.028 C 
ATOM     12  C   LIG d   1       2.498  86.897 118.433  0.00  0.00     0.006 C 
ENDBRANCH   8  11
ENDBRANCH   7   8
ENDBRANCH   1   7
BRANCH   6  13
ATOM     13  N   LIG d   1      -1.270  89.852 117.040  0.00  0.00    -0.311 N 
ATOM     14  C   LIG d   1      -2.155  89.200 117.793  0.00  0.00     0.210 C 
ATOM     15  C   LIG d   1      -3.547  89.051 117.171  0.00  0.00     0.109 C 
ATOM     16  O   LIG d   1      -1.929  88.759 118.930  0.00  0.00    -0.276 OA
ATOM     17  H   LIG d   1      -1.548  90.203 116.145  0.00  0.00     0.149 HD
ENDBRANCH   6  13
BRANCH   5  18
ATOM     18  N   LIG d   1      -0.334  92.148 118.824  0.00  0.00     0.381 N 
ATOM     19  H   LIG d   1      -1.061  91.514 119.089  0.00  0.00    -0.090 HD
ATOM     20  H   LIG d   1      -0.759  93.008 118.526  0.00  0.00    -0.090 HD
ATOM     21  H   LIG d   1       0.268  92.318 119.600  0.00  0.00    -0.090 HD
ENDBRANCH   5  18
BRANCH   3  22
ATOM     22  C   LIG d   1       4.022  91.679 116.890  0.00  0.00     0.382 C 
ATOM     23  O   LIG d   1       4.991  90.937 116.596  0.00  0.00    -0.241 OA
ATOM     24  O   LIG d   1       4.209  92.902 117.035  0.00  0.00    -0.241 OA
ENDBRANCH   3  22
TORSDOF 7
ENDMDL
MODEL 5
REMARK VINA RESULT:      -4.3      2.642      4.416
REMARK  7 active torsions:
REMARK  status: ('A' for Active; 'I' for Inactive)
REMARK    1  A    between atoms: C_2  and  C_3 
REMARK    2  A    between atoms: C_3  and  O_6 
REMARK    3  A    between atoms: C_3  and  C_4 
REMARK    4  A    between atoms: C_7  and  O_6 
REMARK    5  A    between atoms: C_9  and  C_10 
REMARK    6  A    between atoms: N_15  and  C_14 
REMARK    7  A    between atoms: N_20  and  C_19 
REMARK       I    between atoms: C_22  and  N_20 
ROOT
ATOM      1  C   LIG d   1       4.353  87.936 116.974  0.00  0.00     0.161 C 
ATOM      2  C   LIG d   1       3.469  89.020 116.848  0.00  0.00     0.016 C 
ATOM      3  C   LIG d   1       3.878  90.371 116.922  0.00  0.00     0.038 C 
ATOM      4  C   LIG d   1       5.232  90.733 116.975  0.00  0.00     0.028 C 
ATOM      5  C   LIG d   1       6.120  89.669 117.611  0.00  0.00    -0.047 C 
ATOM      6  C   LIG d   1       5.849  88.312 116.921  0.00  0.00     0.091 C 
ENDROOT
BRANCH   1   7
ATOM      7  O   LIG d   1       4.052  86.941 115.975  0.00  0.00    -0.368 OA
BRANCH   7   8
ATOM      8  C   LIG d   1       3.389  87.419 114.779  0.00  0.00     0.119 C 
BRANCH   8   9
ATOM      9  C   LIG d   1       2.263  86.422 114.444  0.00  0.00     0.028 C 
ATOM     10  C   LIG d   1       1.037  86.593 115.356  0.00  0.00     0.006 C 
ENDBRANCH   8   9
BRANCH   8  11
ATOM     11  C   LIG d   1       4.330  87.389 113.571  0.00  0.00     0.028 C 
ATOM     12  C   LIG d   1       5.031  88.735 113.329  0.00  0.00     0.006 C 
ENDBRANCH   8  11
ENDBRANCH   7   8
ENDBRANCH   1   7
BRANCH   6  13
ATOM     13  N   LIG d   1       6.615  87.199 117.539  0.00  0.00    -0.311 N 
ATOM     14  C   LIG d   1       7.609  86.562 116.922  0.00  0.00     0.210 C 
ATOM     15  C   LIG d   1       8.252  85.431 117.731  0.00  0.00     0.109 C 
ATOM     16  O   LIG d   1       8.040  86.847 115.795  0.00  0.00    -0.276 OA
ATOM     17  H   LIG d   1       6.352  86.923 118.465  0.00  0.00     0.149 HD
ENDBRANCH   6  13
BRANCH   5  18
ATOM     18  N   LIG d   1       7.519  90.116 117.476  0.00  0.00     0.381 N 
ATOM     19  H   LIG d   1       7.983  90.050 118.360  0.00  0.00    -0.090 HD
ATOM     20  H   LIG d   1       7.526  91.079 117.188  0.00  0.00    -0.090 HD
ATOM     21  H   LIG d   1       7.993  89.557 116.802  0.00  0.00    -0.090 HD
ENDBRANCH   5  18
BRANCH   3  22
ATOM     22  C   LIG d   1       2.925  91.376 116.983  0.00  0.00     0.382 C 
ATOM     23  O   LIG d   1       1.705  91.085 116.952  0.00  0.00    -0.241 OA
ATOM     24  O   LIG d   1       3.269  92.572 117.023  0.00  0.00    -0.241 OA
ENDBRANCH   3  22
TORSDOF 7
ENDMDL
MODEL 6
REMARK VINA RESULT:      -4.1      2.532      3.868
REMARK  7 active torsions:
REMARK  status: ('A' for Active; 'I' for Inactive)
REMARK    1  A    between atoms: C_2  and  C_3 
REMARK    2  A    between atoms: C_3  and  O_6 
REMARK    3  A    between atoms: C_3  and  C_4 
REMARK    4  A    between atoms: C_7  and  O_6 
REMARK    5  A    between atoms: C_9  and  C_10 
REMARK    6  A    between atoms: N_15  and  C_14 
REMARK    7  A    between atoms: N_20  and  C_19 
REMARK       I    between atoms: C_22  and  N_20 
ROOT
ATOM      1  C   LIG d   1       3.712  90.036 116.052  0.00  0.00     0.161 C 
ATOM      2  C   LIG d   1       2.676  90.833 116.566  0.00  0.00     0.016 C 
ATOM      3  C   LIG d   1       2.876  91.834 117.545  0.00  0.00     0.038 C 
ATOM      4  C   LIG d   1       4.159  92.210 117.970  0.00  0.00     0.028 C 
ATOM      5  C   LIG d   1       5.188  91.090 117.853  0.00  0.00    -0.047 C 
ATOM      6  C   LIG d   1       5.134  90.507 116.422  0.00  0.00     0.091 C 
ENDROOT
BRANCH   1   7
ATOM      7  O   LIG d   1       3.578  89.922 114.622  0.00  0.00    -0.368 OA
BRANCH   7   8
ATOM      8  C   LIG d   1       3.247  88.606 114.115  0.00  0.00     0.119 C 
BRANCH   8   9
ATOM      9  C   LIG d   1       2.959  87.702 115.329  0.00  0.00     0.028 C 
ATOM     10  C   LIG d   1       1.609  86.974 115.213  0.00  0.00     0.006 C 
ENDBRANCH   8   9
BRANCH   8  11
ATOM     11  C   LIG d   1       4.443  87.964 113.406  0.00  0.00     0.028 C 
ATOM     12  C   LIG d   1       4.023  86.995 112.290  0.00  0.00     0.006 C 
ENDBRANCH   8  11
ENDBRANCH   7   8
ENDBRANCH   1   7
BRANCH   6  13
ATOM     13  N   LIG d   1       6.051  89.351 116.247  0.00  0.00    -0.311 N 
ATOM     14  C   LIG d   1       6.054  88.289 117.051  0.00  0.00     0.210 C 
ATOM     15  C   LIG d   1       7.093  87.218 116.705  0.00  0.00     0.109 C 
ATOM     16  O   LIG d   1       5.272  88.118 117.999  0.00  0.00    -0.276 OA
ATOM     17  H   LIG d   1       6.697  89.392 115.483  0.00  0.00     0.149 HD
ENDBRANCH   6  13
BRANCH   5  18
ATOM     18  N   LIG d   1       6.505  91.658 118.197  0.00  0.00     0.381 N 
ATOM     19  H   LIG d   1       6.384  92.516 118.697  0.00  0.00    -0.090 HD
ATOM     20  H   LIG d   1       7.006  91.855 117.348  0.00  0.00    -0.090 HD
ATOM     21  H   LIG d   1       7.020  91.012 118.753  0.00  0.00    -0.090 HD
ENDBRANCH   5  18
BRANCH   3  22
ATOM     22  C   LIG d   1       1.780  92.442 118.139  0.00  0.00     0.382 C 
ATOM     23  O   LIG d   1       0.640  91.932 118.022  0.00  0.00    -0.241 OA
ATOM     24  O   LIG d   1       1.911  93.518 118.753  0.00  0.00    -0.241 OA
ENDBRANCH   3  22
TORSDOF 7
ENDMDL
MODEL 7
REMARK VINA RESULT:      -4.1      2.828      5.045
REMARK  7 active torsions:
REMARK  status: ('A' for Active; 'I' for Inactive)
REMARK    1  A    between atoms: C_2  and  C_3 
REMARK    2  A    between atoms: C_3  and  O_6 
REMARK    3  A    between atoms: C_3  and  C_4 
REMARK    4  A    between atoms: C_7  and  O_6 
REMARK    5  A    between atoms: C_9  and  C_10 
REMARK    6  A    between atoms: N_15  and  C_14 
REMARK    7  A    between atoms: N_20  and  C_19 
REMARK       I    between atoms: C_22  and  N_20 
ROOT
ATOM      1  C   LIG d   1       1.576  89.497 118.273  0.00  0.00     0.161 C 
ATOM      2  C   LIG d   1       0.204  89.195 118.245  0.00  0.00     0.016 C 
ATOM      3  C   LIG d   1      -0.810  90.179 118.265  0.00  0.00     0.038 C 
ATOM      4  C   LIG d   1      -0.518  91.547 118.162  0.00  0.00     0.028 C 
ATOM      5  C   LIG d   1       0.862  91.914 118.696  0.00  0.00    -0.047 C 
ATOM      6  C   LIG d   1       1.914  90.986 118.048  0.00  0.00     0.091 C 
ENDROOT
BRANCH   1   7
ATOM      7  O   LIG d   1       2.277  88.674 117.320  0.00  0.00    -0.368 OA
BRANCH   7   8
ATOM      8  C   LIG d   1       1.828  88.766 115.946  0.00  0.00     0.119 C 
BRANCH   8   9
ATOM      9  C   LIG d   1       1.542  87.334 115.455  0.00  0.00     0.028 C 
ATOM     10  C   LIG d   1       2.007  86.266 116.460  0.00  0.00     0.006 C 
ENDBRANCH   8   9
BRANCH   8  11
ATOM     11  C   LIG d   1       2.937  89.294 115.031  0.00  0.00     0.028 C 
ATOM     12  C   LIG d   1       4.337  89.150 115.647  0.00  0.00     0.006 C 
ENDBRANCH   8  11
ENDBRANCH   7   8
ENDBRANCH   1   7
BRANCH   6  13
ATOM     13  N   LIG d   1       3.282  91.222 118.579  0.00  0.00    -0.311 N 
ATOM     14  C   LIG d   1       4.169  92.023 117.991  0.00  0.00     0.210 C 
ATOM     15  C   LIG d   1       5.528  92.109 118.693  0.00  0.00     0.109 C 
ATOM     16  O   LIG d   1       3.948  92.696 116.973  0.00  0.00    -0.276 OA
ATOM     17  H   LIG d   1       3.535  90.739 119.419  0.00  0.00     0.149 HD
ENDBRANCH   6  13
BRANCH   5  18
ATOM     18  N   LIG d   1       1.089  93.341 118.401  0.00  0.00     0.381 N 
ATOM     19  H   LIG d   1       1.995  93.615 118.727  0.00  0.00    -0.090 HD
ATOM     20  H   LIG d   1       0.400  93.888 118.887  0.00  0.00    -0.090 HD
ATOM     21  H   LIG d   1       1.019  93.502 117.420  0.00  0.00    -0.090 HD
ENDBRANCH   5  18
BRANCH   3  22
ATOM     22  C   LIG d   1      -2.133  89.799 118.431  0.00  0.00     0.382 C 
ATOM     23  O   LIG d   1      -3.057  90.589 118.120  0.00  0.00    -0.241 OA
ATOM     24  O   LIG d   1      -2.415  88.692 118.928  0.00  0.00    -0.241 OA
ENDBRANCH   3  22
TORSDOF 7
ENDMDL
MODEL 8
REMARK VINA RESULT:      -4.0      2.713      5.765
REMARK  7 active torsions:
REMARK  status: ('A' for Active; 'I' for Inactive)
REMARK    1  A    between atoms: C_2  and  C_3 
REMARK    2  A    between atoms: C_3  and  O_6 
REMARK    3  A    between atoms: C_3  and  C_4 
REMARK    4  A    between atoms: C_7  and  O_6 
REMARK    5  A    between atoms: C_9  and  C_10 
REMARK    6  A    between atoms: N_15  and  C_14 
REMARK    7  A    between atoms: N_20  and  C_19 
REMARK       I    between atoms: C_22  and  N_20 
ROOT
ATOM      1  C   LIG d   1       5.719  89.283 117.459  0.00  0.00     0.161 C 
ATOM      2  C   LIG d   1       6.986  88.699 117.629  0.00  0.00     0.016 C 
ATOM      3  C   LIG d   1       7.369  87.481 117.022  0.00  0.00     0.038 C 
ATOM      4  C   LIG d   1       6.558  86.837 116.076  0.00  0.00     0.028 C 
ATOM      5  C   LIG d   1       5.072  87.123 116.257  0.00  0.00    -0.047 C 
ATOM      6  C   LIG d   1       4.862  88.652 116.342  0.00  0.00     0.091 C 
ENDROOT
BRANCH   1   7
ATOM      7  O   LIG d   1       5.861  90.701 117.242  0.00  0.00    -0.368 OA
BRANCH   7   8
ATOM      8  C   LIG d   1       5.194  91.561 118.198  0.00  0.00     0.119 C 
BRANCH   8   9
ATOM      9  C   LIG d   1       4.214  92.454 117.413  0.00  0.00     0.028 C 
ATOM     10  C   LIG d   1       2.806  92.465 118.031  0.00  0.00     0.006 C 
ENDBRANCH   8   9
BRANCH   8  11
ATOM     11  C   LIG d   1       6.181  92.527 118.861  0.00  0.00     0.028 C 
ATOM     12  C   LIG d   1       7.638  92.269 118.445  0.00  0.00     0.006 C 
ENDBRANCH   8  11
ENDBRANCH   7   8
ENDBRANCH   1   7
BRANCH   6  13
ATOM     13  N   LIG d   1       3.445  89.016 116.604  0.00  0.00    -0.311 N 
ATOM     14  C   LIG d   1       2.575  89.315 115.640  0.00  0.00     0.210 C 
ATOM     15  C   LIG d   1       1.170  89.681 116.129  0.00  0.00     0.109 C 
ATOM     16  O   LIG d   1       2.824  89.280 114.426  0.00  0.00    -0.276 OA
ATOM     17  H   LIG d   1       3.149  89.039 117.560  0.00  0.00     0.149 HD
ENDBRANCH   6  13
BRANCH   5  18
ATOM     18  N   LIG d   1       4.357  86.504 115.124  0.00  0.00     0.381 N 
ATOM     19  H   LIG d   1       3.636  85.901 115.468  0.00  0.00    -0.090 HD
ATOM     20  H   LIG d   1       5.007  85.949 114.595  0.00  0.00    -0.090 HD
ATOM     21  H   LIG d   1       3.961  87.210 114.544  0.00  0.00    -0.090 HD
ENDBRANCH   5  18
BRANCH   3  22
ATOM     22  C   LIG d   1       8.560  86.874 117.391  0.00  0.00     0.382 C 
ATOM     23  O   LIG d   1       8.690  86.398 118.545  0.00  0.00    -0.241 OA
ATOM     24  O   LIG d   1       9.521  86.836 116.600  0.00  0.00    -0.241 OA
ENDBRANCH   3  22
TORSDOF 7
ENDMDL
MODEL 9
REMARK VINA RESULT:      -3.6      2.016      4.293
REMARK  7 active torsions:
REMARK  status: ('A' for Active; 'I' for Inactive)
REMARK    1  A    between atoms: C_2  and  C_3 
REMARK    2  A    between atoms: C_3  and  O_6 
REMARK    3  A    between atoms: C_3  and  C_4 
REMARK    4  A    between atoms: C_7  and  O_6 
REMARK    5  A    between atoms: C_9  and  C_10 
REMARK    6  A    between atoms: N_15  and  C_14 
REMARK    7  A    between atoms: N_20  and  C_19 
REMARK       I    between atoms: C_22  and  N_20 
ROOT
ATOM      1  C   LIG d   1       2.770  88.905 117.499  0.00  0.00     0.161 C 
ATOM      2  C   LIG d   1       4.009  89.400 117.939  0.00  0.00     0.016 C 
ATOM      3  C   LIG d   1       5.006  89.890 117.065  0.00  0.00     0.038 C 
ATOM      4  C   LIG d   1       4.770  90.060 115.692  0.00  0.00     0.028 C 
ATOM      5  C   LIG d   1       3.720  89.105 115.136  0.00  0.00    -0.047 C 
ATOM      6  C   LIG d   1       2.452  89.185 116.016  0.00  0.00     0.091 C 
ENDROOT
BRANCH   1   7
ATOM      7  O   LIG d   1       1.716  89.410 118.342  0.00  0.00    -0.368 OA
BRANCH   7   8
ATOM      8  C   LIG d   1       1.120  90.666 117.935  0.00  0.00     0.119 C 
BRANCH   8   9
ATOM      9  C   LIG d   1       1.633  91.755 118.898  0.00  0.00     0.028 C 
ATOM     10  C   LIG d   1       2.555  92.769 118.200  0.00  0.00     0.006 C 
ENDBRANCH   8   9
BRANCH   8  11
ATOM     11  C   LIG d   1      -0.400  90.647 118.116  0.00  0.00     0.028 C 
ATOM     12  C   LIG d   1      -1.007  89.250 117.916  0.00  0.00     0.006 C 
ENDBRANCH   8  11
ENDBRANCH   7   8
ENDBRANCH   1   7
BRANCH   6  13
ATOM     13  N   LIG d   1       1.404  88.220 115.591  0.00  0.00    -0.311 N 
ATOM     14  C   LIG d   1       1.596  86.903 115.547  0.00  0.00     0.210 C 
ATOM     15  C   LIG d   1       0.391  86.091 115.060  0.00  0.00     0.109 C 
ATOM     16  O   LIG d   1       2.638  86.328 115.894  0.00  0.00    -0.276 OA
ATOM     17  H   LIG d   1       0.518  88.599 115.321  0.00  0.00     0.149 HD
ENDBRANCH   6  13
BRANCH   5  18
ATOM     18  N   LIG d   1       3.474  89.482 113.731  0.00  0.00     0.381 N 
ATOM     19  H   LIG d   1       4.339  89.502 113.229  0.00  0.00    -0.090 HD
ATOM     20  H   LIG d   1       3.074  90.404 113.707  0.00  0.00    -0.090 HD
ATOM     21  H   LIG d   1       2.850  88.831 113.307  0.00  0.00    -0.090 HD
ENDBRANCH   5  18
BRANCH   3  22
ATOM     22  C   LIG d   1       6.270  90.179 117.556  0.00  0.00     0.382 C 
ATOM     23  O   LIG d   1       6.540  91.341 117.946  0.00  0.00    -0.241 OA
ATOM     24  O   LIG d   1       7.157  89.304 117.573  0.00  0.00    -0.241 OA
ENDBRANCH   3  22
TORSDOF 7
ENDMDL
