MODEL 1
REMARK VINA RESULT:      -4.8      0.000      0.000
REMARK  7 active torsions:
REMARK  status: ('A' for Active; 'I' for Inactive)
REMARK    1  A    between atoms: C_2  and  C_3 
REMARK    2  A    between atoms: C_3  and  O_6 
REMARK    3  A    between atoms: C_3  and  C_4 
REMARK    4  A    between atoms: C_7  and  O_6 
REMARK    5  A    between atoms: C_9  and  C_10 
REMARK    6  A    between atoms: N_15  and  C_14 
REMARK    7  A    between atoms: N_20  and  C_19 
REMARK       I    between atoms: C_22  and  N_20 
ROOT
ATOM      1  C   LIG d   1       3.395  88.215 115.294  0.00  0.00     0.161 C 
ATOM      2  C   LIG d   1       2.728  87.541 114.258  0.00  0.00     0.016 C 
ATOM      3  C   LIG d   1       3.261  87.393 112.956  0.00  0.00     0.038 C 
ATOM      4  C   LIG d   1       4.572  87.783 112.643  0.00  0.00     0.028 C 
ATOM      5  C   LIG d   1       5.092  88.919 113.518  0.00  0.00    -0.047 C 
ATOM      6  C   LIG d   1       4.873  88.549 115.003  0.00  0.00     0.091 C 
ENDROOT
BRANCH   1   7
ATOM      7  O   LIG d   1       3.283  87.461 116.518  0.00  0.00    -0.368 OA
BRANCH   7   8
ATOM      8  C   LIG d   1       2.429  88.030 117.541  0.00  0.00     0.119 C 
BRANCH   8   9
ATOM      9  C   LIG d   1       1.173  87.143 117.640  0.00  0.00     0.028 C 
ATOM     10  C   LIG d   1      -0.017  87.721 116.856  0.00  0.00     0.006 C 
ENDBRANCH   8   9
BRANCH   8  11
ATOM     11  C   LIG d   1       1.917  89.415 117.133  0.00  0.00     0.028 C 
ATOM     12  C   LIG d   1       2.446  90.536 118.041  0.00  0.00     0.006 C 
ENDBRANCH   8  11
ENDBRANCH   7   8
ENDBRANCH   1   7
BRANCH   6  13
ATOM     13  N   LIG d   1       5.277  89.642 115.925  0.00  0.00    -0.311 N 
ATOM     14  C   LIG d   1       6.115  89.469 116.946  0.00  0.00     0.210 C 
ATOM     15  C   LIG d   1       6.382  90.723 117.784  0.00  0.00     0.109 C 
ATOM     16  O   LIG d   1       6.687  88.403 117.217  0.00  0.00    -0.276 OA
ATOM     17  H   LIG d   1       4.884  90.548 115.758  0.00  0.00     0.149 HD
ENDBRANCH   6  13
BRANCH   5  18
ATOM     18  N   LIG d   1       6.511  89.129 113.178  0.00  0.00     0.381 N 
ATOM     19  H   LIG d   1       7.068  88.401 113.579  0.00  0.00    -0.090 HD
ATOM     20  H   LIG d   1       6.812  90.006 113.566  0.00  0.00    -0.090 HD
ATOM     21  H   LIG d   1       6.627  89.139 112.188  0.00  0.00    -0.090 HD
ENDBRANCH   5  18
BRANCH   3  22
ATOM     22  C   LIG d   1       2.464  86.887 111.941  0.00  0.00     0.382 C 
ATOM     23  O   LIG d   1       1.476  87.544 111.532  0.00  0.00    -0.241 OA
ATOM     24  O   LIG d   1       2.695  85.762 111.458  0.00  0.00    -0.241 OA
ENDBRANCH   3  22
TORSDOF 7
ENDMDL
MODEL 2
REMARK VINA RESULT:      -4.4      2.894      5.441
REMARK  7 active torsions:
REMARK  status: ('A' for Active; 'I' for Inactive)
REMARK    1  A    between atoms: C_2  and  C_3 
REMARK    2  A    between atoms: C_3  and  O_6 
REMARK    3  A    between atoms: C_3  and  C_4 
REMARK    4  A    between atoms: C_7  and  O_6 
REMARK    5  A    between atoms: C_9  and  C_10 
REMARK    6  A    between atoms: N_15  and  C_14 
REMARK    7  A    between atoms: N_20  and  C_19 
REMARK       I    between atoms: C_22  and  N_20 
ROOT
ATOM      1  C   LIG d   1       1.119  87.624 116.357  0.00  0.00     0.161 C 
ATOM      2  C   LIG d   1      -0.246  87.576 116.683  0.00  0.00     0.016 C 
ATOM      3  C   LIG d   1      -0.912  88.596 117.401  0.00  0.00     0.038 C 
ATOM      4  C   LIG d   1      -0.286  89.812 117.714  0.00  0.00     0.028 C 
ATOM      5  C   LIG d   1       1.228  89.697 117.849  0.00  0.00    -0.047 C 
ATOM      6  C   LIG d   1       1.792  88.993 116.593  0.00  0.00     0.091 C 
ENDROOT
BRANCH   1   7
ATOM      7  O   LIG d   1       1.312  87.199 114.994  0.00  0.00    -0.368 OA
BRANCH   7   8
ATOM      8  C   LIG d   1       1.519  85.780 114.792  0.00  0.00     0.119 C 
BRANCH   8   9
ATOM      9  C   LIG d   1       2.910  85.430 115.354  0.00  0.00     0.028 C 
ATOM     10  C   LIG d   1       4.029  85.630 114.317  0.00  0.00     0.006 C 
ENDBRANCH   8   9
BRANCH   8  11
ATOM     11  C   LIG d   1       1.584  85.433 113.301  0.00  0.00     0.028 C 
ATOM     12  C   LIG d   1       0.291  85.787 112.550  0.00  0.00     0.006 C 
ENDBRANCH   8  11
ENDBRANCH   7   8
ENDBRANCH   1   7
BRANCH   6  13
ATOM     13  N   LIG d   1       3.258  88.764 116.681  0.00  0.00    -0.311 N 
ATOM     14  C   LIG d   1       4.104  89.044 115.691  0.00  0.00     0.210 C 
ATOM     15  C   LIG d   1       5.571  88.712 115.982  0.00  0.00     0.109 C 
ATOM     16  O   LIG d   1       3.783  89.564 114.612  0.00  0.00    -0.276 OA
ATOM     17  H   LIG d   1       3.608  88.374 117.534  0.00  0.00     0.149 HD
ENDBRANCH   6  13
BRANCH   5  18
ATOM     18  N   LIG d   1       1.764  91.058 118.038  0.00  0.00     0.381 N 
ATOM     19  H   LIG d   1       1.111  91.730 117.688  0.00  0.00    -0.090 HD
ATOM     20  H   LIG d   1       2.618  91.147 117.516  0.00  0.00    -0.090 HD
ATOM     21  H   LIG d   1       1.938  91.225 119.005  0.00  0.00    -0.090 HD
ENDBRANCH   5  18
BRANCH   3  22
ATOM     22  C   LIG d   1      -2.207  88.387 117.850  0.00  0.00     0.382 C 
ATOM     23  O   LIG d   1      -3.178  88.828 117.188  0.00  0.00    -0.241 OA
ATOM     24  O   LIG d   1      -2.416  87.803 118.930  0.00  0.00    -0.241 OA
ENDBRANCH   3  22
TORSDOF 7
ENDMDL
MODEL 3
REMARK VINA RESULT:      -4.1      8.266     11.049
REMARK  7 active torsions:
REMARK  status: ('A' for Active; 'I' for Inactive)
REMARK    1  A    between atoms: C_2  and  C_3 
REMARK    2  A    between atoms: C_3  and  O_6 
REMARK    3  A    between atoms: C_3  and  C_4 
REMARK    4  A    between atoms: C_7  and  O_6 
REMARK    5  A    between atoms: C_9  and  C_10 
REMARK    6  A    between atoms: N_15  and  C_14 
REMARK    7  A    between atoms: N_20  and  C_19 
REMARK       I    between atoms: C_22  and  N_20 
ROOT
ATOM      1  C   LIG d   1      -5.801  91.018 118.326  0.00  0.00     0.161 C 
ATOM      2  C   LIG d   1      -4.486  91.212 118.780  0.00  0.00     0.016 C 
ATOM      3  C   LIG d   1      -3.345  90.777 118.067  0.00  0.00     0.038 C 
ATOM      4  C   LIG d   1      -3.437  90.250 116.770  0.00  0.00     0.028 C 
ATOM      5  C   LIG d   1      -4.775  89.575 116.485  0.00  0.00    -0.047 C 
ATOM      6  C   LIG d   1      -5.917  90.545 116.862  0.00  0.00     0.091 C 
ENDROOT
BRANCH   1   7
ATOM      7  O   LIG d   1      -6.569  92.222 118.526  0.00  0.00    -0.368 OA
BRANCH   7   8
ATOM      8  C   LIG d   1      -6.206  93.354 117.697  0.00  0.00     0.119 C 
BRANCH   8   9
ATOM      9  C   LIG d   1      -5.955  94.551 118.634  0.00  0.00     0.028 C 
ATOM     10  C   LIG d   1      -4.459  94.778 118.907  0.00  0.00     0.006 C 
ENDBRANCH   8   9
BRANCH   8  11
ATOM     11  C   LIG d   1      -7.370  93.780 116.797  0.00  0.00     0.028 C 
ATOM     12  C   LIG d   1      -8.124  95.005 117.338  0.00  0.00     0.006 C 
ENDBRANCH   8  11
ENDBRANCH   7   8
ENDBRANCH   1   7
BRANCH   6  13
ATOM     13  N   LIG d   1      -7.260  89.931 116.693  0.00  0.00    -0.311 N 
ATOM     14  C   LIG d   1      -7.949  89.976 115.554  0.00  0.00     0.210 C 
ATOM     15  C   LIG d   1      -9.322  89.298 115.601  0.00  0.00     0.109 C 
ATOM     16  O   LIG d   1      -7.539  90.485 114.500  0.00  0.00    -0.276 OA
ATOM     17  H   LIG d   1      -7.655  89.470 117.490  0.00  0.00     0.149 HD
ENDBRANCH   6  13
BRANCH   5  18
ATOM     18  N   LIG d   1      -4.787  89.194 115.060  0.00  0.00     0.381 N 
ATOM     19  H   LIG d   1      -5.550  88.572 114.882  0.00  0.00    -0.090 HD
ATOM     20  H   LIG d   1      -3.931  88.712 114.845  0.00  0.00    -0.090 HD
ATOM     21  H   LIG d   1      -4.871  90.007 114.490  0.00  0.00    -0.090 HD
ENDBRANCH   5  18
BRANCH   3  22
ATOM     22  C   LIG d   1      -2.096  90.832 118.668  0.00  0.00     0.382 C 
ATOM     23  O   LIG d   1      -1.566  91.942 118.912  0.00  0.00    -0.241 OA
ATOM     24  O   LIG d   1      -1.475  89.784 118.929  0.00  0.00    -0.241 OA
ENDBRANCH   3  22
TORSDOF 7
ENDMDL
MODEL 4
REMARK VINA RESULT:      -4.1      7.899     10.514
REMARK  7 active torsions:
REMARK  status: ('A' for Active; 'I' for Inactive)
REMARK    1  A    between atoms: C_2  and  C_3 
REMARK    2  A    between atoms: C_3  and  O_6 
REMARK    3  A    between atoms: C_3  and  C_4 
REMARK    4  A    between atoms: C_7  and  O_6 
REMARK    5  A    between atoms: C_9  and  C_10 
REMARK    6  A    between atoms: N_15  and  C_14 
REMARK    7  A    between atoms: N_20  and  C_19 
REMARK       I    between atoms: C_22  and  N_20 
ROOT
ATOM      1  C   LIG d   1      -5.142  90.542 116.611  0.00  0.00     0.161 C 
ATOM      2  C   LIG d   1      -4.111  89.596 116.740  0.00  0.00     0.016 C 
ATOM      3  C   LIG d   1      -2.958  89.805 117.531  0.00  0.00     0.038 C 
ATOM      4  C   LIG d   1      -2.828  90.920 118.373  0.00  0.00     0.028 C 
ATOM      5  C   LIG d   1      -3.610  92.137 117.891  0.00  0.00    -0.047 C 
ATOM      6  C   LIG d   1      -5.071  91.716 117.610  0.00  0.00     0.091 C 
ENDROOT
BRANCH   1   7
ATOM      7  O   LIG d   1      -6.421  89.884 116.702  0.00  0.00    -0.368 OA
BRANCH   7   8
ATOM      8  C   LIG d   1      -7.109  89.653 115.448  0.00  0.00     0.119 C 
BRANCH   8   9
ATOM      9  C   LIG d   1      -6.569  90.675 114.428  0.00  0.00     0.028 C 
ATOM     10  C   LIG d   1      -7.690  91.504 113.779  0.00  0.00     0.006 C 
ENDBRANCH   8   9
BRANCH   8  11
ATOM     11  C   LIG d   1      -8.606  89.953 115.569  0.00  0.00     0.028 C 
ATOM     12  C   LIG d   1      -9.377  88.850 116.312  0.00  0.00     0.006 C 
ENDBRANCH   8  11
ENDBRANCH   7   8
ENDBRANCH   1   7
BRANCH   6  13
ATOM     13  N   LIG d   1      -5.884  92.829 117.054  0.00  0.00    -0.311 N 
ATOM     14  C   LIG d   1      -6.980  93.302 117.645  0.00  0.00     0.210 C 
ATOM     15  C   LIG d   1      -7.681  94.438 116.894  0.00  0.00     0.109 C 
ATOM     16  O   LIG d   1      -7.420  92.910 118.737  0.00  0.00    -0.276 OA
ATOM     17  H   LIG d   1      -5.581  93.227 116.187  0.00  0.00     0.149 HD
ENDBRANCH   6  13
BRANCH   5  18
ATOM     18  N   LIG d   1      -3.498  93.178 118.930  0.00  0.00     0.381 N 
ATOM     19  H   LIG d   1      -2.538  93.305 119.181  0.00  0.00    -0.090 HD
ATOM     20  H   LIG d   1      -4.001  92.878 119.747  0.00  0.00    -0.090 HD
ATOM     21  H   LIG d   1      -3.877  94.036 118.595  0.00  0.00    -0.090 HD
ENDBRANCH   5  18
BRANCH   3  22
ATOM     22  C   LIG d   1      -1.900  88.912 117.453  0.00  0.00     0.382 C 
ATOM     23  O   LIG d   1      -1.915  87.862 118.140  0.00  0.00    -0.241 OA
ATOM     24  O   LIG d   1      -0.911  89.164 116.739  0.00  0.00    -0.241 OA
ENDBRANCH   3  22
TORSDOF 7
ENDMDL
MODEL 5
REMARK VINA RESULT:      -3.9      9.028     11.512
REMARK  7 active torsions:
REMARK  status: ('A' for Active; 'I' for Inactive)
REMARK    1  A    between atoms: C_2  and  C_3 
REMARK    2  A    between atoms: C_3  and  O_6 
REMARK    3  A    between atoms: C_3  and  C_4 
REMARK    4  A    between atoms: C_7  and  O_6 
REMARK    5  A    between atoms: C_9  and  C_10 
REMARK    6  A    between atoms: N_15  and  C_14 
REMARK    7  A    between atoms: N_20  and  C_19 
REMARK       I    between atoms: C_22  and  N_20 
ROOT
ATOM      1  C   LIG d   1      -6.770  91.725 117.995  0.00  0.00     0.161 C 
ATOM      2  C   LIG d   1      -7.487  92.933 117.965  0.00  0.00     0.016 C 
ATOM      3  C   LIG d   1      -6.901  94.193 118.228  0.00  0.00     0.038 C 
ATOM      4  C   LIG d   1      -5.516  94.346 118.391  0.00  0.00     0.028 C 
ATOM      5  C   LIG d   1      -4.827  93.097 118.929  0.00  0.00    -0.047 C 
ATOM      6  C   LIG d   1      -5.237  91.885 118.062  0.00  0.00     0.091 C 
ENDROOT
BRANCH   1   7
ATOM      7  O   LIG d   1      -7.140  90.910 116.866  0.00  0.00    -0.368 OA
BRANCH   7   8
ATOM      8  C   LIG d   1      -6.411  91.152 115.638  0.00  0.00     0.119 C 
BRANCH   8   9
ATOM      9  C   LIG d   1      -7.335  91.955 114.702  0.00  0.00     0.028 C 
ATOM     10  C   LIG d   1      -7.737  91.159 113.449  0.00  0.00     0.006 C 
ENDBRANCH   8   9
BRANCH   8  11
ATOM     11  C   LIG d   1      -6.119  89.845 114.895  0.00  0.00     0.028 C 
ATOM     12  C   LIG d   1      -4.811  89.180 115.352  0.00  0.00     0.006 C 
ENDBRANCH   8  11
ENDBRANCH   7   8
ENDBRANCH   1   7
BRANCH   6  13
ATOM     13  N   LIG d   1      -4.673  90.607 118.570  0.00  0.00    -0.311 N 
ATOM     14  C   LIG d   1      -3.426  90.208 118.328  0.00  0.00     0.210 C 
ATOM     15  C   LIG d   1      -3.054  88.849 118.929  0.00  0.00     0.109 C 
ATOM     16  O   LIG d   1      -2.583  90.864 117.699  0.00  0.00    -0.276 OA
ATOM     17  H   LIG d   1      -5.280  90.027 119.117  0.00  0.00     0.149 HD
ENDBRANCH   6  13
BRANCH   5  18
ATOM     18  N   LIG d   1      -3.374  93.350 118.920  0.00  0.00     0.381 N 
ATOM     19  H   LIG d   1      -3.138  93.996 119.646  0.00  0.00    -0.090 HD
ATOM     20  H   LIG d   1      -3.121  93.760 118.038  0.00  0.00    -0.090 HD
ATOM     21  H   LIG d   1      -2.878  92.496 119.051  0.00  0.00    -0.090 HD
ENDBRANCH   5  18
BRANCH   3  22
ATOM     22  C   LIG d   1      -7.709  95.311 118.369  0.00  0.00     0.382 C 
ATOM     23  O   LIG d   1      -7.203  96.414 118.688  0.00  0.00    -0.241 OA
ATOM     24  O   LIG d   1      -8.943  95.221 118.225  0.00  0.00    -0.241 OA
ENDBRANCH   3  22
TORSDOF 7
ENDMDL
MODEL 6
REMARK VINA RESULT:      -3.7      1.659      2.101
REMARK  7 active torsions:
REMARK  status: ('A' for Active; 'I' for Inactive)
REMARK    1  A    between atoms: C_2  and  C_3 
REMARK    2  A    between atoms: C_3  and  O_6 
REMARK    3  A    between atoms: C_3  and  C_4 
REMARK    4  A    between atoms: C_7  and  O_6 
REMARK    5  A    between atoms: C_9  and  C_10 
REMARK    6  A    between atoms: N_15  and  C_14 
REMARK    7  A    between atoms: N_20  and  C_19 
REMARK       I    between atoms: C_22  and  N_20 
ROOT
ATOM      1  C   LIG d   1       2.767  88.175 116.393  0.00  0.00     0.161 C 
ATOM      2  C   LIG d   1       2.353  87.717 115.131  0.00  0.00     0.016 C 
ATOM      3  C   LIG d   1       3.231  87.554 114.035  0.00  0.00     0.038 C 
ATOM      4  C   LIG d   1       4.620  87.696 114.171  0.00  0.00     0.028 C 
ATOM      5  C   LIG d   1       5.025  88.646 115.294  0.00  0.00    -0.047 C 
ATOM      6  C   LIG d   1       4.296  88.229 116.591  0.00  0.00     0.091 C 
ENDROOT
BRANCH   1   7
ATOM      7  O   LIG d   1       2.155  87.379 117.427  0.00  0.00    -0.368 OA
BRANCH   7   8
ATOM      8  C   LIG d   1       1.240  88.074 118.309  0.00  0.00     0.119 C 
BRANCH   8   9
ATOM      9  C   LIG d   1       0.105  87.094 118.665  0.00  0.00     0.028 C 
ATOM     10  C   LIG d   1       0.545  85.624 118.559  0.00  0.00     0.006 C 
ENDBRANCH   8   9
BRANCH   8  11
ATOM     11  C   LIG d   1       0.556  89.243 117.594  0.00  0.00     0.028 C 
ATOM     12  C   LIG d   1      -0.885  88.921 117.170  0.00  0.00     0.006 C 
ENDBRANCH   8  11
ENDBRANCH   7   8
ENDBRANCH   1   7
BRANCH   6  13
ATOM     13  N   LIG d   1       4.571  89.157 117.719  0.00  0.00    -0.311 N 
ATOM     14  C   LIG d   1       4.342  90.468 117.662  0.00  0.00     0.210 C 
ATOM     15  C   LIG d   1       4.715  91.244 118.929  0.00  0.00     0.109 C 
ATOM     16  O   LIG d   1       3.836  91.056 116.695  0.00  0.00    -0.276 OA
ATOM     17  H   LIG d   1       4.953  88.759 118.555  0.00  0.00     0.149 HD
ENDBRANCH   6  13
BRANCH   5  18
ATOM     18  N   LIG d   1       6.494  88.594 115.414  0.00  0.00     0.381 N 
ATOM     19  H   LIG d   1       6.900  89.387 114.958  0.00  0.00    -0.090 HD
ATOM     20  H   LIG d   1       6.828  87.763 114.957  0.00  0.00    -0.090 HD
ATOM     21  H   LIG d   1       6.758  88.582 116.374  0.00  0.00    -0.090 HD
ENDBRANCH   5  18
BRANCH   3  22
ATOM     22  C   LIG d   1       2.717  87.285 112.776  0.00  0.00     0.382 C 
ATOM     23  O   LIG d   1       2.802  86.127 112.299  0.00  0.00    -0.241 OA
ATOM     24  O   LIG d   1       2.209  88.194 112.093  0.00  0.00    -0.241 OA
ENDBRANCH   3  22
TORSDOF 7
ENDMDL
MODEL 7
REMARK VINA RESULT:      -3.7      2.463      5.489
REMARK  7 active torsions:
REMARK  status: ('A' for Active; 'I' for Inactive)
REMARK    1  A    between atoms: C_2  and  C_3 
REMARK    2  A    between atoms: C_3  and  O_6 
REMARK    3  A    between atoms: C_3  and  C_4 
REMARK    4  A    between atoms: C_7  and  O_6 
REMARK    5  A    between atoms: C_9  and  C_10 
REMARK    6  A    between atoms: N_15  and  C_14 
REMARK    7  A    between atoms: N_20  and  C_19 
REMARK       I    between atoms: C_22  and  N_20 
ROOT
ATOM      1  C   LIG d   1       3.567  88.750 115.091  0.00  0.00     0.161 C 
ATOM      2  C   LIG d   1       2.848  89.533 116.009  0.00  0.00     0.016 C 
ATOM      3  C   LIG d   1       1.727  89.056 116.727  0.00  0.00     0.038 C 
ATOM      4  C   LIG d   1       1.339  87.709 116.687  0.00  0.00     0.028 C 
ATOM      5  C   LIG d   1       1.725  87.005 115.390  0.00  0.00    -0.047 C 
ATOM      6  C   LIG d   1       3.227  87.245 115.117  0.00  0.00     0.091 C 
ENDROOT
BRANCH   1   7
ATOM      7  O   LIG d   1       4.982  88.947 115.284  0.00  0.00    -0.368 OA
BRANCH   7   8
ATOM      8  C   LIG d   1       5.482  88.708 116.622  0.00  0.00     0.119 C 
BRANCH   8   9
ATOM      9  C   LIG d   1       6.201  89.990 117.084  0.00  0.00     0.028 C 
ATOM     10  C   LIG d   1       7.634  89.717 117.571  0.00  0.00     0.006 C 
ENDBRANCH   8   9
BRANCH   8  11
ATOM     11  C   LIG d   1       6.556  87.616 116.629  0.00  0.00     0.028 C 
ATOM     12  C   LIG d   1       6.053  86.289 117.217  0.00  0.00     0.006 C 
ENDBRANCH   8  11
ENDBRANCH   7   8
ENDBRANCH   1   7
BRANCH   6  13
ATOM     13  N   LIG d   1       3.669  86.662 113.824  0.00  0.00    -0.311 N 
ATOM     14  C   LIG d   1       3.257  87.110 112.639  0.00  0.00     0.210 C 
ATOM     15  C   LIG d   1       3.818  86.353 111.431  0.00  0.00     0.109 C 
ATOM     16  O   LIG d   1       2.506  88.082 112.472  0.00  0.00    -0.276 OA
ATOM     17  H   LIG d   1       4.303  85.888 113.865  0.00  0.00     0.149 HD
ENDBRANCH   6  13
BRANCH   5  18
ATOM     18  N   LIG d   1       1.385  85.578 115.539  0.00  0.00     0.381 N 
ATOM     19  H   LIG d   1       0.620  85.476 116.175  0.00  0.00    -0.090 HD
ATOM     20  H   LIG d   1       2.178  85.093 115.921  0.00  0.00    -0.090 HD
ATOM     21  H   LIG d   1       1.144  85.190 114.654  0.00  0.00    -0.090 HD
ENDBRANCH   5  18
BRANCH   3  22
ATOM     22  C   LIG d   1       0.956  89.942 117.465  0.00  0.00     0.382 C 
ATOM     23  O   LIG d   1      -0.271  90.054 117.228  0.00  0.00    -0.241 OA
ATOM     24  O   LIG d   1       1.481  90.662 118.335  0.00  0.00    -0.241 OA
ENDBRANCH   3  22
TORSDOF 7
ENDMDL
MODEL 8
REMARK VINA RESULT:      -3.7      2.578      5.152
REMARK  7 active torsions:
REMARK  status: ('A' for Active; 'I' for Inactive)
REMARK    1  A    between atoms: C_2  and  C_3 
REMARK    2  A    between atoms: C_3  and  O_6 
REMARK    3  A    between atoms: C_3  and  C_4 
REMARK    4  A    between atoms: C_7  and  O_6 
REMARK    5  A    between atoms: C_9  and  C_10 
REMARK    6  A    between atoms: N_15  and  C_14 
REMARK    7  A    between atoms: N_20  and  C_19 
REMARK       I    between atoms: C_22  and  N_20 
ROOT
ATOM      1  C   LIG d   1       2.669  88.812 116.230  0.00  0.00     0.161 C 
ATOM      2  C   LIG d   1       1.524  89.266 116.904  0.00  0.00     0.016 C 
ATOM      3  C   LIG d   1       0.327  88.519 116.997  0.00  0.00     0.038 C 
ATOM      4  C   LIG d   1       0.245  87.193 116.547  0.00  0.00     0.028 C 
ATOM      5  C   LIG d   1       1.215  86.876 115.413  0.00  0.00    -0.047 C 
ATOM      6  C   LIG d   1       2.635  87.322 115.829  0.00  0.00     0.091 C 
ENDROOT
BRANCH   1   7
ATOM      7  O   LIG d   1       3.844  89.092 117.017  0.00  0.00    -0.368 OA
BRANCH   7   8
ATOM      8  C   LIG d   1       4.678  90.181 116.552  0.00  0.00     0.119 C 
BRANCH   8   9
ATOM      9  C   LIG d   1       6.005  89.571 116.063  0.00  0.00     0.028 C 
ATOM     10  C   LIG d   1       6.370  88.280 116.814  0.00  0.00     0.006 C 
ENDBRANCH   8   9
BRANCH   8  11
ATOM     11  C   LIG d   1       5.062  91.119 117.701  0.00  0.00     0.028 C 
ATOM     12  C   LIG d   1       3.892  91.999 118.168  0.00  0.00     0.006 C 
ENDBRANCH   8  11
ENDBRANCH   7   8
ENDBRANCH   1   7
BRANCH   6  13
ATOM     13  N   LIG d   1       3.631  87.126 114.743  0.00  0.00    -0.311 N 
ATOM     14  C   LIG d   1       3.492  87.634 113.520  0.00  0.00     0.210 C 
ATOM     15  C   LIG d   1       4.625  87.294 112.546  0.00  0.00     0.109 C 
ATOM     16  O   LIG d   1       2.554  88.360 113.158  0.00  0.00    -0.276 OA
ATOM     17  H   LIG d   1       4.439  86.575 114.959  0.00  0.00     0.149 HD
ENDBRANCH   6  13
BRANCH   5  18
ATOM     18  N   LIG d   1       1.121  85.430 115.137  0.00  0.00     0.381 N 
ATOM     19  H   LIG d   1       1.955  85.117 114.682  0.00  0.00    -0.090 HD
ATOM     20  H   LIG d   1       0.344  85.267 114.520  0.00  0.00    -0.090 HD
ATOM     21  H   LIG d   1       0.989  84.928 115.987  0.00  0.00    -0.090 HD
ENDBRANCH   5  18
BRANCH   3  22
ATOM     22  C   LIG d   1      -0.816  89.113 117.509  0.00  0.00     0.382 C 
ATOM     23  O   LIG d   1      -1.946  88.764 117.089  0.00  0.00    -0.241 OA
ATOM     24  O   LIG d   1      -0.730  90.024 118.354  0.00  0.00    -0.241 OA
ENDBRANCH   3  22
TORSDOF 7
ENDMDL
MODEL 9
REMARK VINA RESULT:      -3.2      2.581      5.914
REMARK  7 active torsions:
REMARK  status: ('A' for Active; 'I' for Inactive)
REMARK    1  A    between atoms: C_2  and  C_3 
REMARK    2  A    between atoms: C_3  and  O_6 
REMARK    3  A    between atoms: C_3  and  C_4 
REMARK    4  A    between atoms: C_7  and  O_6 
REMARK    5  A    between atoms: C_9  and  C_10 
REMARK    6  A    between atoms: N_15  and  C_14 
REMARK    7  A    between atoms: N_20  and  C_19 
REMARK       I    between atoms: C_22  and  N_20 
ROOT
ATOM      1  C   LIG d   1       2.844  89.028 115.989  0.00  0.00     0.161 C 
ATOM      2  C   LIG d   1       4.156  89.406 116.321  0.00  0.00     0.016 C 
ATOM      3  C   LIG d   1       4.860  88.882 117.430  0.00  0.00     0.038 C 
ATOM      4  C   LIG d   1       4.350  87.825 118.198  0.00  0.00     0.028 C 
ATOM      5  C   LIG d   1       2.827  87.762 118.208  0.00  0.00    -0.047 C 
ATOM      6  C   LIG d   1       2.314  87.795 116.750  0.00  0.00     0.091 C 
ENDROOT
BRANCH   1   7
ATOM      7  O   LIG d   1       2.741  88.821 114.566  0.00  0.00    -0.368 OA
BRANCH   7   8
ATOM      8  C   LIG d   1       3.445  87.670 114.037  0.00  0.00     0.119 C 
BRANCH   8   9
ATOM      9  C   LIG d   1       4.383  88.173 112.922  0.00  0.00     0.028 C 
ATOM     10  C   LIG d   1       5.677  88.791 113.479  0.00  0.00     0.006 C 
ENDBRANCH   8   9
BRANCH   8  11
ATOM     11  C   LIG d   1       2.483  86.697 113.348  0.00  0.00     0.028 C 
ATOM     12  C   LIG d   1       2.295  87.003 111.854  0.00  0.00     0.006 C 
ENDBRANCH   8  11
ENDBRANCH   7   8
ENDBRANCH   1   7
BRANCH   6  13
ATOM     13  N   LIG d   1       0.830  87.822 116.671  0.00  0.00    -0.311 N 
ATOM     14  C   LIG d   1       0.083  88.765 117.243  0.00  0.00     0.210 C 
ATOM     15  C   LIG d   1      -1.428  88.593 117.056  0.00  0.00     0.109 C 
ATOM     16  O   LIG d   1       0.529  89.744 117.859  0.00  0.00    -0.276 OA
ATOM     17  H   LIG d   1       0.387  87.082 116.163  0.00  0.00     0.149 HD
ENDBRANCH   6  13
BRANCH   5  18
ATOM     18  N   LIG d   1       2.436  86.536 118.930  0.00  0.00     0.381 N 
ATOM     19  H   LIG d   1       2.403  86.719 119.913  0.00  0.00    -0.090 HD
ATOM     20  H   LIG d   1       3.127  85.827 118.764  0.00  0.00    -0.090 HD
ATOM     21  H   LIG d   1       1.545  86.223 118.613  0.00  0.00    -0.090 HD
ENDBRANCH   5  18
BRANCH   3  22
ATOM     22  C   LIG d   1       6.071  89.444 117.803  0.00  0.00     0.382 C 
ATOM     23  O   LIG d   1       6.641  90.265 117.045  0.00  0.00    -0.241 OA
ATOM     24  O   LIG d   1       6.622  89.107 118.868  0.00  0.00    -0.241 OA
ENDBRANCH   3  22
TORSDOF 7
ENDMDL
