MODEL 1
REMARK VINA RESULT:      -5.2      0.000      0.000
REMARK  7 active torsions:
REMARK  status: ('A' for Active; 'I' for Inactive)
REMARK    1  A    between atoms: C_2  and  C_3 
REMARK    2  A    between atoms: C_3  and  O_6 
REMARK    3  A    between atoms: C_3  and  C_4 
REMARK    4  A    between atoms: C_7  and  O_6 
REMARK    5  A    between atoms: C_9  and  C_10 
REMARK    6  A    between atoms: N_15  and  C_14 
REMARK    7  A    between atoms: N_20  and  C_19 
REMARK       I    between atoms: C_22  and  N_20 
ROOT
ATOM      1  C   LIG d   1       3.419  88.653 115.655  0.00  0.00     0.161 C 
ATOM      2  C   LIG d   1       2.541  87.711 115.094  0.00  0.00     0.016 C 
ATOM      3  C   LIG d   1       1.233  87.482 115.580  0.00  0.00     0.038 C 
ATOM      4  C   LIG d   1       0.657  88.291 116.570  0.00  0.00     0.028 C 
ATOM      5  C   LIG d   1       1.680  88.922 117.508  0.00  0.00    -0.047 C 
ATOM      6  C   LIG d   1       2.769  89.623 116.664  0.00  0.00     0.091 C 
ENDROOT
BRANCH   1   7
ATOM      7  O   LIG d   1       4.079  89.390 114.606  0.00  0.00    -0.368 OA
BRANCH   7   8
ATOM      8  C   LIG d   1       5.504  89.166 114.470  0.00  0.00     0.119 C 
BRANCH   8   9
ATOM      9  C   LIG d   1       5.780  88.827 112.992  0.00  0.00     0.028 C 
ATOM     10  C   LIG d   1       4.984  87.601 112.513  0.00  0.00     0.006 C 
ENDBRANCH   8   9
BRANCH   8  11
ATOM     11  C   LIG d   1       5.952  87.932 115.259  0.00  0.00     0.028 C 
ATOM     12  C   LIG d   1       7.314  88.126 115.944  0.00  0.00     0.006 C 
ENDBRANCH   8  11
ENDBRANCH   7   8
ENDBRANCH   1   7
BRANCH   6  13
ATOM     13  N   LIG d   1       3.855  90.194 117.502  0.00  0.00    -0.311 N 
ATOM     14  C   LIG d   1       4.175  91.487 117.506  0.00  0.00     0.210 C 
ATOM     15  C   LIG d   1       5.340  91.863 118.428  0.00  0.00     0.109 C 
ATOM     16  O   LIG d   1       3.584  92.364 116.858  0.00  0.00    -0.276 OA
ATOM     17  H   LIG d   1       4.366  89.558 118.082  0.00  0.00     0.149 HD
ENDBRANCH   6  13
BRANCH   5  18
ATOM     18  N   LIG d   1       0.956  89.846 118.401  0.00  0.00     0.381 N 
ATOM     19  H   LIG d   1       0.712  90.678 117.902  0.00  0.00    -0.090 HD
ATOM     20  H   LIG d   1       1.560  90.101 119.163  0.00  0.00    -0.090 HD
ATOM     21  H   LIG d   1       0.134  89.407 118.752  0.00  0.00    -0.090 HD
ENDBRANCH   5  18
BRANCH   3  22
ATOM     22  C   LIG d   1       0.501  86.406 115.100  0.00  0.00     0.382 C 
ATOM     23  O   LIG d   1       0.337  86.260 113.865  0.00  0.00    -0.241 OA
ATOM     24  O   LIG d   1      -0.035  85.605 115.889  0.00  0.00    -0.241 OA
ENDBRANCH   3  22
TORSDOF 7
ENDMDL
MODEL 2
REMARK VINA RESULT:      -5.0      2.233      4.215
REMARK  7 active torsions:
REMARK  status: ('A' for Active; 'I' for Inactive)
REMARK    1  A    between atoms: C_2  and  C_3 
REMARK    2  A    between atoms: C_3  and  O_6 
REMARK    3  A    between atoms: C_3  and  C_4 
REMARK    4  A    between atoms: C_7  and  O_6 
REMARK    5  A    between atoms: C_9  and  C_10 
REMARK    6  A    between atoms: N_15  and  C_14 
REMARK    7  A    between atoms: N_20  and  C_19 
REMARK       I    between atoms: C_22  and  N_20 
ROOT
ATOM      1  C   LIG d   1       1.819  88.624 116.055  0.00  0.00     0.161 C 
ATOM      2  C   LIG d   1       0.559  88.996 116.551  0.00  0.00     0.016 C 
ATOM      3  C   LIG d   1       0.325  90.196 117.261  0.00  0.00     0.038 C 
ATOM      4  C   LIG d   1       1.313  91.184 117.393  0.00  0.00     0.028 C 
ATOM      5  C   LIG d   1       2.733  90.630 117.347  0.00  0.00    -0.047 C 
ATOM      6  C   LIG d   1       2.884  89.740 116.092  0.00  0.00     0.091 C 
ENDROOT
BRANCH   1   7
ATOM      7  O   LIG d   1       1.684  88.105 114.717  0.00  0.00    -0.368 OA
BRANCH   7   8
ATOM      8  C   LIG d   1       1.838  86.672 114.571  0.00  0.00     0.119 C 
BRANCH   8   9
ATOM      9  C   LIG d   1       2.739  86.426 113.345  0.00  0.00     0.028 C 
ATOM     10  C   LIG d   1       3.966  85.562 113.681  0.00  0.00     0.006 C 
ENDBRANCH   8   9
BRANCH   8  11
ATOM     11  C   LIG d   1       0.504  85.999 114.236  0.00  0.00     0.028 C 
ATOM     12  C   LIG d   1      -0.205  85.431 115.476  0.00  0.00     0.006 C 
ENDBRANCH   8  11
ENDBRANCH   7   8
ENDBRANCH   1   7
BRANCH   6  13
ATOM     13  N   LIG d   1       4.219  89.090 116.016  0.00  0.00    -0.311 N 
ATOM     14  C   LIG d   1       4.931  89.008 114.893  0.00  0.00     0.210 C 
ATOM     15  C   LIG d   1       6.272  88.280 115.029  0.00  0.00     0.109 C 
ATOM     16  O   LIG d   1       4.593  89.497 113.804  0.00  0.00    -0.276 OA
ATOM     17  H   LIG d   1       4.583  88.695 116.860  0.00  0.00     0.149 HD
ENDBRANCH   6  13
BRANCH   5  18
ATOM     18  N   LIG d   1       3.659  91.778 117.356  0.00  0.00     0.381 N 
ATOM     19  H   LIG d   1       3.259  92.541 116.848  0.00  0.00    -0.090 HD
ATOM     20  H   LIG d   1       4.514  91.510 116.901  0.00  0.00    -0.090 HD
ATOM     21  H   LIG d   1       3.847  92.057 118.294  0.00  0.00    -0.090 HD
ENDBRANCH   5  18
BRANCH   3  22
ATOM     22  C   LIG d   1      -0.897  90.400 117.883  0.00  0.00     0.382 C 
ATOM     23  O   LIG d   1      -1.007  91.269 118.781  0.00  0.00    -0.241 OA
ATOM     24  O   LIG d   1      -1.881  89.695 117.588  0.00  0.00    -0.241 OA
ENDBRANCH   3  22
TORSDOF 7
ENDMDL
MODEL 3
REMARK VINA RESULT:      -5.0      1.813      4.801
REMARK  7 active torsions:
REMARK  status: ('A' for Active; 'I' for Inactive)
REMARK    1  A    between atoms: C_2  and  C_3 
REMARK    2  A    between atoms: C_3  and  O_6 
REMARK    3  A    between atoms: C_3  and  C_4 
REMARK    4  A    between atoms: C_7  and  O_6 
REMARK    5  A    between atoms: C_9  and  C_10 
REMARK    6  A    between atoms: N_15  and  C_14 
REMARK    7  A    between atoms: N_20  and  C_19 
REMARK       I    between atoms: C_22  and  N_20 
ROOT
ATOM      1  C   LIG d   1       3.163  88.861 115.866  0.00  0.00     0.161 C 
ATOM      2  C   LIG d   1       3.607  90.021 116.524  0.00  0.00     0.016 C 
ATOM      3  C   LIG d   1       2.743  90.905 117.210  0.00  0.00     0.038 C 
ATOM      4  C   LIG d   1       1.387  90.606 117.416  0.00  0.00     0.028 C 
ATOM      5  C   LIG d   1       0.797  89.700 116.341  0.00  0.00    -0.047 C 
ATOM      6  C   LIG d   1       1.705  88.461 116.174  0.00  0.00     0.091 C 
ENDROOT
BRANCH   1   7
ATOM      7  O   LIG d   1       4.055  87.766 116.153  0.00  0.00    -0.368 OA
BRANCH   7   8
ATOM      8  C   LIG d   1       4.911  87.339 115.065  0.00  0.00     0.119 C 
BRANCH   8   9
ATOM      9  C   LIG d   1       4.496  88.132 113.811  0.00  0.00     0.028 C 
ATOM     10  C   LIG d   1       5.665  88.929 113.207  0.00  0.00     0.006 C 
ENDBRANCH   8   9
BRANCH   8  11
ATOM     11  C   LIG d   1       4.671  85.868 114.712  0.00  0.00     0.028 C 
ATOM     12  C   LIG d   1       4.169  85.675 113.272  0.00  0.00     0.006 C 
ENDBRANCH   8  11
ENDBRANCH   7   8
ENDBRANCH   1   7
BRANCH   6  13
ATOM     13  N   LIG d   1       1.246  87.563 115.082  0.00  0.00    -0.311 N 
ATOM     14  C   LIG d   1       0.916  86.287 115.272  0.00  0.00     0.210 C 
ATOM     15  C   LIG d   1       0.487  85.535 114.008  0.00  0.00     0.109 C 
ATOM     16  O   LIG d   1       0.908  85.715 116.373  0.00  0.00    -0.276 OA
ATOM     17  H   LIG d   1       1.193  87.954 114.162  0.00  0.00     0.149 HD
ENDBRANCH   6  13
BRANCH   5  18
ATOM     18  N   LIG d   1      -0.578  89.358 116.752  0.00  0.00     0.381 N 
ATOM     19  H   LIG d   1      -0.602  88.425 117.111  0.00  0.00    -0.090 HD
ATOM     20  H   LIG d   1      -1.178  89.402 115.947  0.00  0.00    -0.090 HD
ATOM     21  H   LIG d   1      -0.895  89.997 117.447  0.00  0.00    -0.090 HD
ENDBRANCH   5  18
BRANCH   3  22
ATOM     22  C   LIG d   1       3.225  92.122 117.666  0.00  0.00     0.382 C 
ATOM     23  O   LIG d   1       3.926  92.840 116.913  0.00  0.00    -0.241 OA
ATOM     24  O   LIG d   1       3.006  92.491 118.835  0.00  0.00    -0.241 OA
ENDBRANCH   3  22
TORSDOF 7
ENDMDL
MODEL 4
REMARK VINA RESULT:      -4.8      3.157      5.656
REMARK  7 active torsions:
REMARK  status: ('A' for Active; 'I' for Inactive)
REMARK    1  A    between atoms: C_2  and  C_3 
REMARK    2  A    between atoms: C_3  and  O_6 
REMARK    3  A    between atoms: C_3  and  C_4 
REMARK    4  A    between atoms: C_7  and  O_6 
REMARK    5  A    between atoms: C_9  and  C_10 
REMARK    6  A    between atoms: N_15  and  C_14 
REMARK    7  A    between atoms: N_20  and  C_19 
REMARK       I    between atoms: C_22  and  N_20 
ROOT
ATOM      1  C   LIG d   1       1.033  89.525 116.578  0.00  0.00     0.161 C 
ATOM      2  C   LIG d   1       2.323  90.046 116.773  0.00  0.00     0.016 C 
ATOM      3  C   LIG d   1       2.572  91.311 117.352  0.00  0.00     0.038 C 
ATOM      4  C   LIG d   1       1.546  92.083 117.918  0.00  0.00     0.028 C 
ATOM      5  C   LIG d   1       0.180  91.825 117.292  0.00  0.00    -0.047 C 
ATOM      6  C   LIG d   1      -0.093  90.304 117.290  0.00  0.00     0.091 C 
ENDROOT
BRANCH   1   7
ATOM      7  O   LIG d   1       1.003  88.137 116.963  0.00  0.00    -0.368 OA
BRANCH   7   8
ATOM      8  C   LIG d   1       1.332  87.180 115.926  0.00  0.00     0.119 C 
BRANCH   8   9
ATOM      9  C   LIG d   1       0.074  86.331 115.663  0.00  0.00     0.028 C 
ATOM     10  C   LIG d   1       0.012  85.804 114.220  0.00  0.00     0.006 C 
ENDBRANCH   8   9
BRANCH   8  11
ATOM     11  C   LIG d   1       2.399  86.189 116.400  0.00  0.00     0.028 C 
ATOM     12  C   LIG d   1       2.211  85.768 117.866  0.00  0.00     0.006 C 
ENDBRANCH   8  11
ENDBRANCH   7   8
ENDBRANCH   1   7
BRANCH   6  13
ATOM     13  N   LIG d   1      -1.373  89.958 116.618  0.00  0.00    -0.311 N 
ATOM     14  C   LIG d   1      -2.515  89.762 117.274  0.00  0.00     0.210 C 
ATOM     15  C   LIG d   1      -3.713  89.395 116.392  0.00  0.00     0.109 C 
ATOM     16  O   LIG d   1      -2.658  89.889 118.500  0.00  0.00    -0.276 OA
ATOM     17  H   LIG d   1      -1.355  89.866 115.622  0.00  0.00     0.149 HD
ENDBRANCH   6  13
BRANCH   5  18
ATOM     18  N   LIG d   1      -0.816  92.590 118.067  0.00  0.00     0.381 N 
ATOM     19  H   LIG d   1      -1.185  92.020 118.801  0.00  0.00    -0.090 HD
ATOM     20  H   LIG d   1      -1.573  92.848 117.458  0.00  0.00    -0.090 HD
ATOM     21  H   LIG d   1      -0.395  93.407 118.451  0.00  0.00    -0.090 HD
ENDBRANCH   5  18
BRANCH   3  22
ATOM     22  C   LIG d   1       3.856  91.835 117.334  0.00  0.00     0.382 C 
ATOM     23  O   LIG d   1       4.044  93.021 116.971  0.00  0.00    -0.241 OA
ATOM     24  O   LIG d   1       4.833  91.122 117.633  0.00  0.00    -0.241 OA
ENDBRANCH   3  22
TORSDOF 7
ENDMDL
MODEL 5
REMARK VINA RESULT:      -4.6      2.167      4.589
REMARK  7 active torsions:
REMARK  status: ('A' for Active; 'I' for Inactive)
REMARK    1  A    between atoms: C_2  and  C_3 
REMARK    2  A    between atoms: C_3  and  O_6 
REMARK    3  A    between atoms: C_3  and  C_4 
REMARK    4  A    between atoms: C_7  and  O_6 
REMARK    5  A    between atoms: C_9  and  C_10 
REMARK    6  A    between atoms: N_15  and  C_14 
REMARK    7  A    between atoms: N_20  and  C_19 
REMARK       I    between atoms: C_22  and  N_20 
ROOT
ATOM      1  C   LIG d   1       3.793  88.460 115.738  0.00  0.00     0.161 C 
ATOM      2  C   LIG d   1       3.618  89.727 116.318  0.00  0.00     0.016 C 
ATOM      3  C   LIG d   1       2.370  90.207 116.777  0.00  0.00     0.038 C 
ATOM      4  C   LIG d   1       1.233  89.387 116.827  0.00  0.00     0.028 C 
ATOM      5  C   LIG d   1       1.245  88.272 115.787  0.00  0.00    -0.047 C 
ATOM      6  C   LIG d   1       2.586  87.509 115.885  0.00  0.00     0.091 C 
ENDROOT
BRANCH   1   7
ATOM      7  O   LIG d   1       4.984  87.842 116.264  0.00  0.00    -0.368 OA
BRANCH   7   8
ATOM      8  C   LIG d   1       6.084  87.685 115.334  0.00  0.00     0.119 C 
BRANCH   8   9
ATOM      9  C   LIG d   1       7.390  87.728 116.150  0.00  0.00     0.028 C 
ATOM     10  C   LIG d   1       7.721  89.143 116.653  0.00  0.00     0.006 C 
ENDBRANCH   8   9
BRANCH   8  11
ATOM     11  C   LIG d   1       6.170  88.870 114.367  0.00  0.00     0.028 C 
ATOM     12  C   LIG d   1       5.869  88.475 112.913  0.00  0.00     0.006 C 
ENDBRANCH   8  11
ENDBRANCH   7   8
ENDBRANCH   1   7
BRANCH   6  13
ATOM     13  N   LIG d   1       2.715  86.454 114.846  0.00  0.00    -0.311 N 
ATOM     14  C   LIG d   1       2.619  86.696 113.540  0.00  0.00     0.210 C 
ATOM     15  C   LIG d   1       2.763  85.463 112.642  0.00  0.00     0.109 C 
ATOM     16  O   LIG d   1       2.461  87.819 113.038  0.00  0.00    -0.276 OA
ATOM     17  H   LIG d   1       2.876  85.519 115.164  0.00  0.00     0.149 HD
ENDBRANCH   6  13
BRANCH   5  18
ATOM     18  N   LIG d   1       0.072  87.413 116.041  0.00  0.00     0.381 N 
ATOM     19  H   LIG d   1      -0.334  87.129 115.172  0.00  0.00    -0.090 HD
ATOM     20  H   LIG d   1      -0.613  87.942 116.551  0.00  0.00    -0.090 HD
ATOM     21  H   LIG d   1       0.343  86.612 116.567  0.00  0.00    -0.090 HD
ENDBRANCH   5  18
BRANCH   3  22
ATOM     22  C   LIG d   1       2.242  91.535 117.158  0.00  0.00     0.382 C 
ATOM     23  O   LIG d   1       1.143  91.959 117.591  0.00  0.00    -0.241 OA
ATOM     24  O   LIG d   1       3.197  92.323 117.031  0.00  0.00    -0.241 OA
ENDBRANCH   3  22
TORSDOF 7
ENDMDL
MODEL 6
REMARK VINA RESULT:      -4.5      2.682      4.686
REMARK  7 active torsions:
REMARK  status: ('A' for Active; 'I' for Inactive)
REMARK    1  A    between atoms: C_2  and  C_3 
REMARK    2  A    between atoms: C_3  and  O_6 
REMARK    3  A    between atoms: C_3  and  C_4 
REMARK    4  A    between atoms: C_7  and  O_6 
REMARK    5  A    between atoms: C_9  and  C_10 
REMARK    6  A    between atoms: N_15  and  C_14 
REMARK    7  A    between atoms: N_20  and  C_19 
REMARK       I    between atoms: C_22  and  N_20 
ROOT
ATOM      1  C   LIG d   1       4.780  88.827 115.229  0.00  0.00     0.161 C 
ATOM      2  C   LIG d   1       4.359  89.875 116.065  0.00  0.00     0.016 C 
ATOM      3  C   LIG d   1       3.037  90.001 116.550  0.00  0.00     0.038 C 
ATOM      4  C   LIG d   1       2.076  88.998 116.352  0.00  0.00     0.028 C 
ATOM      5  C   LIG d   1       2.314  88.171 115.093  0.00  0.00    -0.047 C 
ATOM      6  C   LIG d   1       3.774  87.664 115.094  0.00  0.00     0.091 C 
ENDROOT
BRANCH   1   7
ATOM      7  O   LIG d   1       6.060  88.333 115.671  0.00  0.00    -0.368 OA
BRANCH   7   8
ATOM      8  C   LIG d   1       6.523  88.820 116.954  0.00  0.00     0.119 C 
BRANCH   8   9
ATOM      9  C   LIG d   1       7.957  89.349 116.759  0.00  0.00     0.028 C 
ATOM     10  C   LIG d   1       8.981  88.216 116.579  0.00  0.00     0.006 C 
ENDBRANCH   8   9
BRANCH   8  11
ATOM     11  C   LIG d   1       6.646  87.682 117.971  0.00  0.00     0.028 C 
ATOM     12  C   LIG d   1       5.306  87.330 118.637  0.00  0.00     0.006 C 
ENDBRANCH   8  11
ENDBRANCH   7   8
ENDBRANCH   1   7
BRANCH   6  13
ATOM     13  N   LIG d   1       4.115  86.917 113.856  0.00  0.00    -0.311 N 
ATOM     14  C   LIG d   1       4.299  87.501 112.673  0.00  0.00     0.210 C 
ATOM     15  C   LIG d   1       4.624  86.544 111.522  0.00  0.00     0.109 C 
ATOM     16  O   LIG d   1       4.256  88.725 112.475  0.00  0.00    -0.276 OA
ATOM     17  H   LIG d   1       4.200  85.922 113.933  0.00  0.00     0.149 HD
ENDBRANCH   6  13
BRANCH   5  18
ATOM     18  N   LIG d   1       1.322  87.079 115.084  0.00  0.00     0.381 N 
ATOM     19  H   LIG d   1       1.536  86.421 115.807  0.00  0.00    -0.090 HD
ATOM     20  H   LIG d   1       1.371  86.603 114.200  0.00  0.00    -0.090 HD
ATOM     21  H   LIG d   1       0.407  87.448 115.221  0.00  0.00    -0.090 HD
ENDBRANCH   5  18
BRANCH   3  22
ATOM     22  C   LIG d   1       2.654  91.160 117.207  0.00  0.00     0.382 C 
ATOM     23  O   LIG d   1       3.237  92.243 116.961  0.00  0.00    -0.241 OA
ATOM     24  O   LIG d   1       1.762  91.128 118.077  0.00  0.00    -0.241 OA
ENDBRANCH   3  22
TORSDOF 7
ENDMDL
MODEL 7
REMARK VINA RESULT:      -4.3      2.874      6.153
REMARK  7 active torsions:
REMARK  status: ('A' for Active; 'I' for Inactive)
REMARK    1  A    between atoms: C_2  and  C_3 
REMARK    2  A    between atoms: C_3  and  O_6 
REMARK    3  A    between atoms: C_3  and  C_4 
REMARK    4  A    between atoms: C_7  and  O_6 
REMARK    5  A    between atoms: C_9  and  C_10 
REMARK    6  A    between atoms: N_15  and  C_14 
REMARK    7  A    between atoms: N_20  and  C_19 
REMARK       I    between atoms: C_22  and  N_20 
ROOT
ATOM      1  C   LIG d   1       4.595  86.947 115.827  0.00  0.00     0.161 C 
ATOM      2  C   LIG d   1       5.337  87.560 116.850  0.00  0.00     0.016 C 
ATOM      3  C   LIG d   1       6.279  88.588 116.620  0.00  0.00     0.038 C 
ATOM      4  C   LIG d   1       6.434  89.183 115.358  0.00  0.00     0.028 C 
ATOM      5  C   LIG d   1       6.072  88.255 114.203  0.00  0.00    -0.047 C 
ATOM      6  C   LIG d   1       4.669  87.658 114.459  0.00  0.00     0.091 C 
ENDROOT
BRANCH   1   7
ATOM      7  O   LIG d   1       3.222  86.799 116.240  0.00  0.00    -0.368 OA
BRANCH   7   8
ATOM      8  C   LIG d   1       2.321  87.866 115.854  0.00  0.00     0.119 C 
BRANCH   8   9
ATOM      9  C   LIG d   1       2.188  88.819 117.058  0.00  0.00     0.028 C 
ATOM     10  C   LIG d   1       2.794  90.205 116.779  0.00  0.00     0.006 C 
ENDBRANCH   8   9
BRANCH   8  11
ATOM     11  C   LIG d   1       0.907  87.336 115.598  0.00  0.00     0.028 C 
ATOM     12  C   LIG d   1       0.893  86.070 114.726  0.00  0.00     0.006 C 
ENDBRANCH   8  11
ENDBRANCH   7   8
ENDBRANCH   1   7
BRANCH   6  13
ATOM     13  N   LIG d   1       4.273  86.674 113.418  0.00  0.00    -0.311 N 
ATOM     14  C   LIG d   1       3.506  86.981 112.373  0.00  0.00     0.210 C 
ATOM     15  C   LIG d   1       3.201  85.813 111.430  0.00  0.00     0.109 C 
ATOM     16  O   LIG d   1       3.077  88.117 112.121  0.00  0.00    -0.276 OA
ATOM     17  H   LIG d   1       4.604  85.736 113.528  0.00  0.00     0.149 HD
ENDBRANCH   6  13
BRANCH   5  18
ATOM     18  N   LIG d   1       6.147  89.043 112.959  0.00  0.00     0.381 N 
ATOM     19  H   LIG d   1       5.819  88.494 112.189  0.00  0.00    -0.090 HD
ATOM     20  H   LIG d   1       7.106  89.288 112.786  0.00  0.00    -0.090 HD
ATOM     21  H   LIG d   1       5.596  89.869 113.044  0.00  0.00    -0.090 HD
ENDBRANCH   5  18
BRANCH   3  22
ATOM     22  C   LIG d   1       7.107  89.005 117.651  0.00  0.00     0.382 C 
ATOM     23  O   LIG d   1       6.891  88.617 118.824  0.00  0.00    -0.241 OA
ATOM     24  O   LIG d   1       8.040  89.800 117.429  0.00  0.00    -0.241 OA
ENDBRANCH   3  22
TORSDOF 7
ENDMDL
MODEL 8
REMARK VINA RESULT:      -4.3      1.751      5.161
REMARK  7 active torsions:
REMARK  status: ('A' for Active; 'I' for Inactive)
REMARK    1  A    between atoms: C_2  and  C_3 
REMARK    2  A    between atoms: C_3  and  O_6 
REMARK    3  A    between atoms: C_3  and  C_4 
REMARK    4  A    between atoms: C_7  and  O_6 
REMARK    5  A    between atoms: C_9  and  C_10 
REMARK    6  A    between atoms: N_15  and  C_14 
REMARK    7  A    between atoms: N_20  and  C_19 
REMARK       I    between atoms: C_22  and  N_20 
ROOT
ATOM      1  C   LIG d   1       3.991  89.994 116.426  0.00  0.00     0.161 C 
ATOM      2  C   LIG d   1       4.660  91.133 116.904  0.00  0.00     0.016 C 
ATOM      3  C   LIG d   1       4.007  92.199 117.565  0.00  0.00     0.038 C 
ATOM      4  C   LIG d   1       2.654  92.128 117.929  0.00  0.00     0.028 C 
ATOM      5  C   LIG d   1       1.830  91.220 117.022  0.00  0.00    -0.047 C 
ATOM      6  C   LIG d   1       2.534  89.848 116.911  0.00  0.00     0.091 C 
ENDROOT
BRANCH   1   7
ATOM      7  O   LIG d   1       4.748  88.811 116.749  0.00  0.00    -0.368 OA
BRANCH   7   8
ATOM      8  C   LIG d   1       5.363  88.123 115.633  0.00  0.00     0.119 C 
BRANCH   8   9
ATOM      9  C   LIG d   1       6.848  88.532 115.598  0.00  0.00     0.028 C 
ATOM     10  C   LIG d   1       7.615  88.066 116.846  0.00  0.00     0.006 C 
ENDBRANCH   8   9
BRANCH   8  11
ATOM     11  C   LIG d   1       4.780  88.595 114.298  0.00  0.00     0.028 C 
ATOM     12  C   LIG d   1       5.860  88.852 113.234  0.00  0.00     0.006 C 
ENDBRANCH   8  11
ENDBRANCH   7   8
ENDBRANCH   1   7
BRANCH   6  13
ATOM     13  N   LIG d   1       1.838  88.928 115.975  0.00  0.00    -0.311 N 
ATOM     14  C   LIG d   1       1.592  87.648 116.252  0.00  0.00     0.210 C 
ATOM     15  C   LIG d   1       0.881  86.871 115.140  0.00  0.00     0.109 C 
ATOM     16  O   LIG d   1       1.867  87.091 117.325  0.00  0.00    -0.276 OA
ATOM     17  H   LIG d   1       1.551  89.305 115.093  0.00  0.00     0.149 HD
ENDBRANCH   6  13
BRANCH   5  18
ATOM     18  N   LIG d   1       0.474  91.129 117.595  0.00  0.00     0.381 N 
ATOM     19  H   LIG d   1       0.271  90.180 117.837  0.00  0.00    -0.090 HD
ATOM     20  H   LIG d   1      -0.192  91.428 116.904  0.00  0.00    -0.090 HD
ATOM     21  H   LIG d   1       0.406  91.707 118.404  0.00  0.00    -0.090 HD
ENDBRANCH   5  18
BRANCH   3  22
ATOM     22  C   LIG d   1       4.700  93.369 117.834  0.00  0.00     0.382 C 
ATOM     23  O   LIG d   1       5.297  93.506 118.929  0.00  0.00    -0.241 OA
ATOM     24  O   LIG d   1       4.700  94.306 117.014  0.00  0.00    -0.241 OA
ENDBRANCH   3  22
TORSDOF 7
ENDMDL
MODEL 9
REMARK VINA RESULT:      -4.3      2.661      4.138
REMARK  7 active torsions:
REMARK  status: ('A' for Active; 'I' for Inactive)
REMARK    1  A    between atoms: C_2  and  C_3 
REMARK    2  A    between atoms: C_3  and  O_6 
REMARK    3  A    between atoms: C_3  and  C_4 
REMARK    4  A    between atoms: C_7  and  O_6 
REMARK    5  A    between atoms: C_9  and  C_10 
REMARK    6  A    between atoms: N_15  and  C_14 
REMARK    7  A    between atoms: N_20  and  C_19 
REMARK       I    between atoms: C_22  and  N_20 
ROOT
ATOM      1  C   LIG d   1       3.173  88.157 115.529  0.00  0.00     0.161 C 
ATOM      2  C   LIG d   1       2.296  89.003 116.227  0.00  0.00     0.016 C 
ATOM      3  C   LIG d   1       0.931  88.703 116.441  0.00  0.00     0.038 C 
ATOM      4  C   LIG d   1       0.383  87.457 116.099  0.00  0.00     0.028 C 
ATOM      5  C   LIG d   1       1.106  86.775 114.942  0.00  0.00    -0.047 C 
ATOM      6  C   LIG d   1       2.621  86.744 115.245  0.00  0.00     0.091 C 
ENDROOT
BRANCH   1   7
ATOM      7  O   LIG d   1       4.430  88.072 116.229  0.00  0.00    -0.368 OA
BRANCH   7   8
ATOM      8  C   LIG d   1       5.535  88.808 115.647  0.00  0.00     0.119 C 
BRANCH   8   9
ATOM      9  C   LIG d   1       5.103  89.251 114.236  0.00  0.00     0.028 C 
ATOM     10  C   LIG d   1       6.125  88.854 113.157  0.00  0.00     0.006 C 
ENDBRANCH   8   9
BRANCH   8  11
ATOM     11  C   LIG d   1       6.754  87.907 115.433  0.00  0.00     0.028 C 
ATOM     12  C   LIG d   1       6.583  86.514 116.060  0.00  0.00     0.006 C 
ENDBRANCH   8  11
ENDBRANCH   7   8
ENDBRANCH   1   7
BRANCH   6  13
ATOM     13  N   LIG d   1       3.411  86.168 114.126  0.00  0.00    -0.311 N 
ATOM     14  C   LIG d   1       3.300  86.577 112.864  0.00  0.00     0.210 C 
ATOM     15  C   LIG d   1       4.192  85.836 111.863  0.00  0.00     0.109 C 
ATOM     16  O   LIG d   1       2.570  87.504 112.482  0.00  0.00    -0.276 OA
ATOM     17  H   LIG d   1       4.051  85.431 114.351  0.00  0.00     0.149 HD
ENDBRANCH   6  13
BRANCH   5  18
ATOM     18  N   LIG d   1       0.520  85.430 114.783  0.00  0.00     0.381 N 
ATOM     19  H   LIG d   1       0.907  84.809 115.465  0.00  0.00    -0.090 HD
ATOM     20  H   LIG d   1       0.753  85.080 113.870  0.00  0.00    -0.090 HD
ATOM     21  H   LIG d   1      -0.469  85.474 114.887  0.00  0.00    -0.090 HD
ENDBRANCH   5  18
BRANCH   3  22
ATOM     22  C   LIG d   1       0.088  89.670 116.967  0.00  0.00     0.382 C 
ATOM     23  O   LIG d   1      -1.077  89.364 117.317  0.00  0.00    -0.241 OA
ATOM     24  O   LIG d   1       0.464  90.855 117.054  0.00  0.00    -0.241 OA
ENDBRANCH   3  22
TORSDOF 7
ENDMDL
