MODEL 1
REMARK VINA RESULT:      -4.6      0.000      0.000
REMARK  7 active torsions:
REMARK  status: ('A' for Active; 'I' for Inactive)
REMARK    1  A    between atoms: C_2  and  C_3 
REMARK    2  A    between atoms: C_3  and  O_6 
REMARK    3  A    between atoms: C_3  and  C_4 
REMARK    4  A    between atoms: C_7  and  O_6 
REMARK    5  A    between atoms: C_9  and  C_10 
REMARK    6  A    between atoms: N_15  and  C_14 
REMARK    7  A    between atoms: N_20  and  C_19 
REMARK       I    between atoms: C_22  and  N_20 
ROOT
ATOM      1  C   LIG d   1       2.364  87.537 115.123  0.00  0.00     0.161 C 
ATOM      2  C   LIG d   1       1.338  87.178 116.014  0.00  0.00     0.016 C 
ATOM      3  C   LIG d   1       1.206  87.727 117.310  0.00  0.00     0.038 C 
ATOM      4  C   LIG d   1       2.008  88.790 117.751  0.00  0.00     0.028 C 
ATOM      5  C   LIG d   1       3.375  88.837 117.077  0.00  0.00    -0.047 C 
ATOM      6  C   LIG d   1       3.182  88.776 115.545  0.00  0.00     0.091 C 
ENDROOT
BRANCH   1   7
ATOM      7  O   LIG d   1       1.820  87.722 113.801  0.00  0.00    -0.368 OA
BRANCH   7   8
ATOM      8  C   LIG d   1       1.759  86.539 112.967  0.00  0.00     0.119 C 
BRANCH   8   9
ATOM      9  C   LIG d   1       3.201  86.028 112.781  0.00  0.00     0.028 C 
ATOM     10  C   LIG d   1       3.898  86.666 111.568  0.00  0.00     0.006 C 
ENDBRANCH   8   9
BRANCH   8  11
ATOM     11  C   LIG d   1       1.264  86.876 111.557  0.00  0.00     0.028 C 
ATOM     12  C   LIG d   1      -0.268  86.832 111.437  0.00  0.00     0.006 C 
ENDBRANCH   8  11
ENDBRANCH   7   8
ENDBRANCH   1   7
BRANCH   6  13
ATOM     13  N   LIG d   1       4.474  88.732 114.812  0.00  0.00    -0.311 N 
ATOM     14  C   LIG d   1       4.742  89.493 113.752  0.00  0.00     0.210 C 
ATOM     15  C   LIG d   1       6.126  89.275 113.133  0.00  0.00     0.109 C 
ATOM     16  O   LIG d   1       3.976  90.350 113.285  0.00  0.00    -0.276 OA
ATOM     17  H   LIG d   1       5.164  88.086 115.142  0.00  0.00     0.149 HD
ENDBRANCH   6  13
BRANCH   5  18
ATOM     18  N   LIG d   1       4.051  90.069 117.526  0.00  0.00     0.381 N 
ATOM     19  H   LIG d   1       4.846  90.249 116.946  0.00  0.00    -0.090 HD
ATOM     20  H   LIG d   1       4.372  89.938 118.469  0.00  0.00    -0.090 HD
ATOM     21  H   LIG d   1       3.420  90.838 117.486  0.00  0.00    -0.090 HD
ENDBRANCH   5  18
BRANCH   3  22
ATOM     22  C   LIG d   1       0.287  87.183 118.196  0.00  0.00     0.382 C 
ATOM     23  O   LIG d   1       0.463  86.027 118.649  0.00  0.00    -0.241 OA
ATOM     24  O   LIG d   1      -0.737  87.818 118.512  0.00  0.00    -0.241 OA
ENDBRANCH   3  22
TORSDOF 7
ENDMDL
MODEL 2
REMARK VINA RESULT:      -4.5      2.705      5.236
REMARK  7 active torsions:
REMARK  status: ('A' for Active; 'I' for Inactive)
REMARK    1  A    between atoms: C_2  and  C_3 
REMARK    2  A    between atoms: C_3  and  O_6 
REMARK    3  A    between atoms: C_3  and  C_4 
REMARK    4  A    between atoms: C_7  and  O_6 
REMARK    5  A    between atoms: C_9  and  C_10 
REMARK    6  A    between atoms: N_15  and  C_14 
REMARK    7  A    between atoms: N_20  and  C_19 
REMARK       I    between atoms: C_22  and  N_20 
ROOT
ATOM      1  C   LIG d   1       3.744  88.138 115.657  0.00  0.00     0.161 C 
ATOM      2  C   LIG d   1       4.622  88.402 116.722  0.00  0.00     0.016 C 
ATOM      3  C   LIG d   1       5.904  88.971 116.550  0.00  0.00     0.038 C 
ATOM      4  C   LIG d   1       6.339  89.457 115.308  0.00  0.00     0.028 C 
ATOM      5  C   LIG d   1       5.690  88.754 114.121  0.00  0.00    -0.047 C 
ATOM      6  C   LIG d   1       4.156  88.764 114.309  0.00  0.00     0.091 C 
ENDROOT
BRANCH   1   7
ATOM      7  O   LIG d   1       2.408  88.548 116.012  0.00  0.00    -0.368 OA
BRANCH   7   8
ATOM      8  C   LIG d   1       2.300  89.484 117.113  0.00  0.00     0.119 C 
BRANCH   8   9
ATOM      9  C   LIG d   1       1.017  89.136 117.893  0.00  0.00     0.028 C 
ATOM     10  C   LIG d   1       0.434  87.772 117.485  0.00  0.00     0.006 C 
ENDBRANCH   8   9
BRANCH   8  11
ATOM     11  C   LIG d   1       2.092  90.915 116.609  0.00  0.00     0.028 C 
ATOM     12  C   LIG d   1       3.227  91.864 117.026  0.00  0.00     0.006 C 
ENDBRANCH   8  11
ENDBRANCH   7   8
ENDBRANCH   1   7
BRANCH   6  13
ATOM     13  N   LIG d   1       3.448  88.022 113.233  0.00  0.00    -0.311 N 
ATOM     14  C   LIG d   1       2.418  88.522 112.553  0.00  0.00     0.210 C 
ATOM     15  C   LIG d   1       1.821  87.583 111.500  0.00  0.00     0.109 C 
ATOM     16  O   LIG d   1       1.963  89.667 112.699  0.00  0.00    -0.276 OA
ATOM     17  H   LIG d   1       3.772  87.097 113.028  0.00  0.00     0.149 HD
ENDBRANCH   6  13
BRANCH   5  18
ATOM     18  N   LIG d   1       6.128  89.450 112.896  0.00  0.00     0.381 N 
ATOM     19  H   LIG d   1       6.983  89.938 113.072  0.00  0.00    -0.090 HD
ATOM     20  H   LIG d   1       5.428  90.123 112.638  0.00  0.00    -0.090 HD
ATOM     21  H   LIG d   1       6.257  88.794 112.158  0.00  0.00    -0.090 HD
ENDBRANCH   5  18
BRANCH   3  22
ATOM     22  C   LIG d   1       6.783  89.021 117.621  0.00  0.00     0.382 C 
ATOM     23  O   LIG d   1       7.895  89.589 117.495  0.00  0.00    -0.241 OA
ATOM     24  O   LIG d   1       6.497  88.467 118.700  0.00  0.00    -0.241 OA
ENDBRANCH   3  22
TORSDOF 7
ENDMDL
MODEL 3
REMARK VINA RESULT:      -4.5      2.802      5.575
REMARK  7 active torsions:
REMARK  status: ('A' for Active; 'I' for Inactive)
REMARK    1  A    between atoms: C_2  and  C_3 
REMARK    2  A    between atoms: C_3  and  O_6 
REMARK    3  A    between atoms: C_3  and  C_4 
REMARK    4  A    between atoms: C_7  and  O_6 
REMARK    5  A    between atoms: C_9  and  C_10 
REMARK    6  A    between atoms: N_15  and  C_14 
REMARK    7  A    between atoms: N_20  and  C_19 
REMARK       I    between atoms: C_22  and  N_20 
ROOT
ATOM      1  C   LIG d   1       3.882  90.220 114.769  0.00  0.00     0.161 C 
ATOM      2  C   LIG d   1       3.081  89.667 113.756  0.00  0.00     0.016 C 
ATOM      3  C   LIG d   1       3.100  88.297 113.409  0.00  0.00     0.038 C 
ATOM      4  C   LIG d   1       3.816  87.352 114.159  0.00  0.00     0.028 C 
ATOM      5  C   LIG d   1       5.029  87.939 114.873  0.00  0.00    -0.047 C 
ATOM      6  C   LIG d   1       4.587  89.186 115.672  0.00  0.00     0.091 C 
ENDROOT
BRANCH   1   7
ATOM      7  O   LIG d   1       3.101  91.132 115.566  0.00  0.00    -0.368 OA
BRANCH   7   8
ATOM      8  C   LIG d   1       2.405  90.554 116.698  0.00  0.00     0.119 C 
BRANCH   8   9
ATOM      9  C   LIG d   1       0.905  90.863 116.526  0.00  0.00     0.028 C 
ATOM     10  C   LIG d   1       0.025  90.067 117.505  0.00  0.00     0.006 C 
ENDBRANCH   8   9
BRANCH   8  11
ATOM     11  C   LIG d   1       2.811  91.233 118.009  0.00  0.00     0.028 C 
ATOM     12  C   LIG d   1       3.408  92.633 117.794  0.00  0.00     0.006 C 
ENDBRANCH   8  11
ENDBRANCH   7   8
ENDBRANCH   1   7
BRANCH   6  13
ATOM     13  N   LIG d   1       5.729  89.871 116.332  0.00  0.00    -0.311 N 
ATOM     14  C   LIG d   1       6.075  89.660 117.601  0.00  0.00     0.210 C 
ATOM     15  C   LIG d   1       7.271  90.484 118.090  0.00  0.00     0.109 C 
ATOM     16  O   LIG d   1       5.526  88.846 118.358  0.00  0.00    -0.276 OA
ATOM     17  H   LIG d   1       6.249  90.525 115.781  0.00  0.00     0.149 HD
ENDBRANCH   6  13
BRANCH   5  18
ATOM     18  N   LIG d   1       5.601  86.879 115.724  0.00  0.00     0.381 N 
ATOM     19  H   LIG d   1       6.008  87.285 116.543  0.00  0.00    -0.090 HD
ATOM     20  H   LIG d   1       6.326  86.407 115.213  0.00  0.00    -0.090 HD
ATOM     21  H   LIG d   1       4.891  86.230 115.984  0.00  0.00    -0.090 HD
ENDBRANCH   5  18
BRANCH   3  22
ATOM     22  C   LIG d   1       2.427  87.865 112.276  0.00  0.00     0.382 C 
ATOM     23  O   LIG d   1       1.216  88.152 112.118  0.00  0.00    -0.241 OA
ATOM     24  O   LIG d   1       3.005  87.156 111.430  0.00  0.00    -0.241 OA
ENDBRANCH   3  22
TORSDOF 7
ENDMDL
MODEL 4
REMARK VINA RESULT:      -4.4      2.452      5.679
REMARK  7 active torsions:
REMARK  status: ('A' for Active; 'I' for Inactive)
REMARK    1  A    between atoms: C_2  and  C_3 
REMARK    2  A    between atoms: C_3  and  O_6 
REMARK    3  A    between atoms: C_3  and  C_4 
REMARK    4  A    between atoms: C_7  and  O_6 
REMARK    5  A    between atoms: C_9  and  C_10 
REMARK    6  A    between atoms: N_15  and  C_14 
REMARK    7  A    between atoms: N_20  and  C_19 
REMARK       I    between atoms: C_22  and  N_20 
ROOT
ATOM      1  C   LIG d   1       2.643  87.551 115.197  0.00  0.00     0.161 C 
ATOM      2  C   LIG d   1       3.873  88.046 115.660  0.00  0.00     0.016 C 
ATOM      3  C   LIG d   1       5.025  88.152 114.847  0.00  0.00     0.038 C 
ATOM      4  C   LIG d   1       4.983  87.910 113.466  0.00  0.00     0.028 C 
ATOM      5  C   LIG d   1       3.891  86.927 113.057  0.00  0.00    -0.047 C 
ATOM      6  C   LIG d   1       2.547  87.387 113.666  0.00  0.00     0.091 C 
ENDROOT
BRANCH   1   7
ATOM      7  O   LIG d   1       1.569  88.382 115.680  0.00  0.00    -0.368 OA
BRANCH   7   8
ATOM      8  C   LIG d   1       1.385  88.415 117.116  0.00  0.00     0.119 C 
BRANCH   8   9
ATOM      9  C   LIG d   1       0.110  87.611 117.439  0.00  0.00     0.028 C 
ATOM     10  C   LIG d   1      -1.079  88.517 117.800  0.00  0.00     0.006 C 
ENDBRANCH   8   9
BRANCH   8  11
ATOM     11  C   LIG d   1       1.102  89.837 117.609  0.00  0.00     0.028 C 
ATOM     12  C   LIG d   1       1.657  90.916 116.665  0.00  0.00     0.006 C 
ENDBRANCH   8  11
ENDBRANCH   7   8
ENDBRANCH   1   7
BRANCH   6  13
ATOM     13  N   LIG d   1       1.442  86.434 113.384  0.00  0.00    -0.311 N 
ATOM     14  C   LIG d   1       0.561  86.604 112.399  0.00  0.00     0.210 C 
ATOM     15  C   LIG d   1      -0.511  85.515 112.295  0.00  0.00     0.109 C 
ATOM     16  O   LIG d   1       0.584  87.538 111.583  0.00  0.00    -0.276 OA
ATOM     17  H   LIG d   1       1.367  85.632 113.979  0.00  0.00     0.149 HD
ENDBRANCH   6  13
BRANCH   5  18
ATOM     18  N   LIG d   1       3.870  86.873 111.583  0.00  0.00     0.381 N 
ATOM     19  H   LIG d   1       4.216  85.987 111.271  0.00  0.00    -0.090 HD
ATOM     20  H   LIG d   1       4.473  87.591 111.223  0.00  0.00    -0.090 HD
ATOM     21  H   LIG d   1       2.941  87.011 111.250  0.00  0.00    -0.090 HD
ENDBRANCH   5  18
BRANCH   3  22
ATOM     22  C   LIG d   1       6.246  88.466 115.424  0.00  0.00     0.382 C 
ATOM     23  O   LIG d   1       6.571  89.666 115.591  0.00  0.00    -0.241 OA
ATOM     24  O   LIG d   1       7.047  87.564 115.738  0.00  0.00    -0.241 OA
ENDBRANCH   3  22
TORSDOF 7
ENDMDL
MODEL 5
REMARK VINA RESULT:      -4.4      2.382      5.271
REMARK  7 active torsions:
REMARK  status: ('A' for Active; 'I' for Inactive)
REMARK    1  A    between atoms: C_2  and  C_3 
REMARK    2  A    between atoms: C_3  and  O_6 
REMARK    3  A    between atoms: C_3  and  C_4 
REMARK    4  A    between atoms: C_7  and  O_6 
REMARK    5  A    between atoms: C_9  and  C_10 
REMARK    6  A    between atoms: N_15  and  C_14 
REMARK    7  A    between atoms: N_20  and  C_19 
REMARK       I    between atoms: C_22  and  N_20 
ROOT
ATOM      1  C   LIG d   1       3.749  88.243 115.514  0.00  0.00     0.161 C 
ATOM      2  C   LIG d   1       2.922  87.727 114.502  0.00  0.00     0.016 C 
ATOM      3  C   LIG d   1       3.256  87.767 113.129  0.00  0.00     0.038 C 
ATOM      4  C   LIG d   1       4.517  88.192 112.685  0.00  0.00     0.028 C 
ATOM      5  C   LIG d   1       5.186  89.188 113.625  0.00  0.00    -0.047 C 
ATOM      6  C   LIG d   1       5.176  88.610 115.059  0.00  0.00     0.091 C 
ENDROOT
BRANCH   1   7
ATOM      7  O   LIG d   1       3.797  87.323 116.622  0.00  0.00    -0.368 OA
BRANCH   7   8
ATOM      8  C   LIG d   1       3.064  87.714 117.809  0.00  0.00     0.119 C 
BRANCH   8   9
ATOM      9  C   LIG d   1       1.775  86.870 117.856  0.00  0.00     0.028 C 
ATOM     10  C   LIG d   1       0.534  87.670 117.424  0.00  0.00     0.006 C 
ENDBRANCH   8   9
BRANCH   8  11
ATOM     11  C   LIG d   1       2.593  89.169 117.718  0.00  0.00     0.028 C 
ATOM     12  C   LIG d   1       3.294  90.086 118.733  0.00  0.00     0.006 C 
ENDBRANCH   8  11
ENDBRANCH   7   8
ENDBRANCH   1   7
BRANCH   6  13
ATOM     13  N   LIG d   1       5.737  89.558 116.056  0.00  0.00    -0.311 N 
ATOM     14  C   LIG d   1       6.787  89.277 116.826  0.00  0.00     0.210 C 
ATOM     15  C   LIG d   1       7.190  90.387 117.801  0.00  0.00     0.109 C 
ATOM     16  O   LIG d   1       7.443  88.226 116.770  0.00  0.00    -0.276 OA
ATOM     17  H   LIG d   1       5.285  90.447 116.145  0.00  0.00     0.149 HD
ENDBRANCH   6  13
BRANCH   5  18
ATOM     18  N   LIG d   1       6.547  89.440 113.113  0.00  0.00     0.381 N 
ATOM     19  H   LIG d   1       6.534  89.457 112.112  0.00  0.00    -0.090 HD
ATOM     20  H   LIG d   1       7.149  88.692 113.408  0.00  0.00    -0.090 HD
ATOM     21  H   LIG d   1       6.887  90.309 113.463  0.00  0.00    -0.090 HD
ENDBRANCH   5  18
BRANCH   3  22
ATOM     22  C   LIG d   1       2.308  87.415 112.180  0.00  0.00     0.382 C 
ATOM     23  O   LIG d   1       2.508  86.429 111.430  0.00  0.00    -0.241 OA
ATOM     24  O   LIG d   1       1.276  88.097 112.035  0.00  0.00    -0.241 OA
ENDBRANCH   3  22
TORSDOF 7
ENDMDL
MODEL 6
REMARK VINA RESULT:      -4.3      2.597      4.757
REMARK  7 active torsions:
REMARK  status: ('A' for Active; 'I' for Inactive)
REMARK    1  A    between atoms: C_2  and  C_3 
REMARK    2  A    between atoms: C_3  and  O_6 
REMARK    3  A    between atoms: C_3  and  C_4 
REMARK    4  A    between atoms: C_7  and  O_6 
REMARK    5  A    between atoms: C_9  and  C_10 
REMARK    6  A    between atoms: N_15  and  C_14 
REMARK    7  A    between atoms: N_20  and  C_19 
REMARK       I    between atoms: C_22  and  N_20 
ROOT
ATOM      1  C   LIG d   1       3.787  88.084 115.601  0.00  0.00     0.161 C 
ATOM      2  C   LIG d   1       4.645  88.371 116.675  0.00  0.00     0.016 C 
ATOM      3  C   LIG d   1       5.919  88.964 116.517  0.00  0.00     0.038 C 
ATOM      4  C   LIG d   1       6.360  89.453 115.279  0.00  0.00     0.028 C 
ATOM      5  C   LIG d   1       5.740  88.731 114.087  0.00  0.00    -0.047 C 
ATOM      6  C   LIG d   1       4.204  88.712 114.255  0.00  0.00     0.091 C 
ENDROOT
BRANCH   1   7
ATOM      7  O   LIG d   1       2.439  88.469 115.937  0.00  0.00    -0.368 OA
BRANCH   7   8
ATOM      8  C   LIG d   1       1.503  87.385 116.158  0.00  0.00     0.119 C 
BRANCH   8   9
ATOM      9  C   LIG d   1       1.290  87.261 117.679  0.00  0.00     0.028 C 
ATOM     10  C   LIG d   1       1.214  88.630 118.375  0.00  0.00     0.006 C 
ENDBRANCH   8   9
BRANCH   8  11
ATOM     11  C   LIG d   1       2.093  86.042 115.720  0.00  0.00     0.028 C 
ATOM     12  C   LIG d   1       1.360  85.434 114.513  0.00  0.00     0.006 C 
ENDBRANCH   8  11
ENDBRANCH   7   8
ENDBRANCH   1   7
BRANCH   6  13
ATOM     13  N   LIG d   1       3.525  87.951 113.174  0.00  0.00    -0.311 N 
ATOM     14  C   LIG d   1       2.483  88.420 112.490  0.00  0.00     0.210 C 
ATOM     15  C   LIG d   1       1.921  87.466 111.432  0.00  0.00     0.109 C 
ATOM     16  O   LIG d   1       1.991  89.549 112.637  0.00  0.00    -0.276 OA
ATOM     17  H   LIG d   1       3.879  87.038 112.967  0.00  0.00     0.149 HD
ENDBRANCH   6  13
BRANCH   5  18
ATOM     18  N   LIG d   1       6.180  89.431 112.864  0.00  0.00     0.381 N 
ATOM     19  H   LIG d   1       7.163  89.608 112.911  0.00  0.00    -0.090 HD
ATOM     20  H   LIG d   1       5.703  90.313 112.806  0.00  0.00    -0.090 HD
ATOM     21  H   LIG d   1       5.972  88.878 112.062  0.00  0.00    -0.090 HD
ENDBRANCH   5  18
BRANCH   3  22
ATOM     22  C   LIG d   1       6.782  89.037 117.599  0.00  0.00     0.382 C 
ATOM     23  O   LIG d   1       6.439  88.561 118.708  0.00  0.00    -0.241 OA
ATOM     24  O   LIG d   1       7.882  89.611 117.492  0.00  0.00    -0.241 OA
ENDBRANCH   3  22
TORSDOF 7
ENDMDL
MODEL 7
REMARK VINA RESULT:      -4.3      2.587      3.607
REMARK  7 active torsions:
REMARK  status: ('A' for Active; 'I' for Inactive)
REMARK    1  A    between atoms: C_2  and  C_3 
REMARK    2  A    between atoms: C_3  and  O_6 
REMARK    3  A    between atoms: C_3  and  C_4 
REMARK    4  A    between atoms: C_7  and  O_6 
REMARK    5  A    between atoms: C_9  and  C_10 
REMARK    6  A    between atoms: N_15  and  C_14 
REMARK    7  A    between atoms: N_20  and  C_19 
REMARK       I    between atoms: C_22  and  N_20 
ROOT
ATOM      1  C   LIG d   1       3.157  88.559 116.345  0.00  0.00     0.161 C 
ATOM      2  C   LIG d   1       1.933  89.249 116.358  0.00  0.00     0.016 C 
ATOM      3  C   LIG d   1       1.773  90.539 116.913  0.00  0.00     0.038 C 
ATOM      4  C   LIG d   1       2.866  91.295 117.361  0.00  0.00     0.028 C 
ATOM      5  C   LIG d   1       4.040  90.442 117.830  0.00  0.00    -0.047 C 
ATOM      6  C   LIG d   1       4.384  89.413 116.729  0.00  0.00     0.091 C 
ENDROOT
BRANCH   1   7
ATOM      7  O   LIG d   1       3.358  87.944 115.057  0.00  0.00    -0.368 OA
BRANCH   7   8
ATOM      8  C   LIG d   1       3.745  88.832 113.980  0.00  0.00     0.119 C 
BRANCH   8   9
ATOM      9  C   LIG d   1       2.586  88.861 112.964  0.00  0.00     0.028 C 
ATOM     10  C   LIG d   1       2.594  87.639 112.030  0.00  0.00     0.006 C 
ENDBRANCH   8   9
BRANCH   8  11
ATOM     11  C   LIG d   1       4.947  88.281 113.208  0.00  0.00     0.028 C 
ATOM     12  C   LIG d   1       6.170  89.211 113.266  0.00  0.00     0.006 C 
ENDBRANCH   8  11
ENDBRANCH   7   8
ENDBRANCH   1   7
BRANCH   6  13
ATOM     13  N   LIG d   1       5.467  88.482 117.141  0.00  0.00    -0.311 N 
ATOM     14  C   LIG d   1       6.762  88.744 116.971  0.00  0.00     0.210 C 
ATOM     15  C   LIG d   1       7.712  87.641 117.448  0.00  0.00     0.109 C 
ATOM     16  O   LIG d   1       7.215  89.798 116.500  0.00  0.00    -0.276 OA
ATOM     17  H   LIG d   1       5.190  87.617 117.561  0.00  0.00     0.149 HD
ENDBRANCH   6  13
BRANCH   5  18
ATOM     18  N   LIG d   1       5.158  91.353 118.139  0.00  0.00     0.381 N 
ATOM     19  H   LIG d   1       5.115  91.630 119.099  0.00  0.00    -0.090 HD
ATOM     20  H   LIG d   1       5.073  92.177 117.569  0.00  0.00    -0.090 HD
ATOM     21  H   LIG d   1       6.027  90.902 117.954  0.00  0.00    -0.090 HD
ENDBRANCH   5  18
BRANCH   3  22
ATOM     22  C   LIG d   1       0.500  91.071 117.061  0.00  0.00     0.382 C 
ATOM     23  O   LIG d   1       0.357  92.259 117.436  0.00  0.00    -0.241 OA
ATOM     24  O   LIG d   1      -0.506  90.363 116.866  0.00  0.00    -0.241 OA
ENDBRANCH   3  22
TORSDOF 7
ENDMDL
MODEL 8
REMARK VINA RESULT:      -4.2      3.160      5.932
REMARK  7 active torsions:
REMARK  status: ('A' for Active; 'I' for Inactive)
REMARK    1  A    between atoms: C_2  and  C_3 
REMARK    2  A    between atoms: C_3  and  O_6 
REMARK    3  A    between atoms: C_3  and  C_4 
REMARK    4  A    between atoms: C_7  and  O_6 
REMARK    5  A    between atoms: C_9  and  C_10 
REMARK    6  A    between atoms: N_15  and  C_14 
REMARK    7  A    between atoms: N_20  and  C_19 
REMARK       I    between atoms: C_22  and  N_20 
ROOT
ATOM      1  C   LIG d   1       4.175  90.547 116.100  0.00  0.00     0.161 C 
ATOM      2  C   LIG d   1       3.288  90.246 115.054  0.00  0.00     0.016 C 
ATOM      3  C   LIG d   1       3.547  89.261 114.073  0.00  0.00     0.038 C 
ATOM      4  C   LIG d   1       4.650  88.399 114.160  0.00  0.00     0.028 C 
ATOM      5  C   LIG d   1       5.830  89.002 114.916  0.00  0.00    -0.047 C 
ATOM      6  C   LIG d   1       5.333  89.541 116.276  0.00  0.00     0.091 C 
ENDROOT
BRANCH   1   7
ATOM      7  O   LIG d   1       3.445  90.690 117.335  0.00  0.00    -0.368 OA
BRANCH   7   8
ATOM      8  C   LIG d   1       2.242  91.495 117.273  0.00  0.00     0.119 C 
BRANCH   8   9
ATOM      9  C   LIG d   1       2.602  92.905 117.780  0.00  0.00     0.028 C 
ATOM     10  C   LIG d   1       1.357  93.744 118.114  0.00  0.00     0.006 C 
ENDBRANCH   8   9
BRANCH   8  11
ATOM     11  C   LIG d   1       1.174  90.976 118.241  0.00  0.00     0.028 C 
ATOM     12  C   LIG d   1       1.289  89.466 118.501  0.00  0.00     0.006 C 
ENDBRANCH   8  11
ENDBRANCH   7   8
ENDBRANCH   1   7
BRANCH   6  13
ATOM     13  N   LIG d   1       6.408  90.223 117.043  0.00  0.00    -0.311 N 
ATOM     14  C   LIG d   1       7.168  89.606 117.947  0.00  0.00     0.210 C 
ATOM     15  C   LIG d   1       8.204  90.498 118.637  0.00  0.00     0.109 C 
ATOM     16  O   LIG d   1       7.103  88.397 118.218  0.00  0.00    -0.276 OA
ATOM     17  H   LIG d   1       6.550  91.197 116.862  0.00  0.00     0.149 HD
ENDBRANCH   6  13
BRANCH   5  18
ATOM     18  N   LIG d   1       6.856  87.950 115.051  0.00  0.00     0.381 N 
ATOM     19  H   LIG d   1       6.464  87.150 115.505  0.00  0.00    -0.090 HD
ATOM     20  H   LIG d   1       7.607  88.300 115.620  0.00  0.00    -0.090 HD
ATOM     21  H   LIG d   1       7.203  87.695 114.152  0.00  0.00    -0.090 HD
ENDBRANCH   5  18
BRANCH   3  22
ATOM     22  C   LIG d   1       2.716  89.157 112.968  0.00  0.00     0.382 C 
ATOM     23  O   LIG d   1       2.860  88.206 112.162  0.00  0.00    -0.241 OA
ATOM     24  O   LIG d   1       1.853  90.027 112.742  0.00  0.00    -0.241 OA
ENDBRANCH   3  22
TORSDOF 7
ENDMDL
MODEL 9
REMARK VINA RESULT:      -4.1      2.499      5.219
REMARK  7 active torsions:
REMARK  status: ('A' for Active; 'I' for Inactive)
REMARK    1  A    between atoms: C_2  and  C_3 
REMARK    2  A    between atoms: C_3  and  O_6 
REMARK    3  A    between atoms: C_3  and  C_4 
REMARK    4  A    between atoms: C_7  and  O_6 
REMARK    5  A    between atoms: C_9  and  C_10 
REMARK    6  A    between atoms: N_15  and  C_14 
REMARK    7  A    between atoms: N_20  and  C_19 
REMARK       I    between atoms: C_22  and  N_20 
ROOT
ATOM      1  C   LIG d   1       3.361  90.000 115.557  0.00  0.00     0.161 C 
ATOM      2  C   LIG d   1       2.679  89.444 114.462  0.00  0.00     0.016 C 
ATOM      3  C   LIG d   1       3.272  88.534 113.557  0.00  0.00     0.038 C 
ATOM      4  C   LIG d   1       4.550  87.998 113.775  0.00  0.00     0.028 C 
ATOM      5  C   LIG d   1       5.460  88.913 114.587  0.00  0.00    -0.047 C 
ATOM      6  C   LIG d   1       4.720  89.342 115.875  0.00  0.00     0.091 C 
ENDROOT
BRANCH   1   7
ATOM      7  O   LIG d   1       2.511  89.982 116.721  0.00  0.00    -0.368 OA
BRANCH   7   8
ATOM      8  C   LIG d   1       1.563  88.889 116.802  0.00  0.00     0.119 C 
BRANCH   8   9
ATOM      9  C   LIG d   1       0.324  89.406 117.557  0.00  0.00     0.028 C 
ATOM     10  C   LIG d   1      -0.023  90.859 117.191  0.00  0.00     0.006 C 
ENDBRANCH   8   9
BRANCH   8  11
ATOM     11  C   LIG d   1       2.109  87.740 117.656  0.00  0.00     0.028 C 
ATOM     12  C   LIG d   1       2.311  86.445 116.853  0.00  0.00     0.006 C 
ENDBRANCH   8  11
ENDBRANCH   7   8
ENDBRANCH   1   7
BRANCH   6  13
ATOM     13  N   LIG d   1       5.507  90.305 116.687  0.00  0.00    -0.311 N 
ATOM     14  C   LIG d   1       5.755  90.139 117.985  0.00  0.00     0.210 C 
ATOM     15  C   LIG d   1       6.569  91.261 118.637  0.00  0.00     0.109 C 
ATOM     16  O   LIG d   1       5.406  89.153 118.651  0.00  0.00    -0.276 OA
ATOM     17  H   LIG d   1       5.856  91.119 116.219  0.00  0.00     0.149 HD
ENDBRANCH   6  13
BRANCH   5  18
ATOM     18  N   LIG d   1       6.709  88.175 114.857  0.00  0.00     0.381 N 
ATOM     19  H   LIG d   1       6.519  87.396 115.456  0.00  0.00    -0.090 HD
ATOM     20  H   LIG d   1       7.352  88.786 115.328  0.00  0.00    -0.090 HD
ATOM     21  H   LIG d   1       7.107  87.855 114.001  0.00  0.00    -0.090 HD
ENDBRANCH   5  18
BRANCH   3  22
ATOM     22  C   LIG d   1       2.600  88.182 112.396  0.00  0.00     0.382 C 
ATOM     23  O   LIG d   1       3.215  87.611 111.464  0.00  0.00    -0.241 OA
ATOM     24  O   LIG d   1       1.396  88.467 112.253  0.00  0.00    -0.241 OA
ENDBRANCH   3  22
TORSDOF 7
ENDMDL
