MODEL 1
REMARK VINA RESULT:      -5.1      0.000      0.000
REMARK  7 active torsions:
REMARK  status: ('A' for Active; 'I' for Inactive)
REMARK    1  A    between atoms: C_2  and  C_3 
REMARK    2  A    between atoms: C_3  and  O_6 
REMARK    3  A    between atoms: C_3  and  C_4 
REMARK    4  A    between atoms: C_7  and  O_6 
REMARK    5  A    between atoms: C_9  and  C_10 
REMARK    6  A    between atoms: N_15  and  C_14 
REMARK    7  A    between atoms: N_20  and  C_19 
REMARK       I    between atoms: C_22  and  N_20 
ROOT
ATOM      1  C   LIG d   1       3.384  88.533 115.711  0.00  0.00     0.161 C 
ATOM      2  C   LIG d   1       3.856  89.255 116.820  0.00  0.00     0.016 C 
ATOM      3  C   LIG d   1       5.051  90.011 116.805  0.00  0.00     0.038 C 
ATOM      4  C   LIG d   1       5.782  90.219 115.627  0.00  0.00     0.028 C 
ATOM      5  C   LIG d   1       5.618  89.099 114.606  0.00  0.00    -0.047 C 
ATOM      6  C   LIG d   1       4.110  88.839 114.384  0.00  0.00     0.091 C 
ENDROOT
BRANCH   1   7
ATOM      7  O   LIG d   1       1.965  88.735 115.563  0.00  0.00    -0.368 OA
BRANCH   7   8
ATOM      8  C   LIG d   1       1.114  87.918 116.404  0.00  0.00     0.119 C 
BRANCH   8   9
ATOM      9  C   LIG d   1       0.548  86.785 115.526  0.00  0.00     0.028 C 
ATOM     10  C   LIG d   1       1.280  85.450 115.746  0.00  0.00     0.006 C 
ENDBRANCH   8   9
BRANCH   8  11
ATOM     11  C   LIG d   1      -0.108  88.702 116.891  0.00  0.00     0.028 C 
ATOM     12  C   LIG d   1       0.082  90.224 116.789  0.00  0.00     0.006 C 
ENDBRANCH   8  11
ENDBRANCH   7   8
ENDBRANCH   1   7
BRANCH   6  13
ATOM     13  N   LIG d   1       3.861  87.700 113.462  0.00  0.00    -0.311 N 
ATOM     14  C   LIG d   1       3.130  87.801 112.353  0.00  0.00     0.210 C 
ATOM     15  C   LIG d   1       2.982  86.501 111.556  0.00  0.00     0.109 C 
ATOM     16  O   LIG d   1       2.618  88.851 111.937  0.00  0.00    -0.276 OA
ATOM     17  H   LIG d   1       4.266  86.818 113.707  0.00  0.00     0.149 HD
ENDBRANCH   6  13
BRANCH   5  18
ATOM     18  N   LIG d   1       6.321  89.510 113.376  0.00  0.00     0.381 N 
ATOM     19  H   LIG d   1       6.680  90.437 113.485  0.00  0.00    -0.090 HD
ATOM     20  H   LIG d   1       5.667  89.513 112.613  0.00  0.00    -0.090 HD
ATOM     21  H   LIG d   1       7.066  88.877 113.181  0.00  0.00    -0.090 HD
ENDBRANCH   5  18
BRANCH   3  22
ATOM     22  C   LIG d   1       5.547  90.534 117.990  0.00  0.00     0.382 C 
ATOM     23  O   LIG d   1       6.769  90.435 118.256  0.00  0.00    -0.241 OA
ATOM     24  O   LIG d   1       4.781  91.066 118.815  0.00  0.00    -0.241 OA
ENDBRANCH   3  22
TORSDOF 7
ENDMDL
MODEL 2
REMARK VINA RESULT:      -4.8      1.218      2.228
REMARK  7 active torsions:
REMARK  status: ('A' for Active; 'I' for Inactive)
REMARK    1  A    between atoms: C_2  and  C_3 
REMARK    2  A    between atoms: C_3  and  O_6 
REMARK    3  A    between atoms: C_3  and  C_4 
REMARK    4  A    between atoms: C_7  and  O_6 
REMARK    5  A    between atoms: C_9  and  C_10 
REMARK    6  A    between atoms: N_15  and  C_14 
REMARK    7  A    between atoms: N_20  and  C_19 
REMARK       I    between atoms: C_22  and  N_20 
ROOT
ATOM      1  C   LIG d   1       4.439  87.705 115.847  0.00  0.00     0.161 C 
ATOM      2  C   LIG d   1       5.301  88.319 116.771  0.00  0.00     0.016 C 
ATOM      3  C   LIG d   1       6.198  89.356 116.428  0.00  0.00     0.038 C 
ATOM      4  C   LIG d   1       6.187  89.957 115.160  0.00  0.00     0.028 C 
ATOM      5  C   LIG d   1       5.688  89.032 114.055  0.00  0.00    -0.047 C 
ATOM      6  C   LIG d   1       4.334  88.423 114.485  0.00  0.00     0.091 C 
ENDROOT
BRANCH   1   7
ATOM      7  O   LIG d   1       3.131  87.544 116.431  0.00  0.00    -0.368 OA
BRANCH   7   8
ATOM      8  C   LIG d   1       2.149  88.551 116.083  0.00  0.00     0.119 C 
BRANCH   8   9
ATOM      9  C   LIG d   1       2.205  89.645 117.167  0.00  0.00     0.028 C 
ATOM     10  C   LIG d   1       2.605  91.016 116.597  0.00  0.00     0.006 C 
ENDBRANCH   8   9
BRANCH   8  11
ATOM     11  C   LIG d   1       0.727  87.988 116.148  0.00  0.00     0.028 C 
ATOM     12  C   LIG d   1       0.599  86.612 115.475  0.00  0.00     0.006 C 
ENDBRANCH   8  11
ENDBRANCH   7   8
ENDBRANCH   1   7
BRANCH   6  13
ATOM     13  N   LIG d   1       3.815  87.440 113.498  0.00  0.00    -0.311 N 
ATOM     14  C   LIG d   1       3.072  87.780 112.446  0.00  0.00     0.210 C 
ATOM     15  C   LIG d   1       2.625  86.609 111.565  0.00  0.00     0.109 C 
ATOM     16  O   LIG d   1       2.768  88.943 112.141  0.00  0.00    -0.276 OA
ATOM     17  H   LIG d   1       4.041  86.477 113.652  0.00  0.00     0.149 HD
ENDBRANCH   6  13
BRANCH   5  18
ATOM     18  N   LIG d   1       5.597  89.826 112.816  0.00  0.00     0.381 N 
ATOM     19  H   LIG d   1       4.656  90.138 112.681  0.00  0.00    -0.090 HD
ATOM     20  H   LIG d   1       5.851  89.243 112.037  0.00  0.00    -0.090 HD
ATOM     21  H   LIG d   1       6.210  90.610 112.867  0.00  0.00    -0.090 HD
ENDBRANCH   5  18
BRANCH   3  22
ATOM     22  C   LIG d   1       7.148  89.776 117.347  0.00  0.00     0.382 C 
ATOM     23  O   LIG d   1       6.791  90.384 118.384  0.00  0.00    -0.241 OA
ATOM     24  O   LIG d   1       8.361  89.592 117.130  0.00  0.00    -0.241 OA
ENDBRANCH   3  22
TORSDOF 7
ENDMDL
MODEL 3
REMARK VINA RESULT:      -4.8      2.187      4.905
REMARK  7 active torsions:
REMARK  status: ('A' for Active; 'I' for Inactive)
REMARK    1  A    between atoms: C_2  and  C_3 
REMARK    2  A    between atoms: C_3  and  O_6 
REMARK    3  A    between atoms: C_3  and  C_4 
REMARK    4  A    between atoms: C_7  and  O_6 
REMARK    5  A    between atoms: C_9  and  C_10 
REMARK    6  A    between atoms: N_15  and  C_14 
REMARK    7  A    between atoms: N_20  and  C_19 
REMARK       I    between atoms: C_22  and  N_20 
ROOT
ATOM      1  C   LIG d   1       3.108  89.933 116.055  0.00  0.00     0.161 C 
ATOM      2  C   LIG d   1       2.927  89.440 114.752  0.00  0.00     0.016 C 
ATOM      3  C   LIG d   1       3.991  88.997 113.933  0.00  0.00     0.038 C 
ATOM      4  C   LIG d   1       5.301  88.875 114.421  0.00  0.00     0.028 C 
ATOM      5  C   LIG d   1       5.614  89.835 115.563  0.00  0.00    -0.047 C 
ATOM      6  C   LIG d   1       4.516  89.704 116.644  0.00  0.00     0.091 C 
ENDROOT
BRANCH   1   7
ATOM      7  O   LIG d   1       2.103  89.383 116.930  0.00  0.00    -0.368 OA
BRANCH   7   8
ATOM      8  C   LIG d   1       0.777  89.956 116.818  0.00  0.00     0.119 C 
BRANCH   8   9
ATOM      9  C   LIG d   1       0.639  91.022 117.921  0.00  0.00     0.028 C 
ATOM     10  C   LIG d   1       0.518  92.445 117.350  0.00  0.00     0.006 C 
ENDBRANCH   8   9
BRANCH   8  11
ATOM     11  C   LIG d   1      -0.306  88.916 117.120  0.00  0.00     0.028 C 
ATOM     12  C   LIG d   1      -1.639  89.552 117.547  0.00  0.00     0.006 C 
ENDBRANCH   8  11
ENDBRANCH   7   8
ENDBRANCH   1   7
BRANCH   6  13
ATOM     13  N   LIG d   1       4.700  90.669 117.759  0.00  0.00    -0.311 N 
ATOM     14  C   LIG d   1       4.384  91.960 117.670  0.00  0.00     0.210 C 
ATOM     15  C   LIG d   1       4.673  92.784 118.929  0.00  0.00     0.109 C 
ATOM     16  O   LIG d   1       3.863  92.495 116.680  0.00  0.00    -0.276 OA
ATOM     17  H   LIG d   1       5.088  90.314 118.610  0.00  0.00     0.149 HD
ENDBRANCH   6  13
BRANCH   5  18
ATOM     18  N   LIG d   1       6.961  89.506 116.065  0.00  0.00     0.381 N 
ATOM     19  H   LIG d   1       7.625  89.571 115.320  0.00  0.00    -0.090 HD
ATOM     20  H   LIG d   1       6.960  88.560 116.405  0.00  0.00    -0.090 HD
ATOM     21  H   LIG d   1       7.213  90.130 116.800  0.00  0.00    -0.090 HD
ENDBRANCH   5  18
BRANCH   3  22
ATOM     22  C   LIG d   1       3.756  88.707 112.598  0.00  0.00     0.382 C 
ATOM     23  O   LIG d   1       2.629  88.937 112.096  0.00  0.00    -0.241 OA
ATOM     24  O   LIG d   1       4.642  88.178 111.900  0.00  0.00    -0.241 OA
ENDBRANCH   3  22
TORSDOF 7
ENDMDL
MODEL 4
REMARK VINA RESULT:      -4.7      1.424      1.838
REMARK  7 active torsions:
REMARK  status: ('A' for Active; 'I' for Inactive)
REMARK    1  A    between atoms: C_2  and  C_3 
REMARK    2  A    between atoms: C_3  and  O_6 
REMARK    3  A    between atoms: C_3  and  C_4 
REMARK    4  A    between atoms: C_7  and  O_6 
REMARK    5  A    between atoms: C_9  and  C_10 
REMARK    6  A    between atoms: N_15  and  C_14 
REMARK    7  A    between atoms: N_20  and  C_19 
REMARK       I    between atoms: C_22  and  N_20 
ROOT
ATOM      1  C   LIG d   1       3.218  89.122 115.230  0.00  0.00     0.161 C 
ATOM      2  C   LIG d   1       3.933  89.315 116.424  0.00  0.00     0.016 C 
ATOM      3  C   LIG d   1       5.311  89.628 116.465  0.00  0.00     0.038 C 
ATOM      4  C   LIG d   1       6.040  89.919 115.302  0.00  0.00     0.028 C 
ATOM      5  C   LIG d   1       5.483  89.243 114.053  0.00  0.00    -0.047 C 
ATOM      6  C   LIG d   1       3.971  89.545 113.951  0.00  0.00     0.091 C 
ENDROOT
BRANCH   1   7
ATOM      7  O   LIG d   1       1.946  89.794 115.308  0.00  0.00    -0.368 OA
BRANCH   7   8
ATOM      8  C   LIG d   1       1.330  89.843 116.619  0.00  0.00     0.119 C 
BRANCH   8   9
ATOM      9  C   LIG d   1       0.260  88.736 116.669  0.00  0.00     0.028 C 
ATOM     10  C   LIG d   1      -1.007  89.177 117.421  0.00  0.00     0.006 C 
ENDBRANCH   8   9
BRANCH   8  11
ATOM     11  C   LIG d   1       0.566  91.154 116.827  0.00  0.00     0.028 C 
ATOM     12  C   LIG d   1       1.385  92.205 117.593  0.00  0.00     0.006 C 
ENDBRANCH   8  11
ENDBRANCH   7   8
ENDBRANCH   1   7
BRANCH   6  13
ATOM     13  N   LIG d   1       3.331  88.851 112.803  0.00  0.00    -0.311 N 
ATOM     14  C   LIG d   1       3.147  87.533 112.752  0.00  0.00     0.210 C 
ATOM     15  C   LIG d   1       2.487  87.021 111.469  0.00  0.00     0.109 C 
ATOM     16  O   LIG d   1       3.440  86.743 113.662  0.00  0.00    -0.276 OA
ATOM     17  H   LIG d   1       3.034  89.420 112.034  0.00  0.00     0.149 HD
ENDBRANCH   6  13
BRANCH   5  18
ATOM     18  N   LIG d   1       6.252  89.741 112.897  0.00  0.00     0.381 N 
ATOM     19  H   LIG d   1       6.679  90.616 113.126  0.00  0.00    -0.090 HD
ATOM     20  H   LIG d   1       5.623  89.888 112.128  0.00  0.00    -0.090 HD
ATOM     21  H   LIG d   1       6.951  89.079 112.642  0.00  0.00    -0.090 HD
ENDBRANCH   5  18
BRANCH   3  22
ATOM     22  C   LIG d   1       5.984  89.612 117.677  0.00  0.00     0.382 C 
ATOM     23  O   LIG d   1       5.971  88.578 118.388  0.00  0.00    -0.241 OA
ATOM     24  O   LIG d   1       6.566  90.633 118.090  0.00  0.00    -0.241 OA
ENDBRANCH   3  22
TORSDOF 7
ENDMDL
MODEL 5
REMARK VINA RESULT:      -4.6      2.542      5.043
REMARK  7 active torsions:
REMARK  status: ('A' for Active; 'I' for Inactive)
REMARK    1  A    between atoms: C_2  and  C_3 
REMARK    2  A    between atoms: C_3  and  O_6 
REMARK    3  A    between atoms: C_3  and  C_4 
REMARK    4  A    between atoms: C_7  and  O_6 
REMARK    5  A    between atoms: C_9  and  C_10 
REMARK    6  A    between atoms: N_15  and  C_14 
REMARK    7  A    between atoms: N_20  and  C_19 
REMARK       I    between atoms: C_22  and  N_20 
ROOT
ATOM      1  C   LIG d   1       4.015  89.004 116.424  0.00  0.00     0.161 C 
ATOM      2  C   LIG d   1       2.767  89.606 116.191  0.00  0.00     0.016 C 
ATOM      3  C   LIG d   1       2.440  90.912 116.623  0.00  0.00     0.038 C 
ATOM      4  C   LIG d   1       3.398  91.767 117.189  0.00  0.00     0.028 C 
ATOM      5  C   LIG d   1       4.526  91.027 117.899  0.00  0.00    -0.047 C 
ATOM      6  C   LIG d   1       5.108  89.962 116.942  0.00  0.00     0.091 C 
ENDROOT
BRANCH   1   7
ATOM      7  O   LIG d   1       4.463  88.330 115.231  0.00  0.00    -0.368 OA
BRANCH   7   8
ATOM      8  C   LIG d   1       3.626  88.485 114.059  0.00  0.00     0.119 C 
BRANCH   8   9
ATOM      9  C   LIG d   1       3.339  87.076 113.506  0.00  0.00     0.028 C 
ATOM     10  C   LIG d   1       3.332  87.039 111.968  0.00  0.00     0.006 C 
ENDBRANCH   8   9
BRANCH   8  11
ATOM     11  C   LIG d   1       4.367  89.218 112.937  0.00  0.00     0.028 C 
ATOM     12  C   LIG d   1       5.815  89.571 113.312  0.00  0.00     0.006 C 
ENDBRANCH   8  11
ENDBRANCH   7   8
ENDBRANCH   1   7
BRANCH   6  13
ATOM     13  N   LIG d   1       6.161  89.135 117.587  0.00  0.00    -0.311 N 
ATOM     14  C   LIG d   1       7.459  89.434 117.541  0.00  0.00     0.210 C 
ATOM     15  C   LIG d   1       8.377  88.437 118.255  0.00  0.00     0.109 C 
ATOM     16  O   LIG d   1       7.933  90.446 117.004  0.00  0.00    -0.276 OA
ATOM     17  H   LIG d   1       5.862  88.311 118.071  0.00  0.00     0.149 HD
ENDBRANCH   6  13
BRANCH   5  18
ATOM     18  N   LIG d   1       5.521  92.031 118.321  0.00  0.00     0.381 N 
ATOM     19  H   LIG d   1       5.168  92.951 118.149  0.00  0.00    -0.090 HD
ATOM     20  H   LIG d   1       6.357  91.908 117.778  0.00  0.00    -0.090 HD
ATOM     21  H   LIG d   1       5.726  91.921 119.290  0.00  0.00    -0.090 HD
ENDBRANCH   5  18
BRANCH   3  22
ATOM     22  C   LIG d   1       1.132  91.361 116.525  0.00  0.00     0.382 C 
ATOM     23  O   LIG d   1       0.841  92.527 116.883  0.00  0.00    -0.241 OA
ATOM     24  O   LIG d   1       0.231  90.599 116.126  0.00  0.00    -0.241 OA
ENDBRANCH   3  22
TORSDOF 7
ENDMDL
MODEL 6
REMARK VINA RESULT:      -4.4      1.881      5.167
REMARK  7 active torsions:
REMARK  status: ('A' for Active; 'I' for Inactive)
REMARK    1  A    between atoms: C_2  and  C_3 
REMARK    2  A    between atoms: C_3  and  O_6 
REMARK    3  A    between atoms: C_3  and  C_4 
REMARK    4  A    between atoms: C_7  and  O_6 
REMARK    5  A    between atoms: C_9  and  C_10 
REMARK    6  A    between atoms: N_15  and  C_14 
REMARK    7  A    between atoms: N_20  and  C_19 
REMARK       I    between atoms: C_22  and  N_20 
ROOT
ATOM      1  C   LIG d   1       3.496  88.191 115.209  0.00  0.00     0.161 C 
ATOM      2  C   LIG d   1       2.898  87.436 114.186  0.00  0.00     0.016 C 
ATOM      3  C   LIG d   1       3.335  87.464 112.841  0.00  0.00     0.038 C 
ATOM      4  C   LIG d   1       4.503  88.138 112.455  0.00  0.00     0.028 C 
ATOM      5  C   LIG d   1       4.847  89.319 113.356  0.00  0.00    -0.047 C 
ATOM      6  C   LIG d   1       4.840  88.846 114.828  0.00  0.00     0.091 C 
ENDROOT
BRANCH   1   7
ATOM      7  O   LIG d   1       3.651  87.378 116.389  0.00  0.00    -0.368 OA
BRANCH   7   8
ATOM      8  C   LIG d   1       2.611  87.502 117.389  0.00  0.00     0.119 C 
BRANCH   8   9
ATOM      9  C   LIG d   1       2.232  88.992 117.482  0.00  0.00     0.028 C 
ATOM     10  C   LIG d   1       0.871  89.211 118.163  0.00  0.00     0.006 C 
ENDBRANCH   8   9
BRANCH   8  11
ATOM     11  C   LIG d   1       3.129  87.127 118.781  0.00  0.00     0.028 C 
ATOM     12  C   LIG d   1       4.616  86.740 118.779  0.00  0.00     0.006 C 
ENDBRANCH   8  11
ENDBRANCH   7   8
ENDBRANCH   1   7
BRANCH   6  13
ATOM     13  N   LIG d   1       5.085  89.958 115.782  0.00  0.00    -0.311 N 
ATOM     14  C   LIG d   1       6.012  89.915 116.738  0.00  0.00     0.210 C 
ATOM     15  C   LIG d   1       6.085  91.161 117.626  0.00  0.00     0.109 C 
ATOM     16  O   LIG d   1       6.802  88.975 116.913  0.00  0.00    -0.276 OA
ATOM     17  H   LIG d   1       4.509  90.772 115.691  0.00  0.00     0.149 HD
ENDBRANCH   6  13
BRANCH   5  18
ATOM     18  N   LIG d   1       6.156  89.843 112.924  0.00  0.00     0.381 N 
ATOM     19  H   LIG d   1       6.042  90.754 112.528  0.00  0.00    -0.090 HD
ATOM     20  H   LIG d   1       6.531  89.236 112.216  0.00  0.00    -0.090 HD
ATOM     21  H   LIG d   1       6.780  89.886 113.700  0.00  0.00    -0.090 HD
ENDBRANCH   5  18
BRANCH   3  22
ATOM     22  C   LIG d   1       2.576  86.844 111.860  0.00  0.00     0.382 C 
ATOM     23  O   LIG d   1       1.535  87.397 111.430  0.00  0.00    -0.241 OA
ATOM     24  O   LIG d   1       2.896  85.720 111.430  0.00  0.00    -0.241 OA
ENDBRANCH   3  22
TORSDOF 7
ENDMDL
MODEL 7
REMARK VINA RESULT:      -4.3      2.555      4.420
REMARK  7 active torsions:
REMARK  status: ('A' for Active; 'I' for Inactive)
REMARK    1  A    between atoms: C_2  and  C_3 
REMARK    2  A    between atoms: C_3  and  O_6 
REMARK    3  A    between atoms: C_3  and  C_4 
REMARK    4  A    between atoms: C_7  and  O_6 
REMARK    5  A    between atoms: C_9  and  C_10 
REMARK    6  A    between atoms: N_15  and  C_14 
REMARK    7  A    between atoms: N_20  and  C_19 
REMARK       I    between atoms: C_22  and  N_20 
ROOT
ATOM      1  C   LIG d   1       2.476  88.520 115.545  0.00  0.00     0.161 C 
ATOM      2  C   LIG d   1       3.825  88.663 115.181  0.00  0.00     0.016 C 
ATOM      3  C   LIG d   1       4.653  89.705 115.657  0.00  0.00     0.038 C 
ATOM      4  C   LIG d   1       4.227  90.594 116.654  0.00  0.00     0.028 C 
ATOM      5  C   LIG d   1       2.715  90.797 116.679  0.00  0.00    -0.047 C 
ATOM      6  C   LIG d   1       2.024  89.415 116.718  0.00  0.00     0.091 C 
ENDROOT
BRANCH   1   7
ATOM      7  O   LIG d   1       2.191  87.137 115.832  0.00  0.00    -0.368 OA
BRANCH   7   8
ATOM      8  C   LIG d   1       1.564  86.380 114.767  0.00  0.00     0.119 C 
BRANCH   8   9
ATOM      9  C   LIG d   1       0.501  85.469 115.410  0.00  0.00     0.028 C 
ATOM     10  C   LIG d   1      -0.835  85.497 114.647  0.00  0.00     0.006 C 
ENDBRANCH   8   9
BRANCH   8  11
ATOM     11  C   LIG d   1       2.561  85.430 114.097  0.00  0.00     0.028 C 
ATOM     12  C   LIG d   1       3.005  85.916 112.708  0.00  0.00     0.006 C 
ENDBRANCH   8  11
ENDBRANCH   7   8
ENDBRANCH   1   7
BRANCH   6  13
ATOM     13  N   LIG d   1       0.543  89.520 116.659  0.00  0.00    -0.311 N 
ATOM     14  C   LIG d   1      -0.240  89.460 117.736  0.00  0.00     0.210 C 
ATOM     15  C   LIG d   1      -1.741  89.570 117.450  0.00  0.00     0.109 C 
ATOM     16  O   LIG d   1       0.169  89.359 118.902  0.00  0.00    -0.276 OA
ATOM     17  H   LIG d   1       0.129  89.636 115.755  0.00  0.00     0.149 HD
ENDBRANCH   6  13
BRANCH   5  18
ATOM     18  N   LIG d   1       2.398  91.636 117.850  0.00  0.00     0.381 N 
ATOM     19  H   LIG d   1       2.603  91.135 118.691  0.00  0.00    -0.090 HD
ATOM     20  H   LIG d   1       1.415  91.848 117.841  0.00  0.00    -0.090 HD
ATOM     21  H   LIG d   1       2.927  92.479 117.820  0.00  0.00    -0.090 HD
ENDBRANCH   5  18
BRANCH   3  22
ATOM     22  C   LIG d   1       5.911  89.890 115.104  0.00  0.00     0.382 C 
ATOM     23  O   LIG d   1       6.887  90.166 115.843  0.00  0.00    -0.241 OA
ATOM     24  O   LIG d   1       6.075  89.828 113.870  0.00  0.00    -0.241 OA
ENDBRANCH   3  22
TORSDOF 7
ENDMDL
MODEL 8
REMARK VINA RESULT:      -4.3      2.596      5.198
REMARK  7 active torsions:
REMARK  status: ('A' for Active; 'I' for Inactive)
REMARK    1  A    between atoms: C_2  and  C_3 
REMARK    2  A    between atoms: C_3  and  O_6 
REMARK    3  A    between atoms: C_3  and  C_4 
REMARK    4  A    between atoms: C_7  and  O_6 
REMARK    5  A    between atoms: C_9  and  C_10 
REMARK    6  A    between atoms: N_15  and  C_14 
REMARK    7  A    between atoms: N_20  and  C_19 
REMARK       I    between atoms: C_22  and  N_20 
ROOT
ATOM      1  C   LIG d   1       1.257  88.901 117.061  0.00  0.00     0.161 C 
ATOM      2  C   LIG d   1       0.566  87.944 116.300  0.00  0.00     0.016 C 
ATOM      3  C   LIG d   1       1.211  86.961 115.515  0.00  0.00     0.038 C 
ATOM      4  C   LIG d   1       2.601  86.773 115.557  0.00  0.00     0.028 C 
ATOM      5  C   LIG d   1       3.372  88.038 115.918  0.00  0.00    -0.047 C 
ATOM      6  C   LIG d   1       2.771  88.642 117.207  0.00  0.00     0.091 C 
ENDROOT
BRANCH   1   7
ATOM      7  O   LIG d   1       0.643  89.029 118.359  0.00  0.00    -0.368 OA
BRANCH   7   8
ATOM      8  C   LIG d   1      -0.045  90.278 118.619  0.00  0.00     0.119 C 
BRANCH   8   9
ATOM      9  C   LIG d   1      -1.516  89.940 118.930  0.00  0.00     0.028 C 
ATOM     10  C   LIG d   1      -2.317  89.589 117.665  0.00  0.00     0.006 C 
ENDBRANCH   8   9
BRANCH   8  11
ATOM     11  C   LIG d   1      -0.087  91.161 117.368  0.00  0.00     0.028 C 
ATOM     12  C   LIG d   1       0.321  92.615 117.652  0.00  0.00     0.006 C 
ENDBRANCH   8  11
ENDBRANCH   7   8
ENDBRANCH   1   7
BRANCH   6  13
ATOM     13  N   LIG d   1       3.413  89.928 117.584  0.00  0.00    -0.311 N 
ATOM     14  C   LIG d   1       3.569  90.945 116.738  0.00  0.00     0.210 C 
ATOM     15  C   LIG d   1       4.275  92.172 117.325  0.00  0.00     0.109 C 
ATOM     16  O   LIG d   1       3.161  90.960 115.567  0.00  0.00    -0.276 OA
ATOM     17  H   LIG d   1       3.746  90.013 118.525  0.00  0.00     0.149 HD
ENDBRANCH   6  13
BRANCH   5  18
ATOM     18  N   LIG d   1       4.793  87.668 116.061  0.00  0.00     0.381 N 
ATOM     19  H   LIG d   1       4.880  86.895 116.691  0.00  0.00    -0.090 HD
ATOM     20  H   LIG d   1       5.295  88.448 116.447  0.00  0.00    -0.090 HD
ATOM     21  H   LIG d   1       5.173  87.425 115.172  0.00  0.00    -0.090 HD
ENDBRANCH   5  18
BRANCH   3  22
ATOM     22  C   LIG d   1       0.467  86.179 114.645  0.00  0.00     0.382 C 
ATOM     23  O   LIG d   1      -0.436  85.430 115.091  0.00  0.00    -0.241 OA
ATOM     24  O   LIG d   1       0.715  86.180 113.424  0.00  0.00    -0.241 OA
ENDBRANCH   3  22
TORSDOF 7
ENDMDL
MODEL 9
REMARK VINA RESULT:      -4.2      3.553      6.178
REMARK  7 active torsions:
REMARK  status: ('A' for Active; 'I' for Inactive)
REMARK    1  A    between atoms: C_2  and  C_3 
REMARK    2  A    between atoms: C_3  and  O_6 
REMARK    3  A    between atoms: C_3  and  C_4 
REMARK    4  A    between atoms: C_7  and  O_6 
REMARK    5  A    between atoms: C_9  and  C_10 
REMARK    6  A    between atoms: N_15  and  C_14 
REMARK    7  A    between atoms: N_20  and  C_19 
REMARK       I    between atoms: C_22  and  N_20 
ROOT
ATOM      1  C   LIG d   1       0.829  91.080 116.938  0.00  0.00     0.161 C 
ATOM      2  C   LIG d   1       0.357  92.312 117.418  0.00  0.00     0.016 C 
ATOM      3  C   LIG d   1      -0.930  92.488 117.978  0.00  0.00     0.038 C 
ATOM      4  C   LIG d   1      -1.781  91.403 118.236  0.00  0.00     0.028 C 
ATOM      5  C   LIG d   1      -1.548  90.217 117.306  0.00  0.00    -0.047 C 
ATOM      6  C   LIG d   1      -0.043  89.863 117.312  0.00  0.00     0.091 C 
ENDROOT
BRANCH   1   7
ATOM      7  O   LIG d   1       2.188  90.874 117.372  0.00  0.00    -0.368 OA
BRANCH   7   8
ATOM      8  C   LIG d   1       3.222  91.373 116.488  0.00  0.00     0.119 C 
BRANCH   8   9
ATOM      9  C   LIG d   1       4.030  90.160 115.989  0.00  0.00     0.028 C 
ATOM     10  C   LIG d   1       3.611  89.717 114.577  0.00  0.00     0.006 C 
ENDBRANCH   8   9
BRANCH   8  11
ATOM     11  C   LIG d   1       4.227  92.247 117.245  0.00  0.00     0.028 C 
ATOM     12  C   LIG d   1       5.430  91.449 117.772  0.00  0.00     0.006 C 
ENDBRANCH   8  11
ENDBRANCH   7   8
ENDBRANCH   1   7
BRANCH   6  13
ATOM     13  N   LIG d   1       0.285  88.766 116.364  0.00  0.00    -0.311 N 
ATOM     14  C   LIG d   1       1.166  87.805 116.633  0.00  0.00     0.210 C 
ATOM     15  C   LIG d   1       1.370  86.783 115.510  0.00  0.00     0.109 C 
ATOM     16  O   LIG d   1       1.775  87.683 117.706  0.00  0.00    -0.276 OA
ATOM     17  H   LIG d   1      -0.187  88.770 115.481  0.00  0.00     0.149 HD
ENDBRANCH   6  13
BRANCH   5  18
ATOM     18  N   LIG d   1      -2.404  89.110 117.773  0.00  0.00     0.381 N 
ATOM     19  H   LIG d   1      -1.875  88.262 117.804  0.00  0.00    -0.090 HD
ATOM     20  H   LIG d   1      -3.160  88.987 117.122  0.00  0.00    -0.090 HD
ATOM     21  H   LIG d   1      -2.766  89.318 118.678  0.00  0.00    -0.090 HD
ENDBRANCH   5  18
BRANCH   3  22
ATOM     22  C   LIG d   1      -1.392  93.767 118.250  0.00  0.00     0.382 C 
ATOM     23  O   LIG d   1      -2.550  93.932 118.703  0.00  0.00    -0.241 OA
ATOM     24  O   LIG d   1      -0.681  94.761 118.006  0.00  0.00    -0.241 OA
ENDBRANCH   3  22
TORSDOF 7
ENDMDL
