MODEL 1
REMARK VINA RESULT:      -4.6      0.000      0.000
REMARK  7 active torsions:
REMARK  status: ('A' for Active; 'I' for Inactive)
REMARK    1  A    between atoms: C_2  and  C_3 
REMARK    2  A    between atoms: C_3  and  O_6 
REMARK    3  A    between atoms: C_3  and  C_4 
REMARK    4  A    between atoms: C_7  and  O_6 
REMARK    5  A    between atoms: C_9  and  C_10 
REMARK    6  A    between atoms: N_15  and  C_14 
REMARK    7  A    between atoms: N_20  and  C_19 
REMARK       I    between atoms: C_22  and  N_20 
ROOT
ATOM      1  C   LIG d   1       3.633  87.465 115.253  0.00  0.00     0.161 C 
ATOM      2  C   LIG d   1       2.716  86.965 114.313  0.00  0.00     0.016 C 
ATOM      3  C   LIG d   1       3.004  86.840 112.935  0.00  0.00     0.038 C 
ATOM      4  C   LIG d   1       4.290  87.068 112.422  0.00  0.00     0.028 C 
ATOM      5  C   LIG d   1       5.105  88.056 113.249  0.00  0.00    -0.047 C 
ATOM      6  C   LIG d   1       5.077  87.613 114.730  0.00  0.00     0.091 C 
ENDROOT
BRANCH   1   7
ATOM      7  O   LIG d   1       3.611  86.647 116.440  0.00  0.00    -0.368 OA
BRANCH   7   8
ATOM      8  C   LIG d   1       3.088  87.275 117.636  0.00  0.00     0.119 C 
BRANCH   8   9
ATOM      9  C   LIG d   1       1.644  86.771 117.829  0.00  0.00     0.028 C 
ATOM     10  C   LIG d   1       0.597  87.798 117.365  0.00  0.00     0.006 C 
ENDBRANCH   8   9
BRANCH   8  11
ATOM     11  C   LIG d   1       2.968  88.792 117.463  0.00  0.00     0.028 C 
ATOM     12  C   LIG d   1       3.613  89.576 118.617  0.00  0.00     0.006 C 
ENDBRANCH   8  11
ENDBRANCH   7   8
ENDBRANCH   1   7
BRANCH   6  13
ATOM     13  N   LIG d   1       5.781  88.572 115.622  0.00  0.00    -0.311 N 
ATOM     14  C   LIG d   1       6.624  88.196 116.582  0.00  0.00     0.210 C 
ATOM     15  C   LIG d   1       7.226  89.344 117.399  0.00  0.00     0.109 C 
ATOM     16  O   LIG d   1       6.955  87.024 116.814  0.00  0.00    -0.276 OA
ATOM     17  H   LIG d   1       5.595  89.546 115.482  0.00  0.00     0.149 HD
ENDBRANCH   6  13
BRANCH   5  18
ATOM     18  N   LIG d   1       6.467  88.094 112.683  0.00  0.00     0.381 N 
ATOM     19  H   LIG d   1       6.417  88.152 111.685  0.00  0.00    -0.090 HD
ATOM     20  H   LIG d   1       6.944  87.244 112.926  0.00  0.00    -0.090 HD
ATOM     21  H   LIG d   1       6.964  88.878 113.044  0.00  0.00    -0.090 HD
ENDBRANCH   5  18
BRANCH   3  22
ATOM     22  C   LIG d   1       1.987  86.523 112.046  0.00  0.00     0.382 C 
ATOM     23  O   LIG d   1       2.012  85.430 111.430  0.00  0.00    -0.241 OA
ATOM     24  O   LIG d   1       1.070  87.334 111.820  0.00  0.00    -0.241 OA
ENDBRANCH   3  22
TORSDOF 7
ENDMDL
MODEL 2
REMARK VINA RESULT:      -4.3      2.580      4.579
REMARK  7 active torsions:
REMARK  status: ('A' for Active; 'I' for Inactive)
REMARK    1  A    between atoms: C_2  and  C_3 
REMARK    2  A    between atoms: C_3  and  O_6 
REMARK    3  A    between atoms: C_3  and  C_4 
REMARK    4  A    between atoms: C_7  and  O_6 
REMARK    5  A    between atoms: C_9  and  C_10 
REMARK    6  A    between atoms: N_15  and  C_14 
REMARK    7  A    between atoms: N_20  and  C_19 
REMARK       I    between atoms: C_22  and  N_20 
ROOT
ATOM      1  C   LIG d   1       4.623  87.911 116.997  0.00  0.00     0.161 C 
ATOM      2  C   LIG d   1       3.743  88.977 116.746  0.00  0.00     0.016 C 
ATOM      3  C   LIG d   1       4.161  90.324 116.647  0.00  0.00     0.038 C 
ATOM      4  C   LIG d   1       5.517  90.681 116.641  0.00  0.00     0.028 C 
ATOM      5  C   LIG d   1       6.406  89.697 117.396  0.00  0.00    -0.047 C 
ATOM      6  C   LIG d   1       6.120  88.268 116.883  0.00  0.00     0.091 C 
ENDROOT
BRANCH   1   7
ATOM      7  O   LIG d   1       4.305  86.801 116.133  0.00  0.00    -0.368 OA
BRANCH   7   8
ATOM      8  C   LIG d   1       3.680  87.136 114.870  0.00  0.00     0.119 C 
BRANCH   8   9
ATOM      9  C   LIG d   1       2.574  86.094 114.611  0.00  0.00     0.028 C 
ATOM     10  C   LIG d   1       2.042  86.149 113.169  0.00  0.00     0.006 C 
ENDBRANCH   8   9
BRANCH   8  11
ATOM     11  C   LIG d   1       4.661  86.983 113.704  0.00  0.00     0.028 C 
ATOM     12  C   LIG d   1       5.142  88.334 113.150  0.00  0.00     0.006 C 
ENDBRANCH   8  11
ENDBRANCH   7   8
ENDBRANCH   1   7
BRANCH   6  13
ATOM     13  N   LIG d   1       6.886  87.235 117.628  0.00  0.00    -0.311 N 
ATOM     14  C   LIG d   1       7.790  86.439 117.058  0.00  0.00     0.210 C 
ATOM     15  C   LIG d   1       8.451  85.430 118.002  0.00  0.00     0.109 C 
ATOM     16  O   LIG d   1       8.130  86.495 115.866  0.00  0.00    -0.276 OA
ATOM     17  H   LIG d   1       6.696  87.142 118.606  0.00  0.00     0.149 HD
ENDBRANCH   6  13
BRANCH   5  18
ATOM     18  N   LIG d   1       7.806  90.116 117.194  0.00  0.00     0.381 N 
ATOM     19  H   LIG d   1       8.257  90.229 118.079  0.00  0.00    -0.090 HD
ATOM     20  H   LIG d   1       7.815  91.001 116.719  0.00  0.00    -0.090 HD
ATOM     21  H   LIG d   1       8.290  89.435 116.651  0.00  0.00    -0.090 HD
ENDBRANCH   5  18
BRANCH   3  22
ATOM     22  C   LIG d   1       3.213  91.335 116.591  0.00  0.00     0.382 C 
ATOM     23  O   LIG d   1       3.578  92.531 116.500  0.00  0.00    -0.241 OA
ATOM     24  O   LIG d   1       1.999  91.068 116.676  0.00  0.00    -0.241 OA
ENDBRANCH   3  22
TORSDOF 7
ENDMDL
MODEL 3
REMARK VINA RESULT:      -4.2      9.083     11.578
REMARK  7 active torsions:
REMARK  status: ('A' for Active; 'I' for Inactive)
REMARK    1  A    between atoms: C_2  and  C_3 
REMARK    2  A    between atoms: C_3  and  O_6 
REMARK    3  A    between atoms: C_3  and  C_4 
REMARK    4  A    between atoms: C_7  and  O_6 
REMARK    5  A    between atoms: C_9  and  C_10 
REMARK    6  A    between atoms: N_15  and  C_14 
REMARK    7  A    between atoms: N_20  and  C_19 
REMARK       I    between atoms: C_22  and  N_20 
ROOT
ATOM      1  C   LIG d   1      -6.013  91.789 118.400  0.00  0.00     0.161 C 
ATOM      2  C   LIG d   1      -6.699  93.014 118.434  0.00  0.00     0.016 C 
ATOM      3  C   LIG d   1      -6.050  94.267 118.533  0.00  0.00     0.038 C 
ATOM      4  C   LIG d   1      -4.655  94.387 118.452  0.00  0.00     0.028 C 
ATOM      5  C   LIG d   1      -3.911  93.143 118.925  0.00  0.00    -0.047 C 
ATOM      6  C   LIG d   1      -4.488  91.907 118.199  0.00  0.00     0.091 C 
ENDROOT
BRANCH   1   7
ATOM      7  O   LIG d   1      -6.587  90.935 117.391  0.00  0.00    -0.368 OA
BRANCH   7   8
ATOM      8  C   LIG d   1      -6.885  91.563 116.119  0.00  0.00     0.119 C 
BRANCH   8   9
ATOM      9  C   LIG d   1      -8.079  90.812 115.500  0.00  0.00     0.028 C 
ATOM     10  C   LIG d   1      -8.537  91.432 114.170  0.00  0.00     0.006 C 
ENDBRANCH   8   9
BRANCH   8  11
ATOM     11  C   LIG d   1      -5.733  91.382 115.125  0.00  0.00     0.028 C 
ATOM     12  C   LIG d   1      -5.197  89.942 115.091  0.00  0.00     0.006 C 
ENDBRANCH   8  11
ENDBRANCH   7   8
ENDBRANCH   1   7
BRANCH   6  13
ATOM     13  N   LIG d   1      -3.873  90.637 118.666  0.00  0.00    -0.311 N 
ATOM     14  C   LIG d   1      -2.708  90.177 118.214  0.00  0.00     0.210 C 
ATOM     15  C   LIG d   1      -2.265  88.838 118.813  0.00  0.00     0.109 C 
ATOM     16  O   LIG d   1      -1.983  90.766 117.398  0.00  0.00    -0.276 OA
ATOM     17  H   LIG d   1      -4.379  90.110 119.351  0.00  0.00     0.149 HD
ENDBRANCH   6  13
BRANCH   5  18
ATOM     18  N   LIG d   1      -2.476  93.354 118.658  0.00  0.00     0.381 N 
ATOM     19  H   LIG d   1      -2.125  94.083 119.245  0.00  0.00    -0.090 HD
ATOM     20  H   LIG d   1      -2.361  93.637 117.701  0.00  0.00    -0.090 HD
ATOM     21  H   LIG d   1      -1.971  92.511 118.825  0.00  0.00    -0.090 HD
ENDBRANCH   5  18
BRANCH   3  22
ATOM     22  C   LIG d   1      -6.799  95.413 118.754  0.00  0.00     0.382 C 
ATOM     23  O   LIG d   1      -8.040  95.329 118.920  0.00  0.00    -0.241 OA
ATOM     24  O   LIG d   1      -6.255  96.534 118.747  0.00  0.00    -0.241 OA
ENDBRANCH   3  22
TORSDOF 7
ENDMDL
MODEL 4
REMARK VINA RESULT:      -4.1      1.838      4.750
REMARK  7 active torsions:
REMARK  status: ('A' for Active; 'I' for Inactive)
REMARK    1  A    between atoms: C_2  and  C_3 
REMARK    2  A    between atoms: C_3  and  O_6 
REMARK    3  A    between atoms: C_3  and  C_4 
REMARK    4  A    between atoms: C_7  and  O_6 
REMARK    5  A    between atoms: C_9  and  C_10 
REMARK    6  A    between atoms: N_15  and  C_14 
REMARK    7  A    between atoms: N_20  and  C_19 
REMARK       I    between atoms: C_22  and  N_20 
ROOT
ATOM      1  C   LIG d   1       2.888  86.984 115.446  0.00  0.00     0.161 C 
ATOM      2  C   LIG d   1       4.104  87.342 116.053  0.00  0.00     0.016 C 
ATOM      3  C   LIG d   1       5.321  87.463 115.344  0.00  0.00     0.038 C 
ATOM      4  C   LIG d   1       5.375  87.382 113.944  0.00  0.00     0.028 C 
ATOM      5  C   LIG d   1       4.266  86.524 113.344  0.00  0.00    -0.047 C 
ATOM      6  C   LIG d   1       2.906  87.000 113.903  0.00  0.00     0.091 C 
ENDROOT
BRANCH   1   7
ATOM      7  O   LIG d   1       1.828  87.824 115.944  0.00  0.00    -0.368 OA
BRANCH   7   8
ATOM      8  C   LIG d   1       2.173  88.703 117.042  0.00  0.00     0.119 C 
BRANCH   8   9
ATOM      9  C   LIG d   1       1.187  88.419 118.191  0.00  0.00     0.028 C 
ATOM     10  C   LIG d   1       0.653  86.977 118.163  0.00  0.00     0.006 C 
ENDBRANCH   8   9
BRANCH   8  11
ATOM     11  C   LIG d   1       1.951  90.173 116.671  0.00  0.00     0.028 C 
ATOM     12  C   LIG d   1       1.479  91.023 117.861  0.00  0.00     0.006 C 
ENDBRANCH   8  11
ENDBRANCH   7   8
ENDBRANCH   1   7
BRANCH   6  13
ATOM     13  N   LIG d   1       1.774  86.159 113.432  0.00  0.00    -0.311 N 
ATOM     14  C   LIG d   1       1.089  86.410 112.318  0.00  0.00     0.210 C 
ATOM     15  C   LIG d   1      -0.052  85.431 112.026  0.00  0.00     0.109 C 
ATOM     16  O   LIG d   1       1.338  87.332 111.527  0.00  0.00    -0.276 OA
ATOM     17  H   LIG d   1       1.524  85.372 113.998  0.00  0.00     0.149 HD
ENDBRANCH   6  13
BRANCH   5  18
ATOM     18  N   LIG d   1       4.359  86.638 111.876  0.00  0.00     0.381 N 
ATOM     19  H   LIG d   1       3.445  86.748 111.486  0.00  0.00    -0.090 HD
ATOM     20  H   LIG d   1       4.759  85.792 111.510  0.00  0.00    -0.090 HD
ATOM     21  H   LIG d   1       4.929  87.417 111.630  0.00  0.00    -0.090 HD
ENDBRANCH   5  18
BRANCH   3  22
ATOM     22  C   LIG d   1       6.508  87.630 116.040  0.00  0.00     0.382 C 
ATOM     23  O   LIG d   1       6.592  88.503 116.938  0.00  0.00    -0.241 OA
ATOM     24  O   LIG d   1       7.510  86.948 115.752  0.00  0.00    -0.241 OA
ENDBRANCH   3  22
TORSDOF 7
ENDMDL
MODEL 5
REMARK VINA RESULT:      -3.9      9.283     11.897
REMARK  7 active torsions:
REMARK  status: ('A' for Active; 'I' for Inactive)
REMARK    1  A    between atoms: C_2  and  C_3 
REMARK    2  A    between atoms: C_3  and  O_6 
REMARK    3  A    between atoms: C_3  and  C_4 
REMARK    4  A    between atoms: C_7  and  O_6 
REMARK    5  A    between atoms: C_9  and  C_10 
REMARK    6  A    between atoms: N_15  and  C_14 
REMARK    7  A    between atoms: N_20  and  C_19 
REMARK       I    between atoms: C_22  and  N_20 
ROOT
ATOM      1  C   LIG d   1      -5.043  92.575 117.910  0.00  0.00     0.161 C 
ATOM      2  C   LIG d   1      -5.368  93.790 118.536  0.00  0.00     0.016 C 
ATOM      3  C   LIG d   1      -6.496  94.568 118.186  0.00  0.00     0.038 C 
ATOM      4  C   LIG d   1      -7.465  94.104 117.284  0.00  0.00     0.028 C 
ATOM      5  C   LIG d   1      -6.917  93.116 116.260  0.00  0.00    -0.047 C 
ATOM      6  C   LIG d   1      -6.149  91.999 117.002  0.00  0.00     0.091 C 
ENDROOT
BRANCH   1   7
ATOM      7  O   LIG d   1      -4.653  91.604 118.902  0.00  0.00    -0.368 OA
BRANCH   7   8
ATOM      8  C   LIG d   1      -3.304  91.086 118.791  0.00  0.00     0.119 C 
BRANCH   8   9
ATOM      9  C   LIG d   1      -2.562  91.946 117.749  0.00  0.00     0.028 C 
ATOM     10  C   LIG d   1      -1.080  91.558 117.616  0.00  0.00     0.006 C 
ENDBRANCH   8   9
BRANCH   8  11
ATOM     11  C   LIG d   1      -3.298  89.664 118.222  0.00  0.00     0.028 C 
ATOM     12  C   LIG d   1      -2.265  88.754 118.904  0.00  0.00     0.006 C 
ENDBRANCH   8  11
ENDBRANCH   7   8
ENDBRANCH   1   7
BRANCH   6  13
ATOM     13  N   LIG d   1      -5.508  91.035 116.069  0.00  0.00    -0.311 N 
ATOM     14  C   LIG d   1      -6.180  90.086 115.420  0.00  0.00     0.210 C 
ATOM     15  C   LIG d   1      -5.324  89.187 114.522  0.00  0.00     0.109 C 
ATOM     16  O   LIG d   1      -7.408  89.923 115.478  0.00  0.00    -0.276 OA
ATOM     17  H   LIG d   1      -4.519  91.116 115.938  0.00  0.00     0.149 HD
ENDBRANCH   6  13
BRANCH   5  18
ATOM     18  N   LIG d   1      -8.057  92.610 115.474  0.00  0.00     0.381 N 
ATOM     19  H   LIG d   1      -8.719  92.170 116.081  0.00  0.00    -0.090 HD
ATOM     20  H   LIG d   1      -7.723  91.923 114.821  0.00  0.00    -0.090 HD
ATOM     21  H   LIG d   1      -8.493  93.360 114.983  0.00  0.00    -0.090 HD
ENDBRANCH   5  18
BRANCH   3  22
ATOM     22  C   LIG d   1      -6.641  95.842 118.712  0.00  0.00     0.382 C 
ATOM     23  O   LIG d   1      -7.788  96.303 118.930  0.00  0.00    -0.241 OA
ATOM     24  O   LIG d   1      -5.642  96.554 118.930  0.00  0.00    -0.241 OA
ENDBRANCH   3  22
TORSDOF 7
ENDMDL
MODEL 6
REMARK VINA RESULT:      -3.9      1.850      2.274
REMARK  7 active torsions:
REMARK  status: ('A' for Active; 'I' for Inactive)
REMARK    1  A    between atoms: C_2  and  C_3 
REMARK    2  A    between atoms: C_3  and  O_6 
REMARK    3  A    between atoms: C_3  and  C_4 
REMARK    4  A    between atoms: C_7  and  O_6 
REMARK    5  A    between atoms: C_9  and  C_10 
REMARK    6  A    between atoms: N_15  and  C_14 
REMARK    7  A    between atoms: N_20  and  C_19 
REMARK       I    between atoms: C_22  and  N_20 
ROOT
ATOM      1  C   LIG d   1       3.655  88.798 116.189  0.00  0.00     0.161 C 
ATOM      2  C   LIG d   1       2.766  87.957 115.497  0.00  0.00     0.016 C 
ATOM      3  C   LIG d   1       3.189  86.933 114.619  0.00  0.00     0.038 C 
ATOM      4  C   LIG d   1       4.540  86.579 114.489  0.00  0.00     0.028 C 
ATOM      5  C   LIG d   1       5.498  87.728 114.780  0.00  0.00    -0.047 C 
ATOM      6  C   LIG d   1       5.132  88.354 116.145  0.00  0.00     0.091 C 
ENDROOT
BRANCH   1   7
ATOM      7  O   LIG d   1       3.218  88.952 117.554  0.00  0.00    -0.368 OA
BRANCH   7   8
ATOM      8  C   LIG d   1       2.645  90.237 117.898  0.00  0.00     0.119 C 
BRANCH   8   9
ATOM      9  C   LIG d   1       1.115  90.060 117.961  0.00  0.00     0.028 C 
ATOM     10  C   LIG d   1       0.393  90.777 116.809  0.00  0.00     0.006 C 
ENDBRANCH   8   9
BRANCH   8  11
ATOM     11  C   LIG d   1       2.888  91.270 116.794  0.00  0.00     0.028 C 
ATOM     12  C   LIG d   1       3.880  92.367 117.212  0.00  0.00     0.006 C 
ENDBRANCH   8  11
ENDBRANCH   7   8
ENDBRANCH   1   7
BRANCH   6  13
ATOM     13  N   LIG d   1       5.967  89.540 116.468  0.00  0.00    -0.311 N 
ATOM     14  C   LIG d   1       7.047  89.486 117.246  0.00  0.00     0.210 C 
ATOM     15  C   LIG d   1       7.753  90.828 117.467  0.00  0.00     0.109 C 
ATOM     16  O   LIG d   1       7.506  88.449 117.748  0.00  0.00    -0.276 OA
ATOM     17  H   LIG d   1       5.685  90.417 116.076  0.00  0.00     0.149 HD
ENDBRANCH   6  13
BRANCH   5  18
ATOM     18  N   LIG d   1       6.870  87.186 114.742  0.00  0.00     0.381 N 
ATOM     19  H   LIG d   1       6.838  86.186 114.731  0.00  0.00    -0.090 HD
ATOM     20  H   LIG d   1       7.357  87.477 115.570  0.00  0.00    -0.090 HD
ATOM     21  H   LIG d   1       7.346  87.519 113.933  0.00  0.00    -0.090 HD
ENDBRANCH   5  18
BRANCH   3  22
ATOM     22  C   LIG d   1       2.257  86.277 113.829  0.00  0.00     0.382 C 
ATOM     23  O   LIG d   1       1.060  86.207 114.199  0.00  0.00    -0.241 OA
ATOM     24  O   LIG d   1       2.606  85.716 112.774  0.00  0.00    -0.241 OA
ENDBRANCH   3  22
TORSDOF 7
ENDMDL
MODEL 7
REMARK VINA RESULT:      -3.9      8.445     11.117
REMARK  7 active torsions:
REMARK  status: ('A' for Active; 'I' for Inactive)
REMARK    1  A    between atoms: C_2  and  C_3 
REMARK    2  A    between atoms: C_3  and  O_6 
REMARK    3  A    between atoms: C_3  and  C_4 
REMARK    4  A    between atoms: C_7  and  O_6 
REMARK    5  A    between atoms: C_9  and  C_10 
REMARK    6  A    between atoms: N_15  and  C_14 
REMARK    7  A    between atoms: N_20  and  C_19 
REMARK       I    between atoms: C_22  and  N_20 
ROOT
ATOM      1  C   LIG d   1      -4.505  91.649 116.955  0.00  0.00     0.161 C 
ATOM      2  C   LIG d   1      -3.296  90.937 117.025  0.00  0.00     0.016 C 
ATOM      3  C   LIG d   1      -2.140  91.429 117.673  0.00  0.00     0.038 C 
ATOM      4  C   LIG d   1      -2.160  92.608 118.432  0.00  0.00     0.028 C 
ATOM      5  C   LIG d   1      -3.216  93.608 117.970  0.00  0.00    -0.047 C 
ATOM      6  C   LIG d   1      -4.580  92.888 117.872  0.00  0.00     0.091 C 
ENDROOT
BRANCH   1   7
ATOM      7  O   LIG d   1      -5.610  90.762 117.220  0.00  0.00    -0.368 OA
BRANCH   7   8
ATOM      8  C   LIG d   1      -6.433  90.410 116.081  0.00  0.00     0.119 C 
BRANCH   8   9
ATOM      9  C   LIG d   1      -6.066  91.368 114.931  0.00  0.00     0.028 C 
ATOM     10  C   LIG d   1      -7.277  92.170 114.426  0.00  0.00     0.006 C 
ENDBRANCH   8   9
BRANCH   8  11
ATOM     11  C   LIG d   1      -7.916  90.666 116.364  0.00  0.00     0.028 C 
ATOM     12  C   LIG d   1      -8.817  89.504 115.916  0.00  0.00     0.006 C 
ENDBRANCH   8  11
ENDBRANCH   7   8
ENDBRANCH   1   7
BRANCH   6  13
ATOM     13  N   LIG d   1      -5.652  93.773 117.346  0.00  0.00    -0.311 N 
ATOM     14  C   LIG d   1      -6.863  93.863 117.893  0.00  0.00     0.210 C 
ATOM     15  C   LIG d   1      -7.824  94.820 117.181  0.00  0.00     0.109 C 
ATOM     16  O   LIG d   1      -7.222  93.265 118.918  0.00  0.00    -0.276 OA
ATOM     17  H   LIG d   1      -5.436  94.317 116.533  0.00  0.00     0.149 HD
ENDBRANCH   6  13
BRANCH   5  18
ATOM     18  N   LIG d   1      -3.220  94.727 118.930  0.00  0.00     0.381 N 
ATOM     19  H   LIG d   1      -2.288  94.906 119.246  0.00  0.00    -0.090 HD
ATOM     20  H   LIG d   1      -3.779  94.472 119.724  0.00  0.00    -0.090 HD
ATOM     21  H   LIG d   1      -3.595  95.544 118.499  0.00  0.00    -0.090 HD
ENDBRANCH   5  18
BRANCH   3  22
ATOM     22  C   LIG d   1      -0.935  90.757 117.533  0.00  0.00     0.382 C 
ATOM     23  O   LIG d   1      -0.099  91.140 116.679  0.00  0.00    -0.241 OA
ATOM     24  O   LIG d   1      -0.692  89.745 118.218  0.00  0.00    -0.241 OA
ENDBRANCH   3  22
TORSDOF 7
ENDMDL
MODEL 8
REMARK VINA RESULT:      -3.8      9.266     11.948
REMARK  7 active torsions:
REMARK  status: ('A' for Active; 'I' for Inactive)
REMARK    1  A    between atoms: C_2  and  C_3 
REMARK    2  A    between atoms: C_3  and  O_6 
REMARK    3  A    between atoms: C_3  and  C_4 
REMARK    4  A    between atoms: C_7  and  O_6 
REMARK    5  A    between atoms: C_9  and  C_10 
REMARK    6  A    between atoms: N_15  and  C_14 
REMARK    7  A    between atoms: N_20  and  C_19 
REMARK       I    between atoms: C_22  and  N_20 
ROOT
ATOM      1  C   LIG d   1      -5.016  92.433 117.902  0.00  0.00     0.161 C 
ATOM      2  C   LIG d   1      -4.257  93.539 118.318  0.00  0.00     0.016 C 
ATOM      3  C   LIG d   1      -4.818  94.807 118.598  0.00  0.00     0.038 C 
ATOM      4  C   LIG d   1      -6.206  95.013 118.626  0.00  0.00     0.028 C 
ATOM      5  C   LIG d   1      -6.979  94.059 117.723  0.00  0.00    -0.047 C 
ATOM      6  C   LIG d   1      -6.543  92.609 118.035  0.00  0.00     0.091 C 
ENDROOT
BRANCH   1   7
ATOM      7  O   LIG d   1      -4.585  91.252 118.608  0.00  0.00    -0.368 OA
BRANCH   7   8
ATOM      8  C   LIG d   1      -3.278  90.738 118.251  0.00  0.00     0.119 C 
BRANCH   8   9
ATOM      9  C   LIG d   1      -3.149  89.332 118.868  0.00  0.00     0.028 C 
ATOM     10  C   LIG d   1      -1.793  88.677 118.557  0.00  0.00     0.006 C 
ENDBRANCH   8   9
BRANCH   8  11
ATOM     11  C   LIG d   1      -2.160  91.566 118.890  0.00  0.00     0.028 C 
ATOM     12  C   LIG d   1      -1.125  92.061 117.867  0.00  0.00     0.006 C 
ENDBRANCH   8  11
ENDBRANCH   7   8
ENDBRANCH   1   7
BRANCH   6  13
ATOM     13  N   LIG d   1      -7.190  91.617 117.137  0.00  0.00    -0.311 N 
ATOM     14  C   LIG d   1      -7.080  91.648 115.810  0.00  0.00     0.210 C 
ATOM     15  C   LIG d   1      -7.842  90.543 115.072  0.00  0.00     0.109 C 
ATOM     16  O   LIG d   1      -6.397  92.466 115.176  0.00  0.00    -0.276 OA
ATOM     17  H   LIG d   1      -7.738  90.899 117.570  0.00  0.00     0.149 HD
ENDBRANCH   6  13
BRANCH   5  18
ATOM     18  N   LIG d   1      -8.417  94.293 117.954  0.00  0.00     0.381 N 
ATOM     19  H   LIG d   1      -8.569  94.546 118.909  0.00  0.00    -0.090 HD
ATOM     20  H   LIG d   1      -8.918  93.442 117.769  0.00  0.00    -0.090 HD
ATOM     21  H   LIG d   1      -8.745  95.018 117.354  0.00  0.00    -0.090 HD
ENDBRANCH   5  18
BRANCH   3  22
ATOM     22  C   LIG d   1      -3.986  95.894 118.815  0.00  0.00     0.382 C 
ATOM     23  O   LIG d   1      -4.468  97.051 118.870  0.00  0.00    -0.241 OA
ATOM     24  O   LIG d   1      -2.754  95.738 118.911  0.00  0.00    -0.241 OA
ENDBRANCH   3  22
TORSDOF 7
ENDMDL
MODEL 9
REMARK VINA RESULT:      -3.7      3.069      6.054
REMARK  7 active torsions:
REMARK  status: ('A' for Active; 'I' for Inactive)
REMARK    1  A    between atoms: C_2  and  C_3 
REMARK    2  A    between atoms: C_3  and  O_6 
REMARK    3  A    between atoms: C_3  and  C_4 
REMARK    4  A    between atoms: C_7  and  O_6 
REMARK    5  A    between atoms: C_9  and  C_10 
REMARK    6  A    between atoms: N_15  and  C_14 
REMARK    7  A    between atoms: N_20  and  C_19 
REMARK       I    between atoms: C_22  and  N_20 
ROOT
ATOM      1  C   LIG d   1       3.817  89.103 115.991  0.00  0.00     0.161 C 
ATOM      2  C   LIG d   1       4.175  90.330 116.575  0.00  0.00     0.016 C 
ATOM      3  C   LIG d   1       3.271  91.141 117.299  0.00  0.00     0.038 C 
ATOM      4  C   LIG d   1       1.976  90.705 117.618  0.00  0.00     0.028 C 
ATOM      5  C   LIG d   1       1.413  89.698 116.621  0.00  0.00    -0.047 C 
ATOM      6  C   LIG d   1       2.439  88.559 116.424  0.00  0.00     0.091 C 
ENDROOT
BRANCH   1   7
ATOM      7  O   LIG d   1       4.844  88.124 116.243  0.00  0.00    -0.368 OA
BRANCH   7   8
ATOM      8  C   LIG d   1       5.260  87.330 115.105  0.00  0.00     0.119 C 
BRANCH   8   9
ATOM      9  C   LIG d   1       6.741  86.960 115.315  0.00  0.00     0.028 C 
ATOM     10  C   LIG d   1       7.161  87.038 116.793  0.00  0.00     0.006 C 
ENDBRANCH   8   9
BRANCH   8  11
ATOM     11  C   LIG d   1       5.226  88.149 113.812  0.00  0.00     0.028 C 
ATOM     12  C   LIG d   1       4.694  87.348 112.613  0.00  0.00     0.006 C 
ENDBRANCH   8  11
ENDBRANCH   7   8
ENDBRANCH   1   7
BRANCH   6  13
ATOM     13  N   LIG d   1       2.003  87.574 115.400  0.00  0.00    -0.311 N 
ATOM     14  C   LIG d   1       1.851  86.275 115.651  0.00  0.00     0.210 C 
ATOM     15  C   LIG d   1       1.413  85.431 114.449  0.00  0.00     0.109 C 
ATOM     16  O   LIG d   1       2.005  85.746 116.762  0.00  0.00    -0.276 OA
ATOM     17  H   LIG d   1       1.825  87.922 114.478  0.00  0.00     0.149 HD
ENDBRANCH   6  13
BRANCH   5  18
ATOM     18  N   LIG d   1       0.118  89.225 117.148  0.00  0.00     0.381 N 
ATOM     19  H   LIG d   1       0.120  89.278 118.147  0.00  0.00    -0.090 HD
ATOM     20  H   LIG d   1      -0.009  88.264 116.883  0.00  0.00    -0.090 HD
ATOM     21  H   LIG d   1      -0.623  89.780 116.780  0.00  0.00    -0.090 HD
ENDBRANCH   5  18
BRANCH   3  22
ATOM     22  C   LIG d   1       3.646  92.421 117.676  0.00  0.00     0.382 C 
ATOM     23  O   LIG d   1       3.708  92.723 118.893  0.00  0.00    -0.241 OA
ATOM     24  O   LIG d   1       3.882  93.290 116.816  0.00  0.00    -0.241 OA
ENDBRANCH   3  22
TORSDOF 7
ENDMDL
