MODEL 1
REMARK VINA RESULT:      -4.5      0.000      0.000
REMARK  7 active torsions:
REMARK  status: ('A' for Active; 'I' for Inactive)
REMARK    1  A    between atoms: C_2  and  C_3 
REMARK    2  A    between atoms: C_3  and  O_6 
REMARK    3  A    between atoms: C_3  and  C_4 
REMARK    4  A    between atoms: C_7  and  O_6 
REMARK    5  A    between atoms: C_9  and  C_10 
REMARK    6  A    between atoms: N_15  and  C_14 
REMARK    7  A    between atoms: N_20  and  C_19 
REMARK       I    between atoms: C_22  and  N_20 
ROOT
ATOM      1  C   LIG d   1       4.584  89.424 114.538  0.00  0.00     0.161 C 
ATOM      2  C   LIG d   1       3.970  88.683 113.515  0.00  0.00     0.016 C 
ATOM      3  C   LIG d   1       4.215  87.308 113.295  0.00  0.00     0.038 C 
ATOM      4  C   LIG d   1       4.982  86.540 114.184  0.00  0.00     0.028 C 
ATOM      5  C   LIG d   1       6.027  87.353 114.941  0.00  0.00    -0.047 C 
ATOM      6  C   LIG d   1       5.338  88.578 115.586  0.00  0.00     0.091 C 
ENDROOT
BRANCH   1   7
ATOM      7  O   LIG d   1       3.610  90.267 115.183  0.00  0.00    -0.368 OA
BRANCH   7   8
ATOM      8  C   LIG d   1       2.891  89.677 116.294  0.00  0.00     0.119 C 
BRANCH   8   9
ATOM      9  C   LIG d   1       1.441  89.437 115.832  0.00  0.00     0.028 C 
ATOM     10  C   LIG d   1       1.087  87.942 115.761  0.00  0.00     0.006 C 
ENDBRANCH   8   9
BRANCH   8  11
ATOM     11  C   LIG d   1       2.786  90.652 117.471  0.00  0.00     0.028 C 
ATOM     12  C   LIG d   1       3.702  91.876 117.315  0.00  0.00     0.006 C 
ENDBRANCH   8  11
ENDBRANCH   7   8
ENDBRANCH   1   7
BRANCH   6  13
ATOM     13  N   LIG d   1       6.304  89.472 116.276  0.00  0.00    -0.311 N 
ATOM     14  C   LIG d   1       6.532  89.432 117.587  0.00  0.00     0.210 C 
ATOM     15  C   LIG d   1       7.552  90.455 118.098  0.00  0.00     0.109 C 
ATOM     16  O   LIG d   1       6.011  88.625 118.371  0.00  0.00    -0.276 OA
ATOM     17  H   LIG d   1       6.794  90.137 115.710  0.00  0.00     0.149 HD
ENDBRANCH   6  13
BRANCH   5  18
ATOM     18  N   LIG d   1       6.658  86.458 115.928  0.00  0.00     0.381 N 
ATOM     19  H   LIG d   1       6.064  86.362 116.728  0.00  0.00    -0.090 HD
ATOM     20  H   LIG d   1       7.526  86.865 116.228  0.00  0.00    -0.090 HD
ATOM     21  H   LIG d   1       6.825  85.564 115.521  0.00  0.00    -0.090 HD
ENDBRANCH   5  18
BRANCH   3  22
ATOM     22  C   LIG d   1       3.722  86.696 112.152  0.00  0.00     0.382 C 
ATOM     23  O   LIG d   1       2.556  86.945 111.762  0.00  0.00    -0.241 OA
ATOM     24  O   LIG d   1       4.412  85.866 111.532  0.00  0.00    -0.241 OA
ENDBRANCH   3  22
TORSDOF 7
ENDMDL
MODEL 2
REMARK VINA RESULT:      -4.3      1.954      5.279
REMARK  7 active torsions:
REMARK  status: ('A' for Active; 'I' for Inactive)
REMARK    1  A    between atoms: C_2  and  C_3 
REMARK    2  A    between atoms: C_3  and  O_6 
REMARK    3  A    between atoms: C_3  and  C_4 
REMARK    4  A    between atoms: C_7  and  O_6 
REMARK    5  A    between atoms: C_9  and  C_10 
REMARK    6  A    between atoms: N_15  and  C_14 
REMARK    7  A    between atoms: N_20  and  C_19 
REMARK       I    between atoms: C_22  and  N_20 
ROOT
ATOM      1  C   LIG d   1       4.188  87.288 115.816  0.00  0.00     0.161 C 
ATOM      2  C   LIG d   1       4.520  88.175 116.853  0.00  0.00     0.016 C 
ATOM      3  C   LIG d   1       5.157  89.419 116.639  0.00  0.00     0.038 C 
ATOM      4  C   LIG d   1       5.370  89.931 115.350  0.00  0.00     0.028 C 
ATOM      5  C   LIG d   1       5.510  88.849 114.285  0.00  0.00    -0.047 C 
ATOM      6  C   LIG d   1       4.312  87.878 114.395  0.00  0.00     0.091 C 
ENDROOT
BRANCH   1   7
ATOM      7  O   LIG d   1       2.862  86.764 116.026  0.00  0.00    -0.368 OA
BRANCH   7   8
ATOM      8  C   LIG d   1       1.796  87.411 115.287  0.00  0.00     0.119 C 
BRANCH   8   9
ATOM      9  C   LIG d   1       0.987  88.259 116.287  0.00  0.00     0.028 C 
ATOM     10  C   LIG d   1       1.265  89.764 116.140  0.00  0.00     0.006 C 
ENDBRANCH   8   9
BRANCH   8  11
ATOM     11  C   LIG d   1       0.805  86.386 114.728  0.00  0.00     0.028 C 
ATOM     12  C   LIG d   1      -0.418  86.183 115.637  0.00  0.00     0.006 C 
ENDBRANCH   8  11
ENDBRANCH   7   8
ENDBRANCH   1   7
BRANCH   6  13
ATOM     13  N   LIG d   1       4.414  86.741 113.443  0.00  0.00    -0.311 N 
ATOM     14  C   LIG d   1       3.831  86.733 112.246  0.00  0.00     0.210 C 
ATOM     15  C   LIG d   1       4.047  85.455 111.430  0.00  0.00     0.109 C 
ATOM     16  O   LIG d   1       3.183  87.677 111.769  0.00  0.00    -0.276 OA
ATOM     17  H   LIG d   1       4.948  85.947 113.737  0.00  0.00     0.149 HD
ENDBRANCH   6  13
BRANCH   5  18
ATOM     18  N   LIG d   1       5.589  89.522 112.974  0.00  0.00     0.381 N 
ATOM     19  H   LIG d   1       6.536  89.783 112.784  0.00  0.00    -0.090 HD
ATOM     20  H   LIG d   1       5.032  90.358 113.004  0.00  0.00    -0.090 HD
ATOM     21  H   LIG d   1       5.254  88.916 112.259  0.00  0.00    -0.090 HD
ENDBRANCH   5  18
BRANCH   3  22
ATOM     22  C   LIG d   1       5.624  90.148 117.723  0.00  0.00     0.382 C 
ATOM     23  O   LIG d   1       5.160  89.933 118.869  0.00  0.00    -0.241 OA
ATOM     24  O   LIG d   1       6.471  91.047 117.562  0.00  0.00    -0.241 OA
ENDBRANCH   3  22
TORSDOF 7
ENDMDL
MODEL 3
REMARK VINA RESULT:      -4.3      2.042      5.106
REMARK  7 active torsions:
REMARK  status: ('A' for Active; 'I' for Inactive)
REMARK    1  A    between atoms: C_2  and  C_3 
REMARK    2  A    between atoms: C_3  and  O_6 
REMARK    3  A    between atoms: C_3  and  C_4 
REMARK    4  A    between atoms: C_7  and  O_6 
REMARK    5  A    between atoms: C_9  and  C_10 
REMARK    6  A    between atoms: N_15  and  C_14 
REMARK    7  A    between atoms: N_20  and  C_19 
REMARK       I    between atoms: C_22  and  N_20 
ROOT
ATOM      1  C   LIG d   1       3.960  87.308 115.827  0.00  0.00     0.161 C 
ATOM      2  C   LIG d   1       4.277  88.180 116.882  0.00  0.00     0.016 C 
ATOM      3  C   LIG d   1       4.949  89.411 116.698  0.00  0.00     0.038 C 
ATOM      4  C   LIG d   1       5.216  89.926 115.421  0.00  0.00     0.028 C 
ATOM      5  C   LIG d   1       5.367  88.849 114.352  0.00  0.00    -0.047 C 
ATOM      6  C   LIG d   1       4.145  87.904 114.416  0.00  0.00     0.091 C 
ENDROOT
BRANCH   1   7
ATOM      7  O   LIG d   1       2.617  86.812 115.990  0.00  0.00    -0.368 OA
BRANCH   7   8
ATOM      8  C   LIG d   1       1.758  87.577 116.873  0.00  0.00     0.119 C 
BRANCH   8   9
ATOM      9  C   LIG d   1       1.047  86.578 117.806  0.00  0.00     0.028 C 
ATOM     10  C   LIG d   1      -0.218  85.978 117.169  0.00  0.00     0.006 C 
ENDBRANCH   8   9
BRANCH   8  11
ATOM     11  C   LIG d   1       0.638  88.273 116.095  0.00  0.00     0.028 C 
ATOM     12  C   LIG d   1       0.746  89.806 116.138  0.00  0.00     0.006 C 
ENDBRANCH   8  11
ENDBRANCH   7   8
ENDBRANCH   1   7
BRANCH   6  13
ATOM     13  N   LIG d   1       4.253  86.772 113.460  0.00  0.00    -0.311 N 
ATOM     14  C   LIG d   1       3.695  86.778 112.250  0.00  0.00     0.210 C 
ATOM     15  C   LIG d   1       3.912  85.502 111.432  0.00  0.00     0.109 C 
ATOM     16  O   LIG d   1       3.069  87.732 111.765  0.00  0.00    -0.276 OA
ATOM     17  H   LIG d   1       4.771  85.969 113.760  0.00  0.00     0.149 HD
ENDBRANCH   6  13
BRANCH   5  18
ATOM     18  N   LIG d   1       5.504  89.529 113.051  0.00  0.00     0.381 N 
ATOM     19  H   LIG d   1       4.731  90.148 112.909  0.00  0.00    -0.090 HD
ATOM     20  H   LIG d   1       5.493  88.839 112.321  0.00  0.00    -0.090 HD
ATOM     21  H   LIG d   1       6.359  90.040 113.022  0.00  0.00    -0.090 HD
ENDBRANCH   5  18
BRANCH   3  22
ATOM     22  C   LIG d   1       5.396  90.121 117.802  0.00  0.00     0.382 C 
ATOM     23  O   LIG d   1       6.496  90.722 117.757  0.00  0.00    -0.241 OA
ATOM     24  O   LIG d   1       4.733  90.133 118.857  0.00  0.00    -0.241 OA
ENDBRANCH   3  22
TORSDOF 7
ENDMDL
MODEL 4
REMARK VINA RESULT:      -4.2      1.850      3.022
REMARK  7 active torsions:
REMARK  status: ('A' for Active; 'I' for Inactive)
REMARK    1  A    between atoms: C_2  and  C_3 
REMARK    2  A    between atoms: C_3  and  O_6 
REMARK    3  A    between atoms: C_3  and  C_4 
REMARK    4  A    between atoms: C_7  and  O_6 
REMARK    5  A    between atoms: C_9  and  C_10 
REMARK    6  A    between atoms: N_15  and  C_14 
REMARK    7  A    between atoms: N_20  and  C_19 
REMARK       I    between atoms: C_22  and  N_20 
ROOT
ATOM      1  C   LIG d   1       3.043  89.537 116.239  0.00  0.00     0.161 C 
ATOM      2  C   LIG d   1       2.939  88.938 114.972  0.00  0.00     0.016 C 
ATOM      3  C   LIG d   1       4.049  88.430 114.258  0.00  0.00     0.038 C 
ATOM      4  C   LIG d   1       5.327  88.351 114.832  0.00  0.00     0.028 C 
ATOM      5  C   LIG d   1       5.573  89.402 115.909  0.00  0.00    -0.047 C 
ATOM      6  C   LIG d   1       4.412  89.359 116.928  0.00  0.00     0.091 C 
ENDROOT
BRANCH   1   7
ATOM      7  O   LIG d   1       1.986  89.058 117.094  0.00  0.00    -0.368 OA
BRANCH   7   8
ATOM      8  C   LIG d   1       0.678  88.936 116.482  0.00  0.00     0.119 C 
BRANCH   8   9
ATOM      9  C   LIG d   1      -0.232  90.005 117.118  0.00  0.00     0.028 C 
ATOM     10  C   LIG d   1       0.169  90.331 118.566  0.00  0.00     0.006 C 
ENDBRANCH   8   9
BRANCH   8  11
ATOM     11  C   LIG d   1       0.026  87.593 116.825  0.00  0.00     0.028 C 
ATOM     12  C   LIG d   1       0.079  86.591 115.661  0.00  0.00     0.006 C 
ENDBRANCH   8  11
ENDBRANCH   7   8
ENDBRANCH   1   7
BRANCH   6  13
ATOM     13  N   LIG d   1       4.532  90.412 117.969  0.00  0.00    -0.311 N 
ATOM     14  C   LIG d   1       4.380  91.712 117.718  0.00  0.00     0.210 C 
ATOM     15  C   LIG d   1       4.565  92.630 118.930  0.00  0.00     0.109 C 
ATOM     16  O   LIG d   1       4.079  92.188 116.613  0.00  0.00    -0.276 OA
ATOM     17  H   LIG d   1       4.744  90.112 118.900  0.00  0.00     0.149 HD
ENDBRANCH   6  13
BRANCH   5  18
ATOM     18  N   LIG d   1       6.887  89.118 116.517  0.00  0.00     0.381 N 
ATOM     19  H   LIG d   1       6.761  88.653 117.394  0.00  0.00    -0.090 HD
ATOM     20  H   LIG d   1       7.362  89.987 116.686  0.00  0.00    -0.090 HD
ATOM     21  H   LIG d   1       7.429  88.548 115.906  0.00  0.00    -0.090 HD
ENDBRANCH   5  18
BRANCH   3  22
ATOM     22  C   LIG d   1       3.894  88.032 112.939  0.00  0.00     0.382 C 
ATOM     23  O   LIG d   1       2.901  88.422 112.279  0.00  0.00    -0.241 OA
ATOM     24  O   LIG d   1       4.710  87.251 112.415  0.00  0.00    -0.241 OA
ENDBRANCH   3  22
TORSDOF 7
ENDMDL
MODEL 5
REMARK VINA RESULT:      -4.2      1.922      2.405
REMARK  7 active torsions:
REMARK  status: ('A' for Active; 'I' for Inactive)
REMARK    1  A    between atoms: C_2  and  C_3 
REMARK    2  A    between atoms: C_3  and  O_6 
REMARK    3  A    between atoms: C_3  and  C_4 
REMARK    4  A    between atoms: C_7  and  O_6 
REMARK    5  A    between atoms: C_9  and  C_10 
REMARK    6  A    between atoms: N_15  and  C_14 
REMARK    7  A    between atoms: N_20  and  C_19 
REMARK       I    between atoms: C_22  and  N_20 
ROOT
ATOM      1  C   LIG d   1       2.985  88.170 115.350  0.00  0.00     0.161 C 
ATOM      2  C   LIG d   1       2.555  87.177 114.454  0.00  0.00     0.016 C 
ATOM      3  C   LIG d   1       3.150  86.959 113.190  0.00  0.00     0.038 C 
ATOM      4  C   LIG d   1       4.321  87.624 112.797  0.00  0.00     0.028 C 
ATOM      5  C   LIG d   1       4.493  88.988 113.456  0.00  0.00    -0.047 C 
ATOM      6  C   LIG d   1       4.331  88.831 114.985  0.00  0.00     0.091 C 
ENDROOT
BRANCH   1   7
ATOM      7  O   LIG d   1       3.035  87.633 116.686  0.00  0.00    -0.368 OA
BRANCH   7   8
ATOM      8  C   LIG d   1       2.095  88.195 117.635  0.00  0.00     0.119 C 
BRANCH   8   9
ATOM      9  C   LIG d   1       1.157  87.058 118.084  0.00  0.00     0.028 C 
ATOM     10  C   LIG d   1       0.017  86.808 117.083  0.00  0.00     0.006 C 
ENDBRANCH   8   9
BRANCH   8  11
ATOM     11  C   LIG d   1       1.186  89.232 116.971  0.00  0.00     0.028 C 
ATOM     12  C   LIG d   1       1.308  90.626 117.607  0.00  0.00     0.006 C 
ENDBRANCH   8  11
ENDBRANCH   7   8
ENDBRANCH   1   7
BRANCH   6  13
ATOM     13  N   LIG d   1       4.400  90.132 115.700  0.00  0.00    -0.311 N 
ATOM     14  C   LIG d   1       5.175  90.345 116.762  0.00  0.00     0.210 C 
ATOM     15  C   LIG d   1       5.082  91.753 117.359  0.00  0.00     0.109 C 
ATOM     16  O   LIG d   1       5.955  89.511 117.247  0.00  0.00    -0.276 OA
ATOM     17  H   LIG d   1       3.823  90.874 115.354  0.00  0.00     0.149 HD
ENDBRANCH   6  13
BRANCH   5  18
ATOM     18  N   LIG d   1       5.817  89.508 113.066  0.00  0.00     0.381 N 
ATOM     19  H   LIG d   1       6.458  89.410 113.828  0.00  0.00    -0.090 HD
ATOM     20  H   LIG d   1       5.731  90.486 112.849  0.00  0.00    -0.090 HD
ATOM     21  H   LIG d   1       6.157  89.013 112.271  0.00  0.00    -0.090 HD
ENDBRANCH   5  18
BRANCH   3  22
ATOM     22  C   LIG d   1       2.549  86.094 112.288  0.00  0.00     0.382 C 
ATOM     23  O   LIG d   1       3.246  85.499 111.430  0.00  0.00    -0.241 OA
ATOM     24  O   LIG d   1       1.314  85.936 112.291  0.00  0.00    -0.241 OA
ENDBRANCH   3  22
TORSDOF 7
ENDMDL
MODEL 6
REMARK VINA RESULT:      -4.1      1.825      3.212
REMARK  7 active torsions:
REMARK  status: ('A' for Active; 'I' for Inactive)
REMARK    1  A    between atoms: C_2  and  C_3 
REMARK    2  A    between atoms: C_3  and  O_6 
REMARK    3  A    between atoms: C_3  and  C_4 
REMARK    4  A    between atoms: C_7  and  O_6 
REMARK    5  A    between atoms: C_9  and  C_10 
REMARK    6  A    between atoms: N_15  and  C_14 
REMARK    7  A    between atoms: N_20  and  C_19 
REMARK       I    between atoms: C_22  and  N_20 
ROOT
ATOM      1  C   LIG d   1       2.709  87.770 115.472  0.00  0.00     0.161 C 
ATOM      2  C   LIG d   1       2.725  87.246 114.169  0.00  0.00     0.016 C 
ATOM      3  C   LIG d   1       3.903  87.110 113.399  0.00  0.00     0.038 C 
ATOM      4  C   LIG d   1       5.174  87.350 113.941  0.00  0.00     0.028 C 
ATOM      5  C   LIG d   1       5.165  88.359 115.084  0.00  0.00    -0.047 C 
ATOM      6  C   LIG d   1       4.100  87.933 116.120  0.00  0.00     0.091 C 
ENDROOT
BRANCH   1   7
ATOM      7  O   LIG d   1       1.857  86.966 116.311  0.00  0.00    -0.368 OA
BRANCH   7   8
ATOM      8  C   LIG d   1       0.455  87.333 116.334  0.00  0.00     0.119 C 
BRANCH   8   9
ATOM      9  C   LIG d   1       0.261  88.348 117.477  0.00  0.00     0.028 C 
ATOM     10  C   LIG d   1      -0.160  89.736 116.964  0.00  0.00     0.006 C 
ENDBRANCH   8   9
BRANCH   8  11
ATOM     11  C   LIG d   1      -0.428  86.137 116.700  0.00  0.00     0.028 C 
ATOM     12  C   LIG d   1      -1.548  85.888 115.678  0.00  0.00     0.006 C 
ENDBRANCH   8  11
ENDBRANCH   7   8
ENDBRANCH   1   7
BRANCH   6  13
ATOM     13  N   LIG d   1       3.966  88.911 117.231  0.00  0.00    -0.311 N 
ATOM     14  C   LIG d   1       3.581  90.174 117.053  0.00  0.00     0.210 C 
ATOM     15  C   LIG d   1       3.529  91.020 118.330  0.00  0.00     0.109 C 
ATOM     16  O   LIG d   1       3.247  90.665 115.965  0.00  0.00    -0.276 OA
ATOM     17  H   LIG d   1       4.188  88.588 118.152  0.00  0.00     0.149 HD
ENDBRANCH   6  13
BRANCH   5  18
ATOM     18  N   LIG d   1       6.529  88.410 115.644  0.00  0.00     0.381 N 
ATOM     19  H   LIG d   1       7.009  87.555 115.446  0.00  0.00    -0.090 HD
ATOM     20  H   LIG d   1       6.467  88.513 116.642  0.00  0.00    -0.090 HD
ATOM     21  H   LIG d   1       7.029  89.178 115.254  0.00  0.00    -0.090 HD
ENDBRANCH   5  18
BRANCH   3  22
ATOM     22  C   LIG d   1       3.812  86.768 112.058  0.00  0.00     0.382 C 
ATOM     23  O   LIG d   1       2.744  86.969 111.431  0.00  0.00    -0.241 OA
ATOM     24  O   LIG d   1       4.769  86.220 111.480  0.00  0.00    -0.241 OA
ENDBRANCH   3  22
TORSDOF 7
ENDMDL
MODEL 7
REMARK VINA RESULT:      -4.1      4.111      6.746
REMARK  7 active torsions:
REMARK  status: ('A' for Active; 'I' for Inactive)
REMARK    1  A    between atoms: C_2  and  C_3 
REMARK    2  A    between atoms: C_3  and  O_6 
REMARK    3  A    between atoms: C_3  and  C_4 
REMARK    4  A    between atoms: C_7  and  O_6 
REMARK    5  A    between atoms: C_9  and  C_10 
REMARK    6  A    between atoms: N_15  and  C_14 
REMARK    7  A    between atoms: N_20  and  C_19 
REMARK       I    between atoms: C_22  and  N_20 
ROOT
ATOM      1  C   LIG d   1      -0.009  89.422 117.172  0.00  0.00     0.161 C 
ATOM      2  C   LIG d   1      -1.405  89.536 117.060  0.00  0.00     0.016 C 
ATOM      3  C   LIG d   1      -2.125  90.687 117.454  0.00  0.00     0.038 C 
ATOM      4  C   LIG d   1      -1.478  91.868 117.848  0.00  0.00     0.028 C 
ATOM      5  C   LIG d   1      -0.100  91.629 118.455  0.00  0.00    -0.047 C 
ATOM      6  C   LIG d   1       0.724  90.740 117.496  0.00  0.00     0.091 C 
ENDROOT
BRANCH   1   7
ATOM      7  O   LIG d   1       0.530  88.830 115.973  0.00  0.00    -0.368 OA
BRANCH   7   8
ATOM      8  C   LIG d   1       1.069  87.492 116.110  0.00  0.00     0.119 C 
BRANCH   8   9
ATOM      9  C   LIG d   1       2.489  87.502 115.511  0.00  0.00     0.028 C 
ATOM     10  C   LIG d   1       3.522  86.839 116.438  0.00  0.00     0.006 C 
ENDBRANCH   8   9
BRANCH   8  11
ATOM     11  C   LIG d   1       0.281  86.485 115.267  0.00  0.00     0.028 C 
ATOM     12  C   LIG d   1      -0.994  85.990 115.969  0.00  0.00     0.006 C 
ENDBRANCH   8  11
ENDBRANCH   7   8
ENDBRANCH   1   7
BRANCH   6  13
ATOM     13  N   LIG d   1       2.056  90.389 118.052  0.00  0.00    -0.311 N 
ATOM     14  C   LIG d   1       3.199  90.578 117.394  0.00  0.00     0.210 C 
ATOM     15  C   LIG d   1       4.458  90.129 118.142  0.00  0.00     0.109 C 
ATOM     16  O   LIG d   1       3.291  91.106 116.276  0.00  0.00    -0.276 OA
ATOM     17  H   LIG d   1       2.076  89.984 118.968  0.00  0.00     0.149 HD
ENDBRANCH   6  13
BRANCH   5  18
ATOM     18  N   LIG d   1       0.516  92.948 118.694  0.00  0.00     0.381 N 
ATOM     19  H   LIG d   1       0.121  93.624 118.071  0.00  0.00    -0.090 HD
ATOM     20  H   LIG d   1       1.501  92.885 118.507  0.00  0.00    -0.090 HD
ATOM     21  H   LIG d   1       0.367  93.229 119.638  0.00  0.00    -0.090 HD
ENDBRANCH   5  18
BRANCH   3  22
ATOM     22  C   LIG d   1      -3.511  90.650 117.493  0.00  0.00     0.382 C 
ATOM     23  O   LIG d   1      -4.135  91.394 118.287  0.00  0.00    -0.241 OA
ATOM     24  O   LIG d   1      -4.142  89.851 116.777  0.00  0.00    -0.241 OA
ENDBRANCH   3  22
TORSDOF 7
ENDMDL
MODEL 8
REMARK VINA RESULT:      -4.1      1.752      2.685
REMARK  7 active torsions:
REMARK  status: ('A' for Active; 'I' for Inactive)
REMARK    1  A    between atoms: C_2  and  C_3 
REMARK    2  A    between atoms: C_3  and  O_6 
REMARK    3  A    between atoms: C_3  and  C_4 
REMARK    4  A    between atoms: C_7  and  O_6 
REMARK    5  A    between atoms: C_9  and  C_10 
REMARK    6  A    between atoms: N_15  and  C_14 
REMARK    7  A    between atoms: N_20  and  C_19 
REMARK       I    between atoms: C_22  and  N_20 
ROOT
ATOM      1  C   LIG d   1       2.760  88.043 115.751  0.00  0.00     0.161 C 
ATOM      2  C   LIG d   1       2.752  87.477 114.465  0.00  0.00     0.016 C 
ATOM      3  C   LIG d   1       3.917  87.312 113.680  0.00  0.00     0.038 C 
ATOM      4  C   LIG d   1       5.198  87.564 114.193  0.00  0.00     0.028 C 
ATOM      5  C   LIG d   1       5.211  88.609 115.304  0.00  0.00    -0.047 C 
ATOM      6  C   LIG d   1       4.162  88.221 116.370  0.00  0.00     0.091 C 
ENDROOT
BRANCH   1   7
ATOM      7  O   LIG d   1       1.918  87.269 116.629  0.00  0.00    -0.368 OA
BRANCH   7   8
ATOM      8  C   LIG d   1       0.652  87.873 116.993  0.00  0.00     0.119 C 
BRANCH   8   9
ATOM      9  C   LIG d   1      -0.465  87.025 116.355  0.00  0.00     0.028 C 
ATOM     10  C   LIG d   1      -0.439  85.563 116.834  0.00  0.00     0.006 C 
ENDBRANCH   8   9
BRANCH   8  11
ATOM     11  C   LIG d   1       0.503  89.268 116.379  0.00  0.00     0.028 C 
ATOM     12  C   LIG d   1       0.034  90.319 117.398  0.00  0.00     0.006 C 
ENDBRANCH   8  11
ENDBRANCH   7   8
ENDBRANCH   1   7
BRANCH   6  13
ATOM     13  N   LIG d   1       4.050  89.235 117.451  0.00  0.00    -0.311 N 
ATOM     14  C   LIG d   1       3.807  90.525 117.224  0.00  0.00     0.210 C 
ATOM     15  C   LIG d   1       3.751  91.403 118.478  0.00  0.00     0.109 C 
ATOM     16  O   LIG d   1       3.601  91.019 116.105  0.00  0.00    -0.276 OA
ATOM     17  H   LIG d   1       4.173  88.915 118.392  0.00  0.00     0.149 HD
ENDBRANCH   6  13
BRANCH   5  18
ATOM     18  N   LIG d   1       6.584  88.673 115.840  0.00  0.00     0.381 N 
ATOM     19  H   LIG d   1       7.118  87.900 115.495  0.00  0.00    -0.090 HD
ATOM     20  H   LIG d   1       6.545  88.607 116.842  0.00  0.00    -0.090 HD
ATOM     21  H   LIG d   1       7.015  89.530 115.572  0.00  0.00    -0.090 HD
ENDBRANCH   5  18
BRANCH   3  22
ATOM     22  C   LIG d   1       3.803  86.927 112.353  0.00  0.00     0.382 C 
ATOM     23  O   LIG d   1       4.807  86.496 111.737  0.00  0.00    -0.241 OA
ATOM     24  O   LIG d   1       2.719  87.048 111.751  0.00  0.00    -0.241 OA
ENDBRANCH   3  22
TORSDOF 7
ENDMDL
MODEL 9
REMARK VINA RESULT:      -4.0      3.129      5.103
REMARK  7 active torsions:
REMARK  status: ('A' for Active; 'I' for Inactive)
REMARK    1  A    between atoms: C_2  and  C_3 
REMARK    2  A    between atoms: C_3  and  O_6 
REMARK    3  A    between atoms: C_3  and  C_4 
REMARK    4  A    between atoms: C_7  and  O_6 
REMARK    5  A    between atoms: C_9  and  C_10 
REMARK    6  A    between atoms: N_15  and  C_14 
REMARK    7  A    between atoms: N_20  and  C_19 
REMARK       I    between atoms: C_22  and  N_20 
ROOT
ATOM      1  C   LIG d   1       1.240  88.909 115.594  0.00  0.00     0.161 C 
ATOM      2  C   LIG d   1       2.414  88.301 115.118  0.00  0.00     0.016 C 
ATOM      3  C   LIG d   1       3.713  88.762 115.435  0.00  0.00     0.038 C 
ATOM      4  C   LIG d   1       3.929  89.778 116.378  0.00  0.00     0.028 C 
ATOM      5  C   LIG d   1       2.762  90.752 116.498  0.00  0.00    -0.047 C 
ATOM      6  C   LIG d   1       1.458  89.949 116.712  0.00  0.00     0.091 C 
ENDROOT
BRANCH   1   7
ATOM      7  O   LIG d   1       0.307  87.898 116.024  0.00  0.00    -0.368 OA
BRANCH   7   8
ATOM      8  C   LIG d   1       0.722  86.523 115.832  0.00  0.00     0.119 C 
BRANCH   8   9
ATOM      9  C   LIG d   1      -0.333  85.841 114.940  0.00  0.00     0.028 C 
ATOM     10  C   LIG d   1      -1.744  85.901 115.550  0.00  0.00     0.006 C 
ENDBRANCH   8   9
BRANCH   8  11
ATOM     11  C   LIG d   1       0.703  85.746 117.151  0.00  0.00     0.028 C 
ATOM     12  C   LIG d   1       0.709  86.663 118.384  0.00  0.00     0.006 C 
ENDBRANCH   8  11
ENDBRANCH   7   8
ENDBRANCH   1   7
BRANCH   6  13
ATOM     13  N   LIG d   1       0.256  90.821 116.755  0.00  0.00    -0.311 N 
ATOM     14  C   LIG d   1      -0.517  90.952 117.832  0.00  0.00     0.210 C 
ATOM     15  C   LIG d   1      -1.718  91.887 117.657  0.00  0.00     0.109 C 
ATOM     16  O   LIG d   1      -0.303  90.409 118.926  0.00  0.00    -0.276 OA
ATOM     17  H   LIG d   1       0.027  91.324 115.920  0.00  0.00     0.149 HD
ENDBRANCH   6  13
BRANCH   5  18
ATOM     18  N   LIG d   1       3.063  91.674 117.609  0.00  0.00     0.381 N 
ATOM     19  H   LIG d   1       3.348  91.152 118.414  0.00  0.00    -0.090 HD
ATOM     20  H   LIG d   1       2.229  92.183 117.843  0.00  0.00    -0.090 HD
ATOM     21  H   LIG d   1       3.784  92.307 117.342  0.00  0.00    -0.090 HD
ENDBRANCH   5  18
BRANCH   3  22
ATOM     22  C   LIG d   1       4.811  88.231 114.775  0.00  0.00     0.382 C 
ATOM     23  O   LIG d   1       5.863  87.981 115.411  0.00  0.00    -0.241 OA
ATOM     24  O   LIG d   1       4.777  88.041 113.545  0.00  0.00    -0.241 OA
ENDBRANCH   3  22
TORSDOF 7
ENDMDL
