MODEL 1
REMARK VINA RESULT:      -4.9      0.000      0.000
REMARK  7 active torsions:
REMARK  status: ('A' for Active; 'I' for Inactive)
REMARK    1  A    between atoms: C_2  and  C_3 
REMARK    2  A    between atoms: C_3  and  O_6 
REMARK    3  A    between atoms: C_3  and  C_4 
REMARK    4  A    between atoms: C_7  and  O_6 
REMARK    5  A    between atoms: C_9  and  C_10 
REMARK    6  A    between atoms: N_15  and  C_14 
REMARK    7  A    between atoms: N_20  and  C_19 
REMARK       I    between atoms: C_22  and  N_20 
ROOT
ATOM      1  C   LIG d   1       3.556  88.885 115.340  0.00  0.00     0.161 C 
ATOM      2  C   LIG d   1       2.972  88.172 114.281  0.00  0.00     0.016 C 
ATOM      3  C   LIG d   1       3.636  87.907 113.061  0.00  0.00     0.038 C 
ATOM      4  C   LIG d   1       4.993  88.210 112.875  0.00  0.00     0.028 C 
ATOM      5  C   LIG d   1       5.475  89.379 113.727  0.00  0.00    -0.047 C 
ATOM      6  C   LIG d   1       5.073  89.127 115.198  0.00  0.00     0.091 C 
ENDROOT
BRANCH   1   7
ATOM      7  O   LIG d   1       3.268  88.227 116.590  0.00  0.00    -0.368 OA
BRANCH   7   8
ATOM      8  C   LIG d   1       2.505  88.995 117.554  0.00  0.00     0.119 C 
BRANCH   8   9
ATOM      9  C   LIG d   1       1.306  88.131 117.989  0.00  0.00     0.028 C 
ATOM     10  C   LIG d   1       0.082  88.324 117.079  0.00  0.00     0.006 C 
ENDBRANCH   8   9
BRANCH   8  11
ATOM     11  C   LIG d   1       1.893  90.244 116.912  0.00  0.00     0.028 C 
ATOM     12  C   LIG d   1       2.362  91.547 117.580  0.00  0.00     0.006 C 
ENDBRANCH   8  11
ENDBRANCH   7   8
ENDBRANCH   1   7
BRANCH   6  13
ATOM     13  N   LIG d   1       5.433  90.263 116.087  0.00  0.00    -0.311 N 
ATOM     14  C   LIG d   1       6.064  90.113 117.250  0.00  0.00     0.210 C 
ATOM     15  C   LIG d   1       6.321  91.412 118.019  0.00  0.00     0.109 C 
ATOM     16  O   LIG d   1       6.463  89.030 117.703  0.00  0.00    -0.276 OA
ATOM     17  H   LIG d   1       5.173  91.181 115.781  0.00  0.00     0.149 HD
ENDBRANCH   6  13
BRANCH   5  18
ATOM     18  N   LIG d   1       6.933  89.497 113.538  0.00  0.00     0.381 N 
ATOM     19  H   LIG d   1       7.366  89.764 114.400  0.00  0.00    -0.090 HD
ATOM     20  H   LIG d   1       7.116  90.214 112.858  0.00  0.00    -0.090 HD
ATOM     21  H   LIG d   1       7.308  88.629 113.225  0.00  0.00    -0.090 HD
ENDBRANCH   5  18
BRANCH   3  22
ATOM     22  C   LIG d   1       2.929  87.368 111.996  0.00  0.00     0.382 C 
ATOM     23  O   LIG d   1       3.255  86.250 111.529  0.00  0.00    -0.241 OA
ATOM     24  O   LIG d   1       1.999  88.006 111.469  0.00  0.00    -0.241 OA
ENDBRANCH   3  22
TORSDOF 7
ENDMDL
MODEL 2
REMARK VINA RESULT:      -4.8      2.293      5.315
REMARK  7 active torsions:
REMARK  status: ('A' for Active; 'I' for Inactive)
REMARK    1  A    between atoms: C_2  and  C_3 
REMARK    2  A    between atoms: C_3  and  O_6 
REMARK    3  A    between atoms: C_3  and  C_4 
REMARK    4  A    between atoms: C_7  and  O_6 
REMARK    5  A    between atoms: C_9  and  C_10 
REMARK    6  A    between atoms: N_15  and  C_14 
REMARK    7  A    between atoms: N_20  and  C_19 
REMARK       I    between atoms: C_22  and  N_20 
ROOT
ATOM      1  C   LIG d   1       2.536  87.947 115.520  0.00  0.00     0.161 C 
ATOM      2  C   LIG d   1       1.381  87.816 116.309  0.00  0.00     0.016 C 
ATOM      3  C   LIG d   1       0.960  88.793 117.241  0.00  0.00     0.038 C 
ATOM      4  C   LIG d   1       1.588  90.044 117.338  0.00  0.00     0.028 C 
ATOM      5  C   LIG d   1       3.055  90.019 116.923  0.00  0.00    -0.047 C 
ATOM      6  C   LIG d   1       3.172  89.353 115.533  0.00  0.00     0.091 C 
ENDROOT
BRANCH   1   7
ATOM      7  O   LIG d   1       2.253  87.538 114.167  0.00  0.00    -0.368 OA
BRANCH   7   8
ATOM      8  C   LIG d   1       2.500  86.144 113.859  0.00  0.00     0.119 C 
BRANCH   8   9
ATOM      9  C   LIG d   1       3.863  86.062 113.145  0.00  0.00     0.028 C 
ATOM     10  C   LIG d   1       3.837  86.712 111.752  0.00  0.00     0.006 C 
ENDBRANCH   8   9
BRANCH   8  11
ATOM     11  C   LIG d   1       1.481  85.608 112.848  0.00  0.00     0.028 C 
ATOM     12  C   LIG d   1       0.027  85.797 113.311  0.00  0.00     0.006 C 
ENDBRANCH   8  11
ENDBRANCH   7   8
ENDBRANCH   1   7
BRANCH   6  13
ATOM     13  N   LIG d   1       4.583  89.213 115.088  0.00  0.00    -0.311 N 
ATOM     14  C   LIG d   1       5.007  89.558 113.874  0.00  0.00     0.210 C 
ATOM     15  C   LIG d   1       6.497  89.312 113.615  0.00  0.00     0.109 C 
ATOM     16  O   LIG d   1       4.297  90.075 112.997  0.00  0.00    -0.276 OA
ATOM     17  H   LIG d   1       5.233  88.831 115.747  0.00  0.00     0.149 HD
ENDBRANCH   6  13
BRANCH   5  18
ATOM     18  N   LIG d   1       3.547  91.410 116.941  0.00  0.00     0.381 N 
ATOM     19  H   LIG d   1       2.787  92.035 117.120  0.00  0.00    -0.090 HD
ATOM     20  H   LIG d   1       3.932  91.630 116.040  0.00  0.00    -0.090 HD
ATOM     21  H   LIG d   1       4.245  91.515 117.644  0.00  0.00    -0.090 HD
ENDBRANCH   5  18
BRANCH   3  22
ATOM     22  C   LIG d   1      -0.077  88.506 118.116  0.00  0.00     0.382 C 
ATOM     23  O   LIG d   1      -0.585  89.421 118.807  0.00  0.00    -0.241 OA
ATOM     24  O   LIG d   1      -0.480  87.336 118.255  0.00  0.00    -0.241 OA
ENDBRANCH   3  22
TORSDOF 7
ENDMDL
MODEL 3
REMARK VINA RESULT:      -4.6      1.457      4.676
REMARK  7 active torsions:
REMARK  status: ('A' for Active; 'I' for Inactive)
REMARK    1  A    between atoms: C_2  and  C_3 
REMARK    2  A    between atoms: C_3  and  O_6 
REMARK    3  A    between atoms: C_3  and  C_4 
REMARK    4  A    between atoms: C_7  and  O_6 
REMARK    5  A    between atoms: C_9  and  C_10 
REMARK    6  A    between atoms: N_15  and  C_14 
REMARK    7  A    between atoms: N_20  and  C_19 
REMARK       I    between atoms: C_22  and  N_20 
ROOT
ATOM      1  C   LIG d   1       3.656  88.273 115.627  0.00  0.00     0.161 C 
ATOM      2  C   LIG d   1       4.161  88.899 116.779  0.00  0.00     0.016 C 
ATOM      3  C   LIG d   1       5.369  89.633 116.800  0.00  0.00     0.038 C 
ATOM      4  C   LIG d   1       6.082  89.921 115.627  0.00  0.00     0.028 C 
ATOM      5  C   LIG d   1       5.879  88.885 114.526  0.00  0.00    -0.047 C 
ATOM      6  C   LIG d   1       4.363  88.668 114.314  0.00  0.00     0.091 C 
ENDROOT
BRANCH   1   7
ATOM      7  O   LIG d   1       2.238  88.509 115.524  0.00  0.00    -0.368 OA
BRANCH   7   8
ATOM      8  C   LIG d   1       1.451  88.184 116.695  0.00  0.00     0.119 C 
BRANCH   8   9
ATOM      9  C   LIG d   1       0.631  86.921 116.366  0.00  0.00     0.028 C 
ATOM     10  C   LIG d   1      -0.763  86.940 117.016  0.00  0.00     0.006 C 
ENDBRANCH   8   9
BRANCH   8  11
ATOM     11  C   LIG d   1       0.416  89.273 116.991  0.00  0.00     0.028 C 
ATOM     12  C   LIG d   1       1.050  90.658 117.197  0.00  0.00     0.006 C 
ENDBRANCH   8  11
ENDBRANCH   7   8
ENDBRANCH   1   7
BRANCH   6  13
ATOM     13  N   LIG d   1       4.077  87.609 113.312  0.00  0.00    -0.311 N 
ATOM     14  C   LIG d   1       3.137  87.721 112.375  0.00  0.00     0.210 C 
ATOM     15  C   LIG d   1       2.993  86.504 111.455  0.00  0.00     0.109 C 
ATOM     16  O   LIG d   1       2.432  88.725 112.197  0.00  0.00    -0.276 OA
ATOM     17  H   LIG d   1       4.624  86.772 113.364  0.00  0.00     0.149 HD
ENDBRANCH   6  13
BRANCH   5  18
ATOM     18  N   LIG d   1       6.567  89.379 113.318  0.00  0.00     0.381 N 
ATOM     19  H   LIG d   1       5.902  89.790 112.693  0.00  0.00    -0.090 HD
ATOM     20  H   LIG d   1       7.000  88.602 112.850  0.00  0.00    -0.090 HD
ATOM     21  H   LIG d   1       7.257  90.052 113.569  0.00  0.00    -0.090 HD
ENDBRANCH   5  18
BRANCH   3  22
ATOM     22  C   LIG d   1       5.895  90.055 118.011  0.00  0.00     0.382 C 
ATOM     23  O   LIG d   1       6.101  89.225 118.929  0.00  0.00    -0.241 OA
ATOM     24  O   LIG d   1       6.126  91.262 118.213  0.00  0.00    -0.241 OA
ENDBRANCH   3  22
TORSDOF 7
ENDMDL
MODEL 4
REMARK VINA RESULT:      -4.6      1.311      2.024
REMARK  7 active torsions:
REMARK  status: ('A' for Active; 'I' for Inactive)
REMARK    1  A    between atoms: C_2  and  C_3 
REMARK    2  A    between atoms: C_3  and  O_6 
REMARK    3  A    between atoms: C_3  and  C_4 
REMARK    4  A    between atoms: C_7  and  O_6 
REMARK    5  A    between atoms: C_9  and  C_10 
REMARK    6  A    between atoms: N_15  and  C_14 
REMARK    7  A    between atoms: N_20  and  C_19 
REMARK       I    between atoms: C_22  and  N_20 
ROOT
ATOM      1  C   LIG d   1       3.594  88.757 115.346  0.00  0.00     0.161 C 
ATOM      2  C   LIG d   1       3.007  88.068 114.272  0.00  0.00     0.016 C 
ATOM      3  C   LIG d   1       3.654  87.866 113.031  0.00  0.00     0.038 C 
ATOM      4  C   LIG d   1       4.999  88.211 112.831  0.00  0.00     0.028 C 
ATOM      5  C   LIG d   1       5.468  89.360 113.717  0.00  0.00    -0.047 C 
ATOM      6  C   LIG d   1       5.101  89.044 115.185  0.00  0.00     0.091 C 
ENDROOT
BRANCH   1   7
ATOM      7  O   LIG d   1       3.347  88.046 116.576  0.00  0.00    -0.368 OA
BRANCH   7   8
ATOM      8  C   LIG d   1       2.536  86.851 116.469  0.00  0.00     0.119 C 
BRANCH   8   9
ATOM      9  C   LIG d   1       1.284  87.062 117.342  0.00  0.00     0.028 C 
ATOM     10  C   LIG d   1      -0.017  87.020 116.522  0.00  0.00     0.006 C 
ENDBRANCH   8   9
BRANCH   8  11
ATOM     11  C   LIG d   1       3.250  85.637 117.071  0.00  0.00     0.028 C 
ATOM     12  C   LIG d   1       4.781  85.752 117.003  0.00  0.00     0.006 C 
ENDBRANCH   8  11
ENDBRANCH   7   8
ENDBRANCH   1   7
BRANCH   6  13
ATOM     13  N   LIG d   1       5.449  90.155 116.109  0.00  0.00    -0.311 N 
ATOM     14  C   LIG d   1       6.256  90.011 117.158  0.00  0.00     0.210 C 
ATOM     15  C   LIG d   1       6.466  91.279 117.991  0.00  0.00     0.109 C 
ATOM     16  O   LIG d   1       6.843  88.961 117.460  0.00  0.00    -0.276 OA
ATOM     17  H   LIG d   1       5.042  91.050 115.919  0.00  0.00     0.149 HD
ENDBRANCH   6  13
BRANCH   5  18
ATOM     18  N   LIG d   1       6.918  89.523 113.505  0.00  0.00     0.381 N 
ATOM     19  H   LIG d   1       7.270  90.240 114.108  0.00  0.00    -0.090 HD
ATOM     20  H   LIG d   1       7.078  89.805 112.554  0.00  0.00    -0.090 HD
ATOM     21  H   LIG d   1       7.388  88.664 113.689  0.00  0.00    -0.090 HD
ENDBRANCH   5  18
BRANCH   3  22
ATOM     22  C   LIG d   1       2.941  87.349 111.960  0.00  0.00     0.382 C 
ATOM     23  O   LIG d   1       1.988  88.000 111.468  0.00  0.00    -0.241 OA
ATOM     24  O   LIG d   1       3.209  86.219 111.509  0.00  0.00    -0.241 OA
ENDBRANCH   3  22
TORSDOF 7
ENDMDL
MODEL 5
REMARK VINA RESULT:      -4.5      2.509      5.194
REMARK  7 active torsions:
REMARK  status: ('A' for Active; 'I' for Inactive)
REMARK    1  A    between atoms: C_2  and  C_3 
REMARK    2  A    between atoms: C_3  and  O_6 
REMARK    3  A    between atoms: C_3  and  C_4 
REMARK    4  A    between atoms: C_7  and  O_6 
REMARK    5  A    between atoms: C_9  and  C_10 
REMARK    6  A    between atoms: N_15  and  C_14 
REMARK    7  A    between atoms: N_20  and  C_19 
REMARK       I    between atoms: C_22  and  N_20 
ROOT
ATOM      1  C   LIG d   1       2.889  86.728 115.127  0.00  0.00     0.161 C 
ATOM      2  C   LIG d   1       1.787  86.416 115.940  0.00  0.00     0.016 C 
ATOM      3  C   LIG d   1       1.164  87.351 116.799  0.00  0.00     0.038 C 
ATOM      4  C   LIG d   1       1.508  88.711 116.789  0.00  0.00     0.028 C 
ATOM      5  C   LIG d   1       2.948  88.968 116.355  0.00  0.00    -0.047 C 
ATOM      6  C   LIG d   1       3.208  88.234 115.020  0.00  0.00     0.091 C 
ENDROOT
BRANCH   1   7
ATOM      7  O   LIG d   1       2.704  86.161 113.815  0.00  0.00    -0.368 OA
BRANCH   7   8
ATOM      8  C   LIG d   1       1.778  86.856 112.945  0.00  0.00     0.119 C 
BRANCH   8   9
ATOM      9  C   LIG d   1       0.634  85.878 112.612  0.00  0.00     0.028 C 
ATOM     10  C   LIG d   1      -0.232  86.366 111.439  0.00  0.00     0.006 C 
ENDBRANCH   8   9
BRANCH   8  11
ATOM     11  C   LIG d   1       2.425  87.196 111.599  0.00  0.00     0.028 C 
ATOM     12  C   LIG d   1       3.817  86.566 111.431  0.00  0.00     0.006 C 
ENDBRANCH   8  11
ENDBRANCH   7   8
ENDBRANCH   1   7
BRANCH   6  13
ATOM     13  N   LIG d   1       4.618  88.364 114.568  0.00  0.00    -0.311 N 
ATOM     14  C   LIG d   1       5.016  89.247 113.654  0.00  0.00     0.210 C 
ATOM     15  C   LIG d   1       6.510  89.201 113.317  0.00  0.00     0.109 C 
ATOM     16  O   LIG d   1       4.280  90.087 113.114  0.00  0.00    -0.276 OA
ATOM     17  H   LIG d   1       5.288  87.743 114.978  0.00  0.00     0.149 HD
ENDBRANCH   6  13
BRANCH   5  18
ATOM     18  N   LIG d   1       3.129  90.429 116.257  0.00  0.00     0.381 N 
ATOM     19  H   LIG d   1       3.087  90.837 117.169  0.00  0.00    -0.090 HD
ATOM     20  H   LIG d   1       2.383  90.813 115.704  0.00  0.00    -0.090 HD
ATOM     21  H   LIG d   1       4.007  90.635 115.834  0.00  0.00    -0.090 HD
ENDBRANCH   5  18
BRANCH   3  22
ATOM     22  C   LIG d   1       0.210  86.920 117.708  0.00  0.00     0.382 C 
ATOM     23  O   LIG d   1      -1.003  86.910 117.388  0.00  0.00    -0.241 OA
ATOM     24  O   LIG d   1       0.543  86.582 118.860  0.00  0.00    -0.241 OA
ENDBRANCH   3  22
TORSDOF 7
ENDMDL
MODEL 6
REMARK VINA RESULT:      -4.3      2.262      4.630
REMARK  7 active torsions:
REMARK  status: ('A' for Active; 'I' for Inactive)
REMARK    1  A    between atoms: C_2  and  C_3 
REMARK    2  A    between atoms: C_3  and  O_6 
REMARK    3  A    between atoms: C_3  and  C_4 
REMARK    4  A    between atoms: C_7  and  O_6 
REMARK    5  A    between atoms: C_9  and  C_10 
REMARK    6  A    between atoms: N_15  and  C_14 
REMARK    7  A    between atoms: N_20  and  C_19 
REMARK       I    between atoms: C_22  and  N_20 
ROOT
ATOM      1  C   LIG d   1       3.271  88.097 116.519  0.00  0.00     0.161 C 
ATOM      2  C   LIG d   1       2.091  87.365 116.305  0.00  0.00     0.016 C 
ATOM      3  C   LIG d   1       0.806  87.842 116.653  0.00  0.00     0.038 C 
ATOM      4  C   LIG d   1       0.599  89.154 117.103  0.00  0.00     0.028 C 
ATOM      5  C   LIG d   1       1.811  89.751 117.809  0.00  0.00    -0.047 C 
ATOM      6  C   LIG d   1       3.054  89.575 116.907  0.00  0.00     0.091 C 
ENDROOT
BRANCH   1   7
ATOM      7  O   LIG d   1       4.121  88.002 115.359  0.00  0.00    -0.368 OA
BRANCH   7   8
ATOM      8  C   LIG d   1       3.821  88.913 114.273  0.00  0.00     0.119 C 
BRANCH   8   9
ATOM      9  C   LIG d   1       3.261  88.075 113.108  0.00  0.00     0.028 C 
ATOM     10  C   LIG d   1       4.357  87.287 112.371  0.00  0.00     0.006 C 
ENDBRANCH   8   9
BRANCH   8  11
ATOM     11  C   LIG d   1       5.093  89.567 113.727  0.00  0.00     0.028 C 
ATOM     12  C   LIG d   1       6.306  89.377 114.652  0.00  0.00     0.006 C 
ENDBRANCH   8  11
ENDBRANCH   7   8
ENDBRANCH   1   7
BRANCH   6  13
ATOM     13  N   LIG d   1       4.300  90.056 117.557  0.00  0.00    -0.311 N 
ATOM     14  C   LIG d   1       4.751  91.305 117.445  0.00  0.00     0.210 C 
ATOM     15  C   LIG d   1       6.065  91.586 118.180  0.00  0.00     0.109 C 
ATOM     16  O   LIG d   1       4.170  92.214 116.833  0.00  0.00    -0.276 OA
ATOM     17  H   LIG d   1       4.818  89.392 118.099  0.00  0.00     0.149 HD
ENDBRANCH   6  13
BRANCH   5  18
ATOM     18  N   LIG d   1       1.506  91.164 118.102  0.00  0.00     0.381 N 
ATOM     19  H   LIG d   1       1.899  91.420 118.986  0.00  0.00    -0.090 HD
ATOM     20  H   LIG d   1       0.509  91.277 118.156  0.00  0.00    -0.090 HD
ATOM     21  H   LIG d   1       1.875  91.749 117.385  0.00  0.00    -0.090 HD
ENDBRANCH   5  18
BRANCH   3  22
ATOM     22  C   LIG d   1      -0.285  86.987 116.590  0.00  0.00     0.382 C 
ATOM     23  O   LIG d   1      -1.310  87.228 117.271  0.00  0.00    -0.241 OA
ATOM     24  O   LIG d   1      -0.239  85.956 115.893  0.00  0.00    -0.241 OA
ENDBRANCH   3  22
TORSDOF 7
ENDMDL
MODEL 7
REMARK VINA RESULT:      -4.3      2.282      4.684
REMARK  7 active torsions:
REMARK  status: ('A' for Active; 'I' for Inactive)
REMARK    1  A    between atoms: C_2  and  C_3 
REMARK    2  A    between atoms: C_3  and  O_6 
REMARK    3  A    between atoms: C_3  and  C_4 
REMARK    4  A    between atoms: C_7  and  O_6 
REMARK    5  A    between atoms: C_9  and  C_10 
REMARK    6  A    between atoms: N_15  and  C_14 
REMARK    7  A    between atoms: N_20  and  C_19 
REMARK       I    between atoms: C_22  and  N_20 
ROOT
ATOM      1  C   LIG d   1       4.155  88.972 116.735  0.00  0.00     0.161 C 
ATOM      2  C   LIG d   1       2.838  89.444 116.606  0.00  0.00     0.016 C 
ATOM      3  C   LIG d   1       2.427  90.729 117.028  0.00  0.00     0.038 C 
ATOM      4  C   LIG d   1       3.345  91.692 117.474  0.00  0.00     0.028 C 
ATOM      5  C   LIG d   1       4.602  91.089 118.094  0.00  0.00    -0.047 C 
ATOM      6  C   LIG d   1       5.193  90.048 117.117  0.00  0.00     0.091 C 
ENDROOT
BRANCH   1   7
ATOM      7  O   LIG d   1       4.554  88.298 115.524  0.00  0.00    -0.368 OA
BRANCH   7   8
ATOM      8  C   LIG d   1       3.834  88.669 114.323  0.00  0.00     0.119 C 
BRANCH   8   9
ATOM      9  C   LIG d   1       3.448  87.366 113.594  0.00  0.00     0.028 C 
ATOM     10  C   LIG d   1       2.895  87.625 112.183  0.00  0.00     0.006 C 
ENDBRANCH   8   9
BRANCH   8  11
ATOM     11  C   LIG d   1       4.736  89.428 113.345  0.00  0.00     0.028 C 
ATOM     12  C   LIG d   1       6.230  89.281 113.675  0.00  0.00     0.006 C 
ENDBRANCH   8  11
ENDBRANCH   7   8
ENDBRANCH   1   7
BRANCH   6  13
ATOM     13  N   LIG d   1       6.378  89.349 117.681  0.00  0.00    -0.311 N 
ATOM     14  C   LIG d   1       7.633  89.732 117.452  0.00  0.00     0.210 C 
ATOM     15  C   LIG d   1       8.705  88.861 118.113  0.00  0.00     0.109 C 
ATOM     16  O   LIG d   1       7.958  90.729 116.790  0.00  0.00    -0.276 OA
ATOM     17  H   LIG d   1       6.204  88.548 118.256  0.00  0.00     0.149 HD
ENDBRANCH   6  13
BRANCH   5  18
ATOM     18  N   LIG d   1       5.529  92.198 118.388  0.00  0.00     0.381 N 
ATOM     19  H   LIG d   1       5.259  93.012 117.873  0.00  0.00    -0.090 HD
ATOM     20  H   LIG d   1       6.454  91.934 118.098  0.00  0.00    -0.090 HD
ATOM     21  H   LIG d   1       5.524  92.397 119.365  0.00  0.00    -0.090 HD
ENDBRANCH   5  18
BRANCH   3  22
ATOM     22  C   LIG d   1       1.078  91.048 117.045  0.00  0.00     0.382 C 
ATOM     23  O   LIG d   1       0.696  92.131 117.551  0.00  0.00    -0.241 OA
ATOM     24  O   LIG d   1       0.234  90.248 116.600  0.00  0.00    -0.241 OA
ENDBRANCH   3  22
TORSDOF 7
ENDMDL
MODEL 8
REMARK VINA RESULT:      -4.0      3.277      5.759
REMARK  7 active torsions:
REMARK  status: ('A' for Active; 'I' for Inactive)
REMARK    1  A    between atoms: C_2  and  C_3 
REMARK    2  A    between atoms: C_3  and  O_6 
REMARK    3  A    between atoms: C_3  and  C_4 
REMARK    4  A    between atoms: C_7  and  O_6 
REMARK    5  A    between atoms: C_9  and  C_10 
REMARK    6  A    between atoms: N_15  and  C_14 
REMARK    7  A    between atoms: N_20  and  C_19 
REMARK       I    between atoms: C_22  and  N_20 
ROOT
ATOM      1  C   LIG d   1       0.914  89.010 117.158  0.00  0.00     0.161 C 
ATOM      2  C   LIG d   1      -0.485  88.885 117.130  0.00  0.00     0.016 C 
ATOM      3  C   LIG d   1      -1.365  89.884 117.606  0.00  0.00     0.038 C 
ATOM      4  C   LIG d   1      -0.905  91.147 118.008  0.00  0.00     0.028 C 
ATOM      5  C   LIG d   1       0.528  91.133 118.528  0.00  0.00    -0.047 C 
ATOM      6  C   LIG d   1       1.431  90.426 117.491  0.00  0.00     0.091 C 
ENDROOT
BRANCH   1   7
ATOM      7  O   LIG d   1       1.472  88.554 115.910  0.00  0.00    -0.368 OA
BRANCH   7   8
ATOM      8  C   LIG d   1       2.231  87.321 115.964  0.00  0.00     0.119 C 
BRANCH   8   9
ATOM      9  C   LIG d   1       3.706  87.674 115.690  0.00  0.00     0.028 C 
ATOM     10  C   LIG d   1       3.856  88.860 114.723  0.00  0.00     0.006 C 
ENDBRANCH   8   9
BRANCH   8  11
ATOM     11  C   LIG d   1       1.827  86.368 114.835  0.00  0.00     0.028 C 
ATOM     12  C   LIG d   1       0.332  86.011 114.864  0.00  0.00     0.006 C 
ENDBRANCH   8  11
ENDBRANCH   7   8
ENDBRANCH   1   7
BRANCH   6  13
ATOM     13  N   LIG d   1       2.835  90.294 117.958  0.00  0.00    -0.311 N 
ATOM     14  C   LIG d   1       3.795  91.164 117.649  0.00  0.00     0.210 C 
ATOM     15  C   LIG d   1       5.178  90.830 118.218  0.00  0.00     0.109 C 
ATOM     16  O   LIG d   1       3.626  92.198 116.986  0.00  0.00    -0.276 OA
ATOM     17  H   LIG d   1       3.054  89.500 118.528  0.00  0.00     0.149 HD
ENDBRANCH   6  13
BRANCH   5  18
ATOM     18  N   LIG d   1       0.924  92.531 118.781  0.00  0.00     0.381 N 
ATOM     19  H   LIG d   1       1.333  92.922 117.956  0.00  0.00    -0.090 HD
ATOM     20  H   LIG d   1       1.613  92.546 119.512  0.00  0.00    -0.090 HD
ATOM     21  H   LIG d   1       0.129  93.067 119.052  0.00  0.00    -0.090 HD
ENDBRANCH   5  18
BRANCH   3  22
ATOM     22  C   LIG d   1      -2.719  89.608 117.722  0.00  0.00     0.382 C 
ATOM     23  O   LIG d   1      -3.129  88.427 117.615  0.00  0.00    -0.241 OA
ATOM     24  O   LIG d   1      -3.540  90.530 117.887  0.00  0.00    -0.241 OA
ENDBRANCH   3  22
TORSDOF 7
ENDMDL
MODEL 9
REMARK VINA RESULT:      -3.9      2.572      4.390
REMARK  7 active torsions:
REMARK  status: ('A' for Active; 'I' for Inactive)
REMARK    1  A    between atoms: C_2  and  C_3 
REMARK    2  A    between atoms: C_3  and  O_6 
REMARK    3  A    between atoms: C_3  and  C_4 
REMARK    4  A    between atoms: C_7  and  O_6 
REMARK    5  A    between atoms: C_9  and  C_10 
REMARK    6  A    between atoms: N_15  and  C_14 
REMARK    7  A    between atoms: N_20  and  C_19 
REMARK       I    between atoms: C_22  and  N_20 
ROOT
ATOM      1  C   LIG d   1       3.194  89.754 116.430  0.00  0.00     0.161 C 
ATOM      2  C   LIG d   1       4.236  89.831 115.491  0.00  0.00     0.016 C 
ATOM      3  C   LIG d   1       4.385  88.921 114.418  0.00  0.00     0.038 C 
ATOM      4  C   LIG d   1       3.410  87.957 114.122  0.00  0.00     0.028 C 
ATOM      5  C   LIG d   1       2.601  87.521 115.339  0.00  0.00    -0.047 C 
ATOM      6  C   LIG d   1       2.059  88.777 116.058  0.00  0.00     0.091 C 
ENDROOT
BRANCH   1   7
ATOM      7  O   LIG d   1       2.662  91.071 116.677  0.00  0.00    -0.368 OA
BRANCH   7   8
ATOM      8  C   LIG d   1       3.356  91.863 117.671  0.00  0.00     0.119 C 
BRANCH   8   9
ATOM      9  C   LIG d   1       4.076  90.886 118.621  0.00  0.00     0.028 C 
ATOM     10  C   LIG d   1       5.555  91.253 118.829  0.00  0.00     0.006 C 
ENDBRANCH   8   9
BRANCH   8  11
ATOM     11  C   LIG d   1       2.372  92.636 118.554  0.00  0.00     0.028 C 
ATOM     12  C   LIG d   1       0.919  92.524 118.066  0.00  0.00     0.006 C 
ENDBRANCH   8  11
ENDBRANCH   7   8
ENDBRANCH   1   7
BRANCH   6  13
ATOM     13  N   LIG d   1       1.326  88.444 117.308  0.00  0.00    -0.311 N 
ATOM     14  C   LIG d   1       0.098  88.883 117.577  0.00  0.00     0.210 C 
ATOM     15  C   LIG d   1      -0.466  88.437 118.930  0.00  0.00     0.109 C 
ATOM     16  O   LIG d   1      -0.590  89.573 116.810  0.00  0.00    -0.276 OA
ATOM     17  H   LIG d   1       1.799  87.863 117.972  0.00  0.00     0.149 HD
ENDBRANCH   6  13
BRANCH   5  18
ATOM     18  N   LIG d   1       1.533  86.621 114.865  0.00  0.00     0.381 N 
ATOM     19  H   LIG d   1       0.667  87.119 114.816  0.00  0.00    -0.090 HD
ATOM     20  H   LIG d   1       1.427  85.868 115.522  0.00  0.00    -0.090 HD
ATOM     21  H   LIG d   1       1.767  86.257 113.967  0.00  0.00    -0.090 HD
ENDBRANCH   5  18
BRANCH   3  22
ATOM     22  C   LIG d   1       5.541  88.946 113.652  0.00  0.00     0.382 C 
ATOM     23  O   LIG d   1       6.546  89.579 114.054  0.00  0.00    -0.241 OA
ATOM     24  O   LIG d   1       5.576  88.379 112.543  0.00  0.00    -0.241 OA
ENDBRANCH   3  22
TORSDOF 7
ENDMDL
