MODEL 1
REMARK VINA RESULT:      -5.0      0.000      0.000
REMARK  7 active torsions:
REMARK  status: ('A' for Active; 'I' for Inactive)
REMARK    1  A    between atoms: C_2  and  C_3 
REMARK    2  A    between atoms: C_3  and  O_6 
REMARK    3  A    between atoms: C_3  and  C_4 
REMARK    4  A    between atoms: C_7  and  O_6 
REMARK    5  A    between atoms: C_9  and  C_10 
REMARK    6  A    between atoms: N_15  and  C_14 
REMARK    7  A    between atoms: N_20  and  C_19 
REMARK       I    between atoms: C_22  and  N_20 
ROOT
ATOM      1  C   LIG d   1       3.836  89.295 116.000  0.00  0.00     0.161 C 
ATOM      2  C   LIG d   1       4.392  90.435 116.603  0.00  0.00     0.016 C 
ATOM      3  C   LIG d   1       3.621  91.429 117.248  0.00  0.00     0.038 C 
ATOM      4  C   LIG d   1       2.245  91.273 117.468  0.00  0.00     0.028 C 
ATOM      5  C   LIG d   1       1.564  90.380 116.436  0.00  0.00    -0.047 C 
ATOM      6  C   LIG d   1       2.347  89.052 116.327  0.00  0.00     0.091 C 
ENDROOT
BRANCH   1   7
ATOM      7  O   LIG d   1       4.618  88.132 116.338  0.00  0.00    -0.368 OA
BRANCH   7   8
ATOM      8  C   LIG d   1       5.431  87.580 115.273  0.00  0.00     0.119 C 
BRANCH   8   9
ATOM      9  C   LIG d   1       6.879  88.055 115.502  0.00  0.00     0.028 C 
ATOM     10  C   LIG d   1       7.784  86.937 116.047  0.00  0.00     0.006 C 
ENDBRANCH   8   9
BRANCH   8  11
ATOM     11  C   LIG d   1       5.028  88.152 113.911  0.00  0.00     0.028 C 
ATOM     12  C   LIG d   1       6.228  88.671 113.103  0.00  0.00     0.006 C 
ENDBRANCH   8  11
ENDBRANCH   7   8
ENDBRANCH   1   7
BRANCH   6  13
ATOM     13  N   LIG d   1       1.797  88.154 115.279  0.00  0.00    -0.311 N 
ATOM     14  C   LIG d   1       1.577  86.854 115.469  0.00  0.00     0.210 C 
ATOM     15  C   LIG d   1       1.024  86.107 114.250  0.00  0.00     0.109 C 
ATOM     16  O   LIG d   1       1.756  86.256 116.540  0.00  0.00    -0.276 OA
ATOM     17  H   LIG d   1       1.594  88.564 114.388  0.00  0.00     0.149 HD
ENDBRANCH   6  13
BRANCH   5  18
ATOM     18  N   LIG d   1       0.164  90.193 116.863  0.00  0.00     0.381 N 
ATOM     19  H   LIG d   1      -0.217  91.067 117.167  0.00  0.00    -0.090 HD
ATOM     20  H   LIG d   1       0.144  89.554 117.639  0.00  0.00    -0.090 HD
ATOM     21  H   LIG d   1      -0.376  89.830 116.110  0.00  0.00    -0.090 HD
ENDBRANCH   5  18
BRANCH   3  22
ATOM     22  C   LIG d   1       4.222  92.614 117.646  0.00  0.00     0.382 C 
ATOM     23  O   LIG d   1       4.004  93.672 117.008  0.00  0.00    -0.241 OA
ATOM     24  O   LIG d   1       5.013  92.629 118.608  0.00  0.00    -0.241 OA
ENDBRANCH   3  22
TORSDOF 7
ENDMDL
MODEL 2
REMARK VINA RESULT:      -5.0      2.669      4.693
REMARK  7 active torsions:
REMARK  status: ('A' for Active; 'I' for Inactive)
REMARK    1  A    between atoms: C_2  and  C_3 
REMARK    2  A    between atoms: C_3  and  O_6 
REMARK    3  A    between atoms: C_3  and  C_4 
REMARK    4  A    between atoms: C_7  and  O_6 
REMARK    5  A    between atoms: C_9  and  C_10 
REMARK    6  A    between atoms: N_15  and  C_14 
REMARK    7  A    between atoms: N_20  and  C_19 
REMARK       I    between atoms: C_22  and  N_20 
ROOT
ATOM      1  C   LIG d   1       4.034  88.074 115.225  0.00  0.00     0.161 C 
ATOM      2  C   LIG d   1       4.630  88.894 116.198  0.00  0.00     0.016 C 
ATOM      3  C   LIG d   1       5.862  89.560 116.006  0.00  0.00     0.038 C 
ATOM      4  C   LIG d   1       6.513  89.571 114.763  0.00  0.00     0.028 C 
ATOM      5  C   LIG d   1       6.207  88.346 113.908  0.00  0.00    -0.047 C 
ATOM      6  C   LIG d   1       4.674  88.163 113.824  0.00  0.00     0.091 C 
ENDROOT
BRANCH   1   7
ATOM      7  O   LIG d   1       2.622  88.351 115.150  0.00  0.00    -0.368 OA
BRANCH   7   8
ATOM      8  C   LIG d   1       1.801  87.765 116.189  0.00  0.00     0.119 C 
BRANCH   8   9
ATOM      9  C   LIG d   1       0.844  86.764 115.512  0.00  0.00     0.028 C 
ATOM     10  C   LIG d   1       1.545  85.451 115.126  0.00  0.00     0.006 C 
ENDBRANCH   8   9
BRANCH   8  11
ATOM     11  C   LIG d   1       0.895  88.813 116.842  0.00  0.00     0.028 C 
ATOM     12  C   LIG d   1       1.261  89.084 118.310  0.00  0.00     0.006 C 
ENDBRANCH   8  11
ENDBRANCH   7   8
ENDBRANCH   1   7
BRANCH   6  13
ATOM     13  N   LIG d   1       4.290  86.938 113.075  0.00  0.00    -0.311 N 
ATOM     14  C   LIG d   1       3.442  86.943 112.048  0.00  0.00     0.210 C 
ATOM     15  C   LIG d   1       3.167  85.568 111.430  0.00  0.00     0.109 C 
ATOM     16  O   LIG d   1       2.916  87.959 111.569  0.00  0.00    -0.276 OA
ATOM     17  H   LIG d   1       4.694  86.073 113.377  0.00  0.00     0.149 HD
ENDBRANCH   6  13
BRANCH   5  18
ATOM     18  N   LIG d   1       6.837  88.553 112.591  0.00  0.00     0.381 N 
ATOM     19  H   LIG d   1       6.496  89.399 112.181  0.00  0.00    -0.090 HD
ATOM     20  H   LIG d   1       6.589  87.788 111.988  0.00  0.00    -0.090 HD
ATOM     21  H   LIG d   1       7.828  88.599 112.690  0.00  0.00    -0.090 HD
ENDBRANCH   5  18
BRANCH   3  22
ATOM     22  C   LIG d   1       6.476  90.192 117.076  0.00  0.00     0.382 C 
ATOM     23  O   LIG d   1       7.633  90.660 116.948  0.00  0.00    -0.241 OA
ATOM     24  O   LIG d   1       5.906  90.260 118.181  0.00  0.00    -0.241 OA
ENDBRANCH   3  22
TORSDOF 7
ENDMDL
MODEL 3
REMARK VINA RESULT:      -5.0      0.389      1.593
REMARK  7 active torsions:
REMARK  status: ('A' for Active; 'I' for Inactive)
REMARK    1  A    between atoms: C_2  and  C_3 
REMARK    2  A    between atoms: C_3  and  O_6 
REMARK    3  A    between atoms: C_3  and  C_4 
REMARK    4  A    between atoms: C_7  and  O_6 
REMARK    5  A    between atoms: C_9  and  C_10 
REMARK    6  A    between atoms: N_15  and  C_14 
REMARK    7  A    between atoms: N_20  and  C_19 
REMARK       I    between atoms: C_22  and  N_20 
ROOT
ATOM      1  C   LIG d   1       3.733  89.340 116.020  0.00  0.00     0.161 C 
ATOM      2  C   LIG d   1       4.266  90.484 116.635  0.00  0.00     0.016 C 
ATOM      3  C   LIG d   1       3.475  91.455 117.292  0.00  0.00     0.038 C 
ATOM      4  C   LIG d   1       2.102  91.267 117.511  0.00  0.00     0.028 C 
ATOM      5  C   LIG d   1       1.439  90.372 116.470  0.00  0.00    -0.047 C 
ATOM      6  C   LIG d   1       2.250  89.062 116.345  0.00  0.00     0.091 C 
ENDROOT
BRANCH   1   7
ATOM      7  O   LIG d   1       4.540  88.190 116.343  0.00  0.00    -0.368 OA
BRANCH   7   8
ATOM      8  C   LIG d   1       5.753  88.025 115.567  0.00  0.00     0.119 C 
BRANCH   8   9
ATOM      9  C   LIG d   1       5.346  87.943 114.083  0.00  0.00     0.028 C 
ATOM     10  C   LIG d   1       6.247  88.801 113.180  0.00  0.00     0.006 C 
ENDBRANCH   8   9
BRANCH   8  11
ATOM     11  C   LIG d   1       6.433  86.687 115.875  0.00  0.00     0.028 C 
ATOM     12  C   LIG d   1       7.965  86.795 115.923  0.00  0.00     0.006 C 
ENDBRANCH   8  11
ENDBRANCH   7   8
ENDBRANCH   1   7
BRANCH   6  13
ATOM     13  N   LIG d   1       1.718  88.165 115.286  0.00  0.00    -0.311 N 
ATOM     14  C   LIG d   1       1.537  86.856 115.457  0.00  0.00     0.210 C 
ATOM     15  C   LIG d   1       0.997  86.113 114.231  0.00  0.00     0.109 C 
ATOM     16  O   LIG d   1       1.743  86.246 116.517  0.00  0.00    -0.276 OA
ATOM     17  H   LIG d   1       1.495  88.582 114.404  0.00  0.00     0.149 HD
ENDBRANCH   6  13
BRANCH   5  18
ATOM     18  N   LIG d   1       0.044  90.150 116.896  0.00  0.00     0.381 N 
ATOM     19  H   LIG d   1      -0.573  90.290 116.121  0.00  0.00    -0.090 HD
ATOM     20  H   LIG d   1      -0.188  90.820 117.608  0.00  0.00    -0.090 HD
ATOM     21  H   LIG d   1      -0.061  89.226 117.251  0.00  0.00    -0.090 HD
ENDBRANCH   5  18
BRANCH   3  22
ATOM     22  C   LIG d   1       4.051  92.647 117.703  0.00  0.00     0.382 C 
ATOM     23  O   LIG d   1       4.564  92.735 118.845  0.00  0.00    -0.241 OA
ATOM     24  O   LIG d   1       4.025  93.649 116.964  0.00  0.00    -0.241 OA
ENDBRANCH   3  22
TORSDOF 7
ENDMDL
MODEL 4
REMARK VINA RESULT:      -4.8      2.476      4.437
REMARK  7 active torsions:
REMARK  status: ('A' for Active; 'I' for Inactive)
REMARK    1  A    between atoms: C_2  and  C_3 
REMARK    2  A    between atoms: C_3  and  O_6 
REMARK    3  A    between atoms: C_3  and  C_4 
REMARK    4  A    between atoms: C_7  and  O_6 
REMARK    5  A    between atoms: C_9  and  C_10 
REMARK    6  A    between atoms: N_15  and  C_14 
REMARK    7  A    between atoms: N_20  and  C_19 
REMARK       I    between atoms: C_22  and  N_20 
ROOT
ATOM      1  C   LIG d   1       2.316  88.702 116.113  0.00  0.00     0.161 C 
ATOM      2  C   LIG d   1       1.035  89.048 116.576  0.00  0.00     0.016 C 
ATOM      3  C   LIG d   1       0.753  90.256 117.254  0.00  0.00     0.038 C 
ATOM      4  C   LIG d   1       1.708  91.275 117.383  0.00  0.00     0.028 C 
ATOM      5  C   LIG d   1       3.145  90.763 117.377  0.00  0.00    -0.047 C 
ATOM      6  C   LIG d   1       3.347  89.850 116.146  0.00  0.00     0.091 C 
ENDROOT
BRANCH   1   7
ATOM      7  O   LIG d   1       2.222  88.151 114.784  0.00  0.00    -0.368 OA
BRANCH   7   8
ATOM      8  C   LIG d   1       2.441  86.723 114.670  0.00  0.00     0.119 C 
BRANCH   8   9
ATOM      9  C   LIG d   1       3.675  86.513 113.772  0.00  0.00     0.028 C 
ATOM     10  C   LIG d   1       3.557  87.254 112.430  0.00  0.00     0.006 C 
ENDBRANCH   8   9
BRANCH   8  11
ATOM     11  C   LIG d   1       1.284  86.039 113.936  0.00  0.00     0.028 C 
ATOM     12  C   LIG d   1       0.051  85.829 114.830  0.00  0.00     0.006 C 
ENDBRANCH   8  11
ENDBRANCH   7   8
ENDBRANCH   1   7
BRANCH   6  13
ATOM     13  N   LIG d   1       4.701  89.239 116.109  0.00  0.00    -0.311 N 
ATOM     14  C   LIG d   1       5.522  89.337 115.065  0.00  0.00     0.210 C 
ATOM     15  C   LIG d   1       6.864  88.617 115.227  0.00  0.00     0.109 C 
ATOM     16  O   LIG d   1       5.279  89.980 114.032  0.00  0.00    -0.276 OA
ATOM     17  H   LIG d   1       4.992  88.725 116.918  0.00  0.00     0.149 HD
ENDBRANCH   6  13
BRANCH   5  18
ATOM     18  N   LIG d   1       4.037  91.937 117.378  0.00  0.00     0.381 N 
ATOM     19  H   LIG d   1       4.893  91.713 116.913  0.00  0.00    -0.090 HD
ATOM     20  H   LIG d   1       4.249  92.183 118.329  0.00  0.00    -0.090 HD
ATOM     21  H   LIG d   1       3.593  92.703 116.922  0.00  0.00    -0.090 HD
ENDBRANCH   5  18
BRANCH   3  22
ATOM     22  C   LIG d   1      -0.487  90.437 117.847  0.00  0.00     0.382 C 
ATOM     23  O   LIG d   1      -0.839  91.580 118.228  0.00  0.00    -0.241 OA
ATOM     24  O   LIG d   1      -1.240  89.465 118.047  0.00  0.00    -0.241 OA
ENDBRANCH   3  22
TORSDOF 7
ENDMDL
MODEL 5
REMARK VINA RESULT:      -4.6      1.906      2.402
REMARK  7 active torsions:
REMARK  status: ('A' for Active; 'I' for Inactive)
REMARK    1  A    between atoms: C_2  and  C_3 
REMARK    2  A    between atoms: C_3  and  O_6 
REMARK    3  A    between atoms: C_3  and  C_4 
REMARK    4  A    between atoms: C_7  and  O_6 
REMARK    5  A    between atoms: C_9  and  C_10 
REMARK    6  A    between atoms: N_15  and  C_14 
REMARK    7  A    between atoms: N_20  and  C_19 
REMARK       I    between atoms: C_22  and  N_20 
ROOT
ATOM      1  C   LIG d   1       4.102  88.388 115.643  0.00  0.00     0.161 C 
ATOM      2  C   LIG d   1       3.775  89.580 116.310  0.00  0.00     0.016 C 
ATOM      3  C   LIG d   1       2.464  89.902 116.731  0.00  0.00     0.038 C 
ATOM      4  C   LIG d   1       1.411  88.979 116.647  0.00  0.00     0.028 C 
ATOM      5  C   LIG d   1       1.585  87.961 115.525  0.00  0.00    -0.047 C 
ATOM      6  C   LIG d   1       2.987  87.321 115.642  0.00  0.00     0.091 C 
ENDROOT
BRANCH   1   7
ATOM      7  O   LIG d   1       5.319  87.840 116.189  0.00  0.00    -0.368 OA
BRANCH   7   8
ATOM      8  C   LIG d   1       6.430  87.715 115.268  0.00  0.00     0.119 C 
BRANCH   8   9
ATOM      9  C   LIG d   1       7.728  87.805 116.094  0.00  0.00     0.028 C 
ATOM     10  C   LIG d   1       7.641  88.859 117.210  0.00  0.00     0.006 C 
ENDBRANCH   8   9
BRANCH   8  11
ATOM     11  C   LIG d   1       6.485  88.898 114.297  0.00  0.00     0.028 C 
ATOM     12  C   LIG d   1       6.396  88.465 112.825  0.00  0.00     0.006 C 
ENDBRANCH   8  11
ENDBRANCH   7   8
ENDBRANCH   1   7
BRANCH   6  13
ATOM     13  N   LIG d   1       3.272  86.374 114.532  0.00  0.00    -0.311 N 
ATOM     14  C   LIG d   1       3.185  86.705 113.245  0.00  0.00     0.210 C 
ATOM     15  C   LIG d   1       3.502  85.573 112.263  0.00  0.00     0.109 C 
ATOM     16  O   LIG d   1       2.906  87.838 112.824  0.00  0.00    -0.276 OA
ATOM     17  H   LIG d   1       3.536  85.441 114.784  0.00  0.00     0.149 HD
ENDBRANCH   6  13
BRANCH   5  18
ATOM     18  N   LIG d   1       0.490  86.980 115.638  0.00  0.00     0.381 N 
ATOM     19  H   LIG d   1      -0.318  87.317 115.155  0.00  0.00    -0.090 HD
ATOM     20  H   LIG d   1       0.253  86.868 116.609  0.00  0.00    -0.090 HD
ATOM     21  H   LIG d   1       0.775  86.105 115.256  0.00  0.00    -0.090 HD
ENDBRANCH   5  18
BRANCH   3  22
ATOM     22  C   LIG d   1       2.188  91.174 117.207  0.00  0.00     0.382 C 
ATOM     23  O   LIG d   1       1.137  91.386 117.859  0.00  0.00    -0.241 OA
ATOM     24  O   LIG d   1       2.954  92.123 116.954  0.00  0.00    -0.241 OA
ENDBRANCH   3  22
TORSDOF 7
ENDMDL
MODEL 6
REMARK VINA RESULT:      -4.5      3.097      6.145
REMARK  7 active torsions:
REMARK  status: ('A' for Active; 'I' for Inactive)
REMARK    1  A    between atoms: C_2  and  C_3 
REMARK    2  A    between atoms: C_3  and  O_6 
REMARK    3  A    between atoms: C_3  and  C_4 
REMARK    4  A    between atoms: C_7  and  O_6 
REMARK    5  A    between atoms: C_9  and  C_10 
REMARK    6  A    between atoms: N_15  and  C_14 
REMARK    7  A    between atoms: N_20  and  C_19 
REMARK       I    between atoms: C_22  and  N_20 
ROOT
ATOM      1  C   LIG d   1       4.262  88.102 115.240  0.00  0.00     0.161 C 
ATOM      2  C   LIG d   1       3.624  87.379 114.218  0.00  0.00     0.016 C 
ATOM      3  C   LIG d   1       4.064  87.380 112.874  0.00  0.00     0.038 C 
ATOM      4  C   LIG d   1       5.269  87.986 112.489  0.00  0.00     0.028 C 
ATOM      5  C   LIG d   1       5.677  89.148 113.388  0.00  0.00    -0.047 C 
ATOM      6  C   LIG d   1       5.641  88.680 114.861  0.00  0.00     0.091 C 
ENDROOT
BRANCH   1   7
ATOM      7  O   LIG d   1       4.369  87.284 116.422  0.00  0.00    -0.368 OA
BRANCH   7   8
ATOM      8  C   LIG d   1       3.550  87.682 117.549  0.00  0.00     0.119 C 
BRANCH   8   9
ATOM      9  C   LIG d   1       2.462  86.606 117.733  0.00  0.00     0.028 C 
ATOM     10  C   LIG d   1       2.902  85.483 118.687  0.00  0.00     0.006 C 
ENDBRANCH   8   9
BRANCH   8  11
ATOM     11  C   LIG d   1       2.791  88.980 117.256  0.00  0.00     0.028 C 
ATOM     12  C   LIG d   1       1.266  88.798 117.285  0.00  0.00     0.006 C 
ENDBRANCH   8  11
ENDBRANCH   7   8
ENDBRANCH   1   7
BRANCH   6  13
ATOM     13  N   LIG d   1       5.946  89.779 115.813  0.00  0.00    -0.311 N 
ATOM     14  C   LIG d   1       7.013  89.784 116.610  0.00  0.00     0.210 C 
ATOM     15  C   LIG d   1       7.127  91.004 117.529  0.00  0.00     0.109 C 
ATOM     16  O   LIG d   1       7.892  88.910 116.620  0.00  0.00    -0.276 OA
ATOM     17  H   LIG d   1       5.301  90.544 115.848  0.00  0.00     0.149 HD
ENDBRANCH   6  13
BRANCH   5  18
ATOM     18  N   LIG d   1       7.014  89.598 112.957  0.00  0.00     0.381 N 
ATOM     19  H   LIG d   1       7.658  88.833 112.996  0.00  0.00    -0.090 HD
ATOM     20  H   LIG d   1       7.336  90.312 113.586  0.00  0.00    -0.090 HD
ATOM     21  H   LIG d   1       6.970  89.957 112.029  0.00  0.00    -0.090 HD
ENDBRANCH   5  18
BRANCH   3  22
ATOM     22  C   LIG d   1       3.275  86.801 111.892  0.00  0.00     0.382 C 
ATOM     23  O   LIG d   1       3.574  85.674 111.430  0.00  0.00    -0.241 OA
ATOM     24  O   LIG d   1       2.292  87.412 111.431  0.00  0.00    -0.241 OA
ENDBRANCH   3  22
TORSDOF 7
ENDMDL
MODEL 7
REMARK VINA RESULT:      -4.4      2.901      4.734
REMARK  7 active torsions:
REMARK  status: ('A' for Active; 'I' for Inactive)
REMARK    1  A    between atoms: C_2  and  C_3 
REMARK    2  A    between atoms: C_3  and  O_6 
REMARK    3  A    between atoms: C_3  and  C_4 
REMARK    4  A    between atoms: C_7  and  O_6 
REMARK    5  A    between atoms: C_9  and  C_10 
REMARK    6  A    between atoms: N_15  and  C_14 
REMARK    7  A    between atoms: N_20  and  C_19 
REMARK       I    between atoms: C_22  and  N_20 
ROOT
ATOM      1  C   LIG d   1       5.279  87.630 116.272  0.00  0.00     0.161 C 
ATOM      2  C   LIG d   1       4.237  88.569 116.194  0.00  0.00     0.016 C 
ATOM      3  C   LIG d   1       4.309  89.860 116.766  0.00  0.00     0.038 C 
ATOM      4  C   LIG d   1       5.494  90.356 117.329  0.00  0.00     0.028 C 
ATOM      5  C   LIG d   1       6.408  89.265 117.878  0.00  0.00    -0.047 C 
ATOM      6  C   LIG d   1       6.620  88.193 116.785  0.00  0.00     0.091 C 
ENDROOT
BRANCH   1   7
ATOM      7  O   LIG d   1       5.460  86.993 114.991  0.00  0.00    -0.368 OA
BRANCH   7   8
ATOM      8  C   LIG d   1       4.853  87.660 113.857  0.00  0.00     0.119 C 
BRANCH   8   9
ATOM      9  C   LIG d   1       4.107  86.590 113.036  0.00  0.00     0.028 C 
ATOM     10  C   LIG d   1       4.322  86.756 111.522  0.00  0.00     0.006 C 
ENDBRANCH   8   9
BRANCH   8  11
ATOM     11  C   LIG d   1       5.915  88.229 112.911  0.00  0.00     0.028 C 
ATOM     12  C   LIG d   1       6.464  89.586 113.379  0.00  0.00     0.006 C 
ENDBRANCH   8  11
ENDBRANCH   7   8
ENDBRANCH   1   7
BRANCH   6  13
ATOM     13  N   LIG d   1       7.434  87.046 117.267  0.00  0.00    -0.311 N 
ATOM     14  C   LIG d   1       8.763  87.003 117.180  0.00  0.00     0.210 C 
ATOM     15  C   LIG d   1       9.404  85.720 117.719  0.00  0.00     0.109 C 
ATOM     16  O   LIG d   1       9.473  87.918 116.738  0.00  0.00    -0.276 OA
ATOM     17  H   LIG d   1       6.941  86.274 117.669  0.00  0.00     0.149 HD
ENDBRANCH   6  13
BRANCH   5  18
ATOM     18  N   LIG d   1       7.663  89.910 118.308  0.00  0.00     0.381 N 
ATOM     19  H   LIG d   1       7.846  90.710 117.736  0.00  0.00    -0.090 HD
ATOM     20  H   LIG d   1       8.419  89.259 118.191  0.00  0.00    -0.090 HD
ATOM     21  H   LIG d   1       7.596  90.183 119.263  0.00  0.00    -0.090 HD
ENDBRANCH   5  18
BRANCH   3  22
ATOM     22  C   LIG d   1       3.174  90.654 116.814  0.00  0.00     0.382 C 
ATOM     23  O   LIG d   1       3.279  91.903 116.750  0.00  0.00    -0.241 OA
ATOM     24  O   LIG d   1       2.049  90.141 116.965  0.00  0.00    -0.241 OA
ENDBRANCH   3  22
TORSDOF 7
ENDMDL
MODEL 8
REMARK VINA RESULT:      -4.3      2.418      3.477
REMARK  7 active torsions:
REMARK  status: ('A' for Active; 'I' for Inactive)
REMARK    1  A    between atoms: C_2  and  C_3 
REMARK    2  A    between atoms: C_3  and  O_6 
REMARK    3  A    between atoms: C_3  and  C_4 
REMARK    4  A    between atoms: C_7  and  O_6 
REMARK    5  A    between atoms: C_9  and  C_10 
REMARK    6  A    between atoms: N_15  and  C_14 
REMARK    7  A    between atoms: N_20  and  C_19 
REMARK       I    between atoms: C_22  and  N_20 
ROOT
ATOM      1  C   LIG d   1       3.507  88.572 115.572  0.00  0.00     0.161 C 
ATOM      2  C   LIG d   1       2.734  89.532 116.247  0.00  0.00     0.016 C 
ATOM      3  C   LIG d   1       1.403  89.305 116.666  0.00  0.00     0.038 C 
ATOM      4  C   LIG d   1       0.801  88.042 116.571  0.00  0.00     0.028 C 
ATOM      5  C   LIG d   1       1.364  87.186 115.441  0.00  0.00    -0.047 C 
ATOM      6  C   LIG d   1       2.905  87.151 115.559  0.00  0.00     0.091 C 
ENDROOT
BRANCH   1   7
ATOM      7  O   LIG d   1       4.840  88.546 116.118  0.00  0.00    -0.368 OA
BRANCH   7   8
ATOM      8  C   LIG d   1       5.805  89.423 115.486  0.00  0.00     0.119 C 
BRANCH   8   9
ATOM      9  C   LIG d   1       6.581  88.586 114.450  0.00  0.00     0.028 C 
ATOM     10  C   LIG d   1       6.305  89.037 113.006  0.00  0.00     0.006 C 
ENDBRANCH   8   9
BRANCH   8  11
ATOM     11  C   LIG d   1       6.859  89.907 116.486  0.00  0.00     0.028 C 
ATOM     12  C   LIG d   1       6.265  90.787 117.597  0.00  0.00     0.006 C 
ENDBRANCH   8  11
ENDBRANCH   7   8
ENDBRANCH   1   7
BRANCH   6  13
ATOM     13  N   LIG d   1       3.542  86.404 114.443  0.00  0.00    -0.311 N 
ATOM     14  C   LIG d   1       3.419  86.752 113.163  0.00  0.00     0.210 C 
ATOM     15  C   LIG d   1       4.140  85.834 112.171  0.00  0.00     0.109 C 
ATOM     16  O   LIG d   1       2.808  87.752 112.758  0.00  0.00    -0.276 OA
ATOM     17  H   LIG d   1       4.082  85.596 114.685  0.00  0.00     0.149 HD
ENDBRANCH   6  13
BRANCH   5  18
ATOM     18  N   LIG d   1       0.747  85.850 115.544  0.00  0.00     0.381 N 
ATOM     19  H   LIG d   1       0.832  85.508 116.480  0.00  0.00    -0.090 HD
ATOM     20  H   LIG d   1       1.233  85.219 114.932  0.00  0.00    -0.090 HD
ATOM     21  H   LIG d   1      -0.215  85.899 115.287  0.00  0.00    -0.090 HD
ENDBRANCH   5  18
BRANCH   3  22
ATOM     22  C   LIG d   1       0.646  90.361 117.150  0.00  0.00     0.382 C 
ATOM     23  O   LIG d   1      -0.376  90.134 117.842  0.00  0.00    -0.241 OA
ATOM     24  O   LIG d   1       0.946  91.536 116.867  0.00  0.00    -0.241 OA
ENDBRANCH   3  22
TORSDOF 7
ENDMDL
MODEL 9
REMARK VINA RESULT:      -4.2      2.799      6.221
REMARK  7 active torsions:
REMARK  status: ('A' for Active; 'I' for Inactive)
REMARK    1  A    between atoms: C_2  and  C_3 
REMARK    2  A    between atoms: C_3  and  O_6 
REMARK    3  A    between atoms: C_3  and  C_4 
REMARK    4  A    between atoms: C_7  and  O_6 
REMARK    5  A    between atoms: C_9  and  C_10 
REMARK    6  A    between atoms: N_15  and  C_14 
REMARK    7  A    between atoms: N_20  and  C_19 
REMARK       I    between atoms: C_22  and  N_20 
ROOT
ATOM      1  C   LIG d   1       4.443  89.646 116.186  0.00  0.00     0.161 C 
ATOM      2  C   LIG d   1       3.630  88.791 115.423  0.00  0.00     0.016 C 
ATOM      3  C   LIG d   1       4.122  87.660 114.733  0.00  0.00     0.038 C 
ATOM      4  C   LIG d   1       5.445  87.217 114.884  0.00  0.00     0.028 C 
ATOM      5  C   LIG d   1       6.421  88.333 115.240  0.00  0.00    -0.047 C 
ATOM      6  C   LIG d   1       5.867  89.115 116.453  0.00  0.00     0.091 C 
ENDROOT
BRANCH   1   7
ATOM      7  O   LIG d   1       3.786  89.964 117.429  0.00  0.00    -0.368 OA
BRANCH   7   8
ATOM      8  C   LIG d   1       3.080  91.228 117.471  0.00  0.00     0.119 C 
BRANCH   8   9
ATOM      9  C   LIG d   1       3.760  92.103 118.542  0.00  0.00     0.028 C 
ATOM     10  C   LIG d   1       4.751  93.110 117.934  0.00  0.00     0.006 C 
ENDBRANCH   8   9
BRANCH   8  11
ATOM     11  C   LIG d   1       1.638  91.045 117.953  0.00  0.00     0.028 C 
ATOM     12  C   LIG d   1       0.687  90.595 116.832  0.00  0.00     0.006 C 
ENDBRANCH   8  11
ENDBRANCH   7   8
ENDBRANCH   1   7
BRANCH   6  13
ATOM     13  N   LIG d   1       6.720  90.278 116.815  0.00  0.00    -0.311 N 
ATOM     14  C   LIG d   1       7.670  90.228 117.747  0.00  0.00     0.210 C 
ATOM     15  C   LIG d   1       8.418  91.545 117.978  0.00  0.00     0.109 C 
ATOM     16  O   LIG d   1       7.985  89.211 118.382  0.00  0.00    -0.276 OA
ATOM     17  H   LIG d   1       6.553  91.135 116.326  0.00  0.00     0.149 HD
ENDBRANCH   6  13
BRANCH   5  18
ATOM     18  N   LIG d   1       7.732  87.711 115.502  0.00  0.00     0.381 N 
ATOM     19  H   LIG d   1       7.642  87.019 116.219  0.00  0.00    -0.090 HD
ATOM     20  H   LIG d   1       8.369  88.419 115.826  0.00  0.00    -0.090 HD
ATOM     21  H   LIG d   1       8.085  87.294 114.669  0.00  0.00    -0.090 HD
ENDBRANCH   5  18
BRANCH   3  22
ATOM     22  C   LIG d   1       3.297  86.981 113.849  0.00  0.00     0.382 C 
ATOM     23  O   LIG d   1       2.701  87.609 112.941  0.00  0.00    -0.241 OA
ATOM     24  O   LIG d   1       3.107  85.757 113.975  0.00  0.00    -0.241 OA
ENDBRANCH   3  22
TORSDOF 7
ENDMDL
