MODEL 1
REMARK VINA RESULT:      -5.1      0.000      0.000
REMARK  7 active torsions:
REMARK  status: ('A' for Active; 'I' for Inactive)
REMARK    1  A    between atoms: C_2  and  C_3 
REMARK    2  A    between atoms: C_3  and  O_6 
REMARK    3  A    between atoms: C_3  and  C_4 
REMARK    4  A    between atoms: C_7  and  O_6 
REMARK    5  A    between atoms: C_9  and  C_10 
REMARK    6  A    between atoms: N_15  and  C_14 
REMARK    7  A    between atoms: N_20  and  C_19 
REMARK       I    between atoms: C_22  and  N_20 
ROOT
ATOM      1  C   LIG d   1      -6.572  91.365 118.375  0.00  0.00     0.161 C 
ATOM      2  C   LIG d   1      -7.644  92.272 118.352  0.00  0.00     0.016 C 
ATOM      3  C   LIG d   1      -7.477  93.675 118.408  0.00  0.00     0.038 C 
ATOM      4  C   LIG d   1      -6.211  94.275 118.338  0.00  0.00     0.028 C 
ATOM      5  C   LIG d   1      -5.090  93.388 118.870  0.00  0.00    -0.047 C 
ATOM      6  C   LIG d   1      -5.179  92.003 118.187  0.00  0.00     0.091 C 
ENDROOT
BRANCH   1   7
ATOM      7  O   LIG d   1      -6.785  90.331 117.394  0.00  0.00    -0.368 OA
BRANCH   7   8
ATOM      8  C   LIG d   1      -7.464  90.735 116.180  0.00  0.00     0.119 C 
BRANCH   8   9
ATOM      9  C   LIG d   1      -8.285  89.528 115.685  0.00  0.00     0.028 C 
ATOM     10  C   LIG d   1      -8.947  88.756 116.838  0.00  0.00     0.006 C 
ENDBRANCH   8   9
BRANCH   8  11
ATOM     11  C   LIG d   1      -6.466  91.034 115.057  0.00  0.00     0.028 C 
ATOM     12  C   LIG d   1      -6.305  92.539 114.789  0.00  0.00     0.006 C 
ENDBRANCH   8  11
ENDBRANCH   7   8
ENDBRANCH   1   7
BRANCH   6  13
ATOM     13  N   LIG d   1      -4.171  91.046 118.712  0.00  0.00    -0.311 N 
ATOM     14  C   LIG d   1      -3.480  90.212 117.938  0.00  0.00     0.210 C 
ATOM     15  C   LIG d   1      -2.505  89.295 118.684  0.00  0.00     0.109 C 
ATOM     16  O   LIG d   1      -3.557  90.166 116.701  0.00  0.00    -0.276 OA
ATOM     17  H   LIG d   1      -4.022  91.039 119.702  0.00  0.00     0.149 HD
ENDBRANCH   6  13
BRANCH   5  18
ATOM     18  N   LIG d   1      -3.813  94.079 118.611  0.00  0.00     0.381 N 
ATOM     19  H   LIG d   1      -3.089  93.406 118.455  0.00  0.00    -0.090 HD
ATOM     20  H   LIG d   1      -3.569  94.623 119.419  0.00  0.00    -0.090 HD
ATOM     21  H   LIG d   1      -3.902  94.672 117.815  0.00  0.00    -0.090 HD
ENDBRANCH   5  18
BRANCH   3  22
ATOM     22  C   LIG d   1      -8.584  94.493 118.574  0.00  0.00     0.382 C 
ATOM     23  O   LIG d   1      -9.737  93.998 118.559  0.00  0.00    -0.241 OA
ATOM     24  O   LIG d   1      -8.448  95.725 118.696  0.00  0.00    -0.241 OA
ENDBRANCH   3  22
TORSDOF 7
ENDMDL
MODEL 2
REMARK VINA RESULT:      -4.8      8.340     10.940
REMARK  7 active torsions:
REMARK  status: ('A' for Active; 'I' for Inactive)
REMARK    1  A    between atoms: C_2  and  C_3 
REMARK    2  A    between atoms: C_3  and  O_6 
REMARK    3  A    between atoms: C_3  and  C_4 
REMARK    4  A    between atoms: C_7  and  O_6 
REMARK    5  A    between atoms: C_9  and  C_10 
REMARK    6  A    between atoms: N_15  and  C_14 
REMARK    7  A    between atoms: N_20  and  C_19 
REMARK       I    between atoms: C_22  and  N_20 
ROOT
ATOM      1  C   LIG d   1       2.913  88.472 115.618  0.00  0.00     0.161 C 
ATOM      2  C   LIG d   1       3.234  89.489 116.532  0.00  0.00     0.016 C 
ATOM      3  C   LIG d   1       4.305  90.394 116.345  0.00  0.00     0.038 C 
ATOM      4  C   LIG d   1       5.038  90.438 115.150  0.00  0.00     0.028 C 
ATOM      5  C   LIG d   1       5.076  89.103 114.413  0.00  0.00    -0.047 C 
ATOM      6  C   LIG d   1       3.632  88.575 114.257  0.00  0.00     0.091 C 
ENDROOT
BRANCH   1   7
ATOM      7  O   LIG d   1       1.485  88.418 115.428  0.00  0.00    -0.368 OA
BRANCH   7   8
ATOM      8  C   LIG d   1       0.809  87.271 115.998  0.00  0.00     0.119 C 
BRANCH   8   9
ATOM      9  C   LIG d   1       0.174  87.722 117.328  0.00  0.00     0.028 C 
ATOM     10  C   LIG d   1      -0.338  89.171 117.273  0.00  0.00     0.006 C 
ENDBRANCH   8   9
BRANCH   8  11
ATOM     11  C   LIG d   1       1.803  86.169 116.376  0.00  0.00     0.028 C 
ATOM     12  C   LIG d   1       1.412  85.430 117.666  0.00  0.00     0.006 C 
ENDBRANCH   8  11
ENDBRANCH   7   8
ENDBRANCH   1   7
BRANCH   6  13
ATOM     13  N   LIG d   1       3.585  87.233 113.620  0.00  0.00    -0.311 N 
ATOM     14  C   LIG d   1       2.929  86.980 112.490  0.00  0.00     0.210 C 
ATOM     15  C   LIG d   1       2.992  85.524 112.016  0.00  0.00     0.109 C 
ATOM     16  O   LIG d   1       2.327  87.830 111.816  0.00  0.00    -0.276 OA
ATOM     17  H   LIG d   1       4.073  86.491 114.084  0.00  0.00     0.149 HD
ENDBRANCH   6  13
BRANCH   5  18
ATOM     18  N   LIG d   1       5.754  89.327 113.122  0.00  0.00     0.381 N 
ATOM     19  H   LIG d   1       5.147  89.063 112.372  0.00  0.00    -0.090 HD
ATOM     20  H   LIG d   1       6.575  88.749 113.082  0.00  0.00    -0.090 HD
ATOM     21  H   LIG d   1       6.008  90.286 113.032  0.00  0.00    -0.090 HD
ENDBRANCH   5  18
BRANCH   3  22
ATOM     22  C   LIG d   1       4.677  91.241 117.378  0.00  0.00     0.382 C 
ATOM     23  O   LIG d   1       4.891  92.455 117.147  0.00  0.00    -0.241 OA
ATOM     24  O   LIG d   1       4.843  90.797 118.530  0.00  0.00    -0.241 OA
ENDBRANCH   3  22
TORSDOF 7
ENDMDL
MODEL 3
REMARK VINA RESULT:      -4.6      9.046     11.488
REMARK  7 active torsions:
REMARK  status: ('A' for Active; 'I' for Inactive)
REMARK    1  A    between atoms: C_2  and  C_3 
REMARK    2  A    between atoms: C_3  and  O_6 
REMARK    3  A    between atoms: C_3  and  C_4 
REMARK    4  A    between atoms: C_7  and  O_6 
REMARK    5  A    between atoms: C_9  and  C_10 
REMARK    6  A    between atoms: N_15  and  C_14 
REMARK    7  A    between atoms: N_20  and  C_19 
REMARK       I    between atoms: C_22  and  N_20 
ROOT
ATOM      1  C   LIG d   1       3.151  88.476 115.261  0.00  0.00     0.161 C 
ATOM      2  C   LIG d   1       2.581  87.566 114.354  0.00  0.00     0.016 C 
ATOM      3  C   LIG d   1       3.096  87.333 113.058  0.00  0.00     0.038 C 
ATOM      4  C   LIG d   1       4.313  87.887 112.633  0.00  0.00     0.028 C 
ATOM      5  C   LIG d   1       4.656  89.201 113.327  0.00  0.00    -0.047 C 
ATOM      6  C   LIG d   1       4.543  89.006 114.856  0.00  0.00     0.091 C 
ENDROOT
BRANCH   1   7
ATOM      7  O   LIG d   1       3.202  87.888 116.576  0.00  0.00    -0.368 OA
BRANCH   7   8
ATOM      8  C   LIG d   1       2.363  88.505 117.583  0.00  0.00     0.119 C 
BRANCH   8   9
ATOM      9  C   LIG d   1       1.238  87.508 117.923  0.00  0.00     0.028 C 
ATOM     10  C   LIG d   1      -0.094  87.872 117.245  0.00  0.00     0.006 C 
ENDBRANCH   8   9
BRANCH   8  11
ATOM     11  C   LIG d   1       1.652  89.745 117.032  0.00  0.00     0.028 C 
ATOM     12  C   LIG d   1       1.955  91.015 117.843  0.00  0.00     0.006 C 
ENDBRANCH   8  11
ENDBRANCH   7   8
ENDBRANCH   1   7
BRANCH   6  13
ATOM     13  N   LIG d   1       4.779  90.266 115.608  0.00  0.00    -0.311 N 
ATOM     14  C   LIG d   1       5.671  90.377 116.590  0.00  0.00     0.210 C 
ATOM     15  C   LIG d   1       5.742  91.760 117.246  0.00  0.00     0.109 C 
ATOM     16  O   LIG d   1       6.433  89.471 116.960  0.00  0.00    -0.276 OA
ATOM     17  H   LIG d   1       4.226  91.060 115.352  0.00  0.00     0.149 HD
ENDBRANCH   6  13
BRANCH   5  18
ATOM     18  N   LIG d   1       6.009  89.595 112.893  0.00  0.00     0.381 N 
ATOM     19  H   LIG d   1       5.947  90.240 112.131  0.00  0.00    -0.090 HD
ATOM     20  H   LIG d   1       6.499  88.777 112.574  0.00  0.00    -0.090 HD
ATOM     21  H   LIG d   1       6.503  90.012 113.651  0.00  0.00    -0.090 HD
ENDBRANCH   5  18
BRANCH   3  22
ATOM     22  C   LIG d   1       2.370  86.569 112.157  0.00  0.00     0.382 C 
ATOM     23  O   LIG d   1       1.173  86.855 111.915  0.00  0.00    -0.241 OA
ATOM     24  O   LIG d   1       2.884  85.572 111.617  0.00  0.00    -0.241 OA
ENDBRANCH   3  22
TORSDOF 7
ENDMDL
MODEL 4
REMARK VINA RESULT:      -4.3     10.005     12.148
REMARK  7 active torsions:
REMARK  status: ('A' for Active; 'I' for Inactive)
REMARK    1  A    between atoms: C_2  and  C_3 
REMARK    2  A    between atoms: C_3  and  O_6 
REMARK    3  A    between atoms: C_3  and  C_4 
REMARK    4  A    between atoms: C_7  and  O_6 
REMARK    5  A    between atoms: C_9  and  C_10 
REMARK    6  A    between atoms: N_15  and  C_14 
REMARK    7  A    between atoms: N_20  and  C_19 
REMARK       I    between atoms: C_22  and  N_20 
ROOT
ATOM      1  C   LIG d   1       4.980  88.378 116.769  0.00  0.00     0.161 C 
ATOM      2  C   LIG d   1       4.199  89.541 116.861  0.00  0.00     0.016 C 
ATOM      3  C   LIG d   1       4.736  90.820 117.134  0.00  0.00     0.038 C 
ATOM      4  C   LIG d   1       6.119  91.048 117.184  0.00  0.00     0.028 C 
ATOM      5  C   LIG d   1       6.921  89.818 117.598  0.00  0.00    -0.047 C 
ATOM      6  C   LIG d   1       6.503  88.624 116.710  0.00  0.00     0.091 C 
ENDROOT
BRANCH   1   7
ATOM      7  O   LIG d   1       4.556  87.593 115.637  0.00  0.00    -0.368 OA
BRANCH   7   8
ATOM      8  C   LIG d   1       3.507  88.168 114.820  0.00  0.00     0.119 C 
BRANCH   8   9
ATOM      9  C   LIG d   1       2.377  87.125 114.715  0.00  0.00     0.028 C 
ATOM     10  C   LIG d   1       1.303  87.313 115.800  0.00  0.00     0.006 C 
ENDBRANCH   8   9
BRANCH   8  11
ATOM     11  C   LIG d   1       3.983  88.395 113.382  0.00  0.00     0.028 C 
ATOM     12  C   LIG d   1       5.105  89.441 113.284  0.00  0.00     0.006 C 
ENDBRANCH   8  11
ENDBRANCH   7   8
ENDBRANCH   1   7
BRANCH   6  13
ATOM     13  N   LIG d   1       7.178  87.360 117.105  0.00  0.00    -0.311 N 
ATOM     14  C   LIG d   1       8.343  86.963 116.596  0.00  0.00     0.210 C 
ATOM     15  C   LIG d   1       8.854  85.619 117.125  0.00  0.00     0.109 C 
ATOM     16  O   LIG d   1       9.018  87.610 115.782  0.00  0.00    -0.276 OA
ATOM     17  H   LIG d   1       6.716  86.789 117.784  0.00  0.00     0.149 HD
ENDBRANCH   6  13
BRANCH   5  18
ATOM     18  N   LIG d   1       8.351  90.157 117.476  0.00  0.00     0.381 N 
ATOM     19  H   LIG d   1       8.532  90.541 116.570  0.00  0.00    -0.090 HD
ATOM     20  H   LIG d   1       8.894  89.317 117.576  0.00  0.00    -0.090 HD
ATOM     21  H   LIG d   1       8.608  90.813 118.180  0.00  0.00    -0.090 HD
ENDBRANCH   5  18
BRANCH   3  22
ATOM     22  C   LIG d   1       3.884  91.881 117.400  0.00  0.00     0.382 C 
ATOM     23  O   LIG d   1       2.663  91.671 117.595  0.00  0.00    -0.241 OA
ATOM     24  O   LIG d   1       4.313  93.050 117.404  0.00  0.00    -0.241 OA
ENDBRANCH   3  22
TORSDOF 7
ENDMDL
MODEL 5
REMARK VINA RESULT:      -4.2      2.295      4.437
REMARK  7 active torsions:
REMARK  status: ('A' for Active; 'I' for Inactive)
REMARK    1  A    between atoms: C_2  and  C_3 
REMARK    2  A    between atoms: C_3  and  O_6 
REMARK    3  A    between atoms: C_3  and  C_4 
REMARK    4  A    between atoms: C_7  and  O_6 
REMARK    5  A    between atoms: C_9  and  C_10 
REMARK    6  A    between atoms: N_15  and  C_14 
REMARK    7  A    between atoms: N_20  and  C_19 
REMARK       I    between atoms: C_22  and  N_20 
ROOT
ATOM      1  C   LIG d   1      -4.815  93.026 117.904  0.00  0.00     0.161 C 
ATOM      2  C   LIG d   1      -5.304  94.212 118.475  0.00  0.00     0.016 C 
ATOM      3  C   LIG d   1      -6.618  94.692 118.267  0.00  0.00     0.038 C 
ATOM      4  C   LIG d   1      -7.585  93.934 117.590  0.00  0.00     0.028 C 
ATOM      5  C   LIG d   1      -6.993  92.968 116.569  0.00  0.00    -0.047 C 
ATOM      6  C   LIG d   1      -5.889  92.130 117.253  0.00  0.00     0.091 C 
ENDROOT
BRANCH   1   7
ATOM      7  O   LIG d   1      -4.069  92.281 118.888  0.00  0.00    -0.368 OA
BRANCH   7   8
ATOM      8  C   LIG d   1      -2.628  92.416 118.831  0.00  0.00     0.119 C 
BRANCH   8   9
ATOM      9  C   LIG d   1      -2.312  93.650 117.965  0.00  0.00     0.028 C 
ATOM     10  C   LIG d   1      -1.118  94.455 118.504  0.00  0.00     0.006 C 
ENDBRANCH   8   9
BRANCH   8  11
ATOM     11  C   LIG d   1      -1.986  91.232 118.101  0.00  0.00     0.028 C 
ATOM     12  C   LIG d   1      -2.750  89.916 118.313  0.00  0.00     0.006 C 
ENDBRANCH   8  11
ENDBRANCH   7   8
ENDBRANCH   1   7
BRANCH   6  13
ATOM     13  N   LIG d   1      -5.200  91.218 116.304  0.00  0.00    -0.311 N 
ATOM     14  C   LIG d   1      -5.688  90.033 115.939  0.00  0.00     0.210 C 
ATOM     15  C   LIG d   1      -4.808  89.243 114.966  0.00  0.00     0.109 C 
ATOM     16  O   LIG d   1      -6.782  89.577 116.304  0.00  0.00    -0.276 OA
ATOM     17  H   LIG d   1      -4.321  91.523 115.935  0.00  0.00     0.149 HD
ENDBRANCH   6  13
BRANCH   5  18
ATOM     18  N   LIG d   1      -8.098  92.147 116.039  0.00  0.00     0.381 N 
ATOM     19  H   LIG d   1      -8.530  91.639 116.784  0.00  0.00    -0.090 HD
ATOM     20  H   LIG d   1      -7.724  91.486 115.381  0.00  0.00    -0.090 HD
ATOM     21  H   LIG d   1      -8.770  92.730 115.590  0.00  0.00    -0.090 HD
ENDBRANCH   5  18
BRANCH   3  22
ATOM     22  C   LIG d   1      -6.964  95.961 118.705  0.00  0.00     0.382 C 
ATOM     23  O   LIG d   1      -6.070  96.815 118.920  0.00  0.00    -0.241 OA
ATOM     24  O   LIG d   1      -8.154  96.250 118.929  0.00  0.00    -0.241 OA
ENDBRANCH   3  22
TORSDOF 7
ENDMDL
MODEL 6
REMARK VINA RESULT:      -4.1      6.184      9.226
REMARK  7 active torsions:
REMARK  status: ('A' for Active; 'I' for Inactive)
REMARK    1  A    between atoms: C_2  and  C_3 
REMARK    2  A    between atoms: C_3  and  O_6 
REMARK    3  A    between atoms: C_3  and  C_4 
REMARK    4  A    between atoms: C_7  and  O_6 
REMARK    5  A    between atoms: C_9  and  C_10 
REMARK    6  A    between atoms: N_15  and  C_14 
REMARK    7  A    between atoms: N_20  and  C_19 
REMARK       I    between atoms: C_22  and  N_20 
ROOT
ATOM      1  C   LIG d   1       1.487  88.376 116.335  0.00  0.00     0.161 C 
ATOM      2  C   LIG d   1       0.149  88.603 116.696  0.00  0.00     0.016 C 
ATOM      3  C   LIG d   1      -0.306  89.807 117.283  0.00  0.00     0.038 C 
ATOM      4  C   LIG d   1       0.526  90.930 117.410  0.00  0.00     0.028 C 
ATOM      5  C   LIG d   1       2.005  90.578 117.523  0.00  0.00    -0.047 C 
ATOM      6  C   LIG d   1       2.386  89.630 116.364  0.00  0.00     0.091 C 
ENDROOT
BRANCH   1   7
ATOM      7  O   LIG d   1       1.544  87.749 115.039  0.00  0.00    -0.368 OA
BRANCH   7   8
ATOM      8  C   LIG d   1       1.863  86.335 115.028  0.00  0.00     0.119 C 
BRANCH   8   9
ATOM      9  C   LIG d   1       2.473  85.988 116.400  0.00  0.00     0.028 C 
ATOM     10  C   LIG d   1       3.930  85.508 116.289  0.00  0.00     0.006 C 
ENDBRANCH   8   9
BRANCH   8  11
ATOM     11  C   LIG d   1       2.957  86.019 114.005  0.00  0.00     0.028 C 
ATOM     12  C   LIG d   1       3.179  87.158 112.998  0.00  0.00     0.006 C 
ENDBRANCH   8  11
ENDBRANCH   7   8
ENDBRANCH   1   7
BRANCH   6  13
ATOM     13  N   LIG d   1       3.797  89.170 116.448  0.00  0.00    -0.311 N 
ATOM     14  C   LIG d   1       4.710  89.429 115.513  0.00  0.00     0.210 C 
ATOM     15  C   LIG d   1       6.099  88.845 115.786  0.00  0.00     0.109 C 
ATOM     16  O   LIG d   1       4.509  90.115 114.500  0.00  0.00    -0.276 OA
ATOM     17  H   LIG d   1       4.054  88.633 117.253  0.00  0.00     0.149 HD
ENDBRANCH   6  13
BRANCH   5  18
ATOM     18  N   LIG d   1       2.766  91.842 117.511  0.00  0.00     0.381 N 
ATOM     19  H   LIG d   1       3.381  91.859 116.722  0.00  0.00    -0.090 HD
ATOM     20  H   LIG d   1       3.322  91.895 118.346  0.00  0.00    -0.090 HD
ATOM     21  H   LIG d   1       2.140  92.616 117.469  0.00  0.00    -0.090 HD
ENDBRANCH   5  18
BRANCH   3  22
ATOM     22  C   LIG d   1      -1.595  89.882 117.786  0.00  0.00     0.382 C 
ATOM     23  O   LIG d   1      -2.345  88.877 117.743  0.00  0.00    -0.241 OA
ATOM     24  O   LIG d   1      -2.034  90.955 118.243  0.00  0.00    -0.241 OA
ENDBRANCH   3  22
TORSDOF 7
ENDMDL
MODEL 7
REMARK VINA RESULT:      -4.0      6.539      9.581
REMARK  7 active torsions:
REMARK  status: ('A' for Active; 'I' for Inactive)
REMARK    1  A    between atoms: C_2  and  C_3 
REMARK    2  A    between atoms: C_3  and  O_6 
REMARK    3  A    between atoms: C_3  and  C_4 
REMARK    4  A    between atoms: C_7  and  O_6 
REMARK    5  A    between atoms: C_9  and  C_10 
REMARK    6  A    between atoms: N_15  and  C_14 
REMARK    7  A    between atoms: N_20  and  C_19 
REMARK       I    between atoms: C_22  and  N_20 
ROOT
ATOM      1  C   LIG d   1       2.300  89.393 116.366  0.00  0.00     0.161 C 
ATOM      2  C   LIG d   1       0.914  89.215 116.506  0.00  0.00     0.016 C 
ATOM      3  C   LIG d   1       0.109  90.011 117.354  0.00  0.00     0.038 C 
ATOM      4  C   LIG d   1       0.617  91.143 118.010  0.00  0.00     0.028 C 
ATOM      5  C   LIG d   1       2.112  91.058 118.294  0.00  0.00    -0.047 C 
ATOM      6  C   LIG d   1       2.852  90.693 116.987  0.00  0.00     0.091 C 
ENDROOT
BRANCH   1   7
ATOM      7  O   LIG d   1       2.665  89.309 114.974  0.00  0.00    -0.368 OA
BRANCH   7   8
ATOM      8  C   LIG d   1       3.031  87.993 114.489  0.00  0.00     0.119 C 
BRANCH   8   9
ATOM      9  C   LIG d   1       4.079  87.417 115.461  0.00  0.00     0.028 C 
ATOM     10  C   LIG d   1       3.871  85.917 115.727  0.00  0.00     0.006 C 
ENDBRANCH   8   9
BRANCH   8  11
ATOM     11  C   LIG d   1       3.737  88.075 113.133  0.00  0.00     0.028 C 
ATOM     12  C   LIG d   1       3.335  86.937 112.181  0.00  0.00     0.006 C 
ENDBRANCH   8  11
ENDBRANCH   7   8
ENDBRANCH   1   7
BRANCH   6  13
ATOM     13  N   LIG d   1       4.312  90.508 117.195  0.00  0.00    -0.311 N 
ATOM     14  C   LIG d   1       5.194  91.504 117.130  0.00  0.00     0.210 C 
ATOM     15  C   LIG d   1       6.652  91.092 117.355  0.00  0.00     0.109 C 
ATOM     16  O   LIG d   1       4.903  92.694 116.939  0.00  0.00    -0.276 OA
ATOM     17  H   LIG d   1       4.631  89.578 117.386  0.00  0.00     0.149 HD
ENDBRANCH   6  13
BRANCH   5  18
ATOM     18  N   LIG d   1       2.534  92.357 118.853  0.00  0.00     0.381 N 
ATOM     19  H   LIG d   1       1.984  93.092 118.454  0.00  0.00    -0.090 HD
ATOM     20  H   LIG d   1       3.496  92.517 118.613  0.00  0.00    -0.090 HD
ATOM     21  H   LIG d   1       2.427  92.353 119.844  0.00  0.00    -0.090 HD
ENDBRANCH   5  18
BRANCH   3  22
ATOM     22  C   LIG d   1      -1.210  89.652 117.585  0.00  0.00     0.382 C 
ATOM     23  O   LIG d   1      -2.103  90.533 117.616  0.00  0.00    -0.241 OA
ATOM     24  O   LIG d   1      -1.512  88.464 117.807  0.00  0.00    -0.241 OA
ENDBRANCH   3  22
TORSDOF 7
ENDMDL
MODEL 8
REMARK VINA RESULT:      -4.0      8.793     11.448
REMARK  7 active torsions:
REMARK  status: ('A' for Active; 'I' for Inactive)
REMARK    1  A    between atoms: C_2  and  C_3 
REMARK    2  A    between atoms: C_3  and  O_6 
REMARK    3  A    between atoms: C_3  and  C_4 
REMARK    4  A    between atoms: C_7  and  O_6 
REMARK    5  A    between atoms: C_9  and  C_10 
REMARK    6  A    between atoms: N_15  and  C_14 
REMARK    7  A    between atoms: N_20  and  C_19 
REMARK       I    between atoms: C_22  and  N_20 
ROOT
ATOM      1  C   LIG d   1       4.249  88.065 116.438  0.00  0.00     0.161 C 
ATOM      2  C   LIG d   1       4.830  88.922 117.388  0.00  0.00     0.016 C 
ATOM      3  C   LIG d   1       5.482  90.130 117.050  0.00  0.00     0.038 C 
ATOM      4  C   LIG d   1       5.466  90.641 115.743  0.00  0.00     0.028 C 
ATOM      5  C   LIG d   1       5.330  89.563 114.673  0.00  0.00    -0.047 C 
ATOM      6  C   LIG d   1       4.124  88.661 115.020  0.00  0.00     0.091 C 
ENDROOT
BRANCH   1   7
ATOM      7  O   LIG d   1       2.963  87.616 116.908  0.00  0.00    -0.368 OA
BRANCH   7   8
ATOM      8  C   LIG d   1       1.810  88.309 116.370  0.00  0.00     0.119 C 
BRANCH   8   9
ATOM      9  C   LIG d   1       1.152  89.082 117.530  0.00  0.00     0.028 C 
ATOM     10  C   LIG d   1       0.187  90.172 117.035  0.00  0.00     0.006 C 
ENDBRANCH   8   9
BRANCH   8  11
ATOM     11  C   LIG d   1       0.744  87.323 115.883  0.00  0.00     0.028 C 
ATOM     12  C   LIG d   1       1.292  85.901 115.687  0.00  0.00     0.006 C 
ENDBRANCH   8  11
ENDBRANCH   7   8
ENDBRANCH   1   7
BRANCH   6  13
ATOM     13  N   LIG d   1       3.971  87.529 114.069  0.00  0.00    -0.311 N 
ATOM     14  C   LIG d   1       3.224  87.593 112.968  0.00  0.00     0.210 C 
ATOM     15  C   LIG d   1       3.186  86.307 112.137  0.00  0.00     0.109 C 
ATOM     16  O   LIG d   1       2.614  88.602 112.585  0.00  0.00    -0.276 OA
ATOM     17  H   LIG d   1       4.456  86.681 114.287  0.00  0.00     0.149 HD
ENDBRANCH   6  13
BRANCH   5  18
ATOM     18  N   LIG d   1       5.187  90.243 113.372  0.00  0.00     0.381 N 
ATOM     19  H   LIG d   1       4.268  90.089 113.008  0.00  0.00    -0.090 HD
ATOM     20  H   LIG d   1       5.852  89.853 112.727  0.00  0.00    -0.090 HD
ATOM     21  H   LIG d   1       5.351  91.220 113.478  0.00  0.00    -0.090 HD
ENDBRANCH   5  18
BRANCH   3  22
ATOM     22  C   LIG d   1       6.195  90.820 118.018  0.00  0.00     0.382 C 
ATOM     23  O   LIG d   1       5.604  91.628 118.775  0.00  0.00    -0.241 OA
ATOM     24  O   LIG d   1       7.429  90.679 118.116  0.00  0.00    -0.241 OA
ENDBRANCH   3  22
TORSDOF 7
ENDMDL
MODEL 9
REMARK VINA RESULT:      -3.9      8.465     12.008
REMARK  7 active torsions:
REMARK  status: ('A' for Active; 'I' for Inactive)
REMARK    1  A    between atoms: C_2  and  C_3 
REMARK    2  A    between atoms: C_3  and  O_6 
REMARK    3  A    between atoms: C_3  and  C_4 
REMARK    4  A    between atoms: C_7  and  O_6 
REMARK    5  A    between atoms: C_9  and  C_10 
REMARK    6  A    between atoms: N_15  and  C_14 
REMARK    7  A    between atoms: N_20  and  C_19 
REMARK       I    between atoms: C_22  and  N_20 
ROOT
ATOM      1  C   LIG d   1       5.021  90.683 116.837  0.00  0.00     0.161 C 
ATOM      2  C   LIG d   1       6.385  90.954 117.033  0.00  0.00     0.016 C 
ATOM      3  C   LIG d   1       6.860  92.050 117.790  0.00  0.00     0.038 C 
ATOM      4  C   LIG d   1       5.996  92.868 118.532  0.00  0.00     0.028 C 
ATOM      5  C   LIG d   1       4.585  92.937 117.958  0.00  0.00    -0.047 C 
ATOM      6  C   LIG d   1       4.064  91.500 117.731  0.00  0.00     0.091 C 
ENDROOT
BRANCH   1   7
ATOM      7  O   LIG d   1       4.775  89.272 116.998  0.00  0.00    -0.368 OA
BRANCH   7   8
ATOM      8  C   LIG d   1       4.805  88.477 115.787  0.00  0.00     0.119 C 
BRANCH   8   9
ATOM      9  C   LIG d   1       4.195  89.331 114.658  0.00  0.00     0.028 C 
ATOM     10  C   LIG d   1       5.065  89.335 113.390  0.00  0.00     0.006 C 
ENDBRANCH   8   9
BRANCH   8  11
ATOM     11  C   LIG d   1       3.897  87.249 115.903  0.00  0.00     0.028 C 
ATOM     12  C   LIG d   1       2.433  87.555 115.548  0.00  0.00     0.006 C 
ENDBRANCH   8  11
ENDBRANCH   7   8
ENDBRANCH   1   7
BRANCH   6  13
ATOM     13  N   LIG d   1       2.722  91.477 117.092  0.00  0.00    -0.311 N 
ATOM     14  C   LIG d   1       1.728  90.693 117.503  0.00  0.00     0.210 C 
ATOM     15  C   LIG d   1       0.433  90.811 116.693  0.00  0.00     0.109 C 
ATOM     16  O   LIG d   1       1.784  89.933 118.482  0.00  0.00    -0.276 OA
ATOM     17  H   LIG d   1       2.580  92.085 116.309  0.00  0.00     0.149 HD
ENDBRANCH   6  13
BRANCH   5  18
ATOM     18  N   LIG d   1       3.756  93.710 118.903  0.00  0.00     0.381 N 
ATOM     19  H   LIG d   1       2.788  93.584 118.685  0.00  0.00    -0.090 HD
ATOM     20  H   LIG d   1       3.977  94.685 118.807  0.00  0.00    -0.090 HD
ATOM     21  H   LIG d   1       3.936  93.411 119.836  0.00  0.00    -0.090 HD
ENDBRANCH   5  18
BRANCH   3  22
ATOM     22  C   LIG d   1       8.211  92.360 117.777  0.00  0.00     0.382 C 
ATOM     23  O   LIG d   1       9.040  91.535 117.322  0.00  0.00    -0.241 OA
ATOM     24  O   LIG d   1       8.617  93.437 118.254  0.00  0.00    -0.241 OA
ENDBRANCH   3  22
TORSDOF 7
ENDMDL
