MODEL 1
REMARK VINA RESULT:      -5.5      0.000      0.000
REMARK  7 active torsions:
REMARK  status: ('A' for Active; 'I' for Inactive)
REMARK    1  A    between atoms: C_2  and  C_3 
REMARK    2  A    between atoms: C_3  and  O_6 
REMARK    3  A    between atoms: C_3  and  C_4 
REMARK    4  A    between atoms: C_7  and  O_6 
REMARK    5  A    between atoms: C_9  and  C_10 
REMARK    6  A    between atoms: N_15  and  C_14 
REMARK    7  A    between atoms: N_20  and  C_19 
REMARK       I    between atoms: C_22  and  N_20 
ROOT
ATOM      1  C   LIG d   1      -5.176  93.503 117.892  0.00  0.00     0.161 C 
ATOM      2  C   LIG d   1      -5.532  94.717 118.503  0.00  0.00     0.016 C 
ATOM      3  C   LIG d   1      -6.743  95.396 118.235  0.00  0.00     0.038 C 
ATOM      4  C   LIG d   1      -7.753  94.827 117.446  0.00  0.00     0.028 C 
ATOM      5  C   LIG d   1      -7.229  93.839 116.409  0.00  0.00    -0.047 C 
ATOM      6  C   LIG d   1      -6.314  92.812 117.114  0.00  0.00     0.091 C 
ENDROOT
BRANCH   1   7
ATOM      7  O   LIG d   1      -4.624  92.605 118.876  0.00  0.00    -0.368 OA
BRANCH   7   8
ATOM      8  C   LIG d   1      -3.188  92.415 118.832  0.00  0.00     0.119 C 
BRANCH   8   9
ATOM      9  C   LIG d   1      -2.620  93.418 117.810  0.00  0.00     0.028 C 
ATOM     10  C   LIG d   1      -1.372  94.148 118.335  0.00  0.00     0.006 C 
ENDBRANCH   8   9
BRANCH   8  11
ATOM     11  C   LIG d   1      -2.826  91.031 118.286  0.00  0.00     0.028 C 
ATOM     12  C   LIG d   1      -1.532  90.469 118.896  0.00  0.00     0.006 C 
ENDBRANCH   8  11
ENDBRANCH   7   8
ENDBRANCH   1   7
BRANCH   6  13
ATOM     13  N   LIG d   1      -5.692  91.858 116.158  0.00  0.00    -0.311 N 
ATOM     14  C   LIG d   1      -6.172  90.639 115.921  0.00  0.00     0.210 C 
ATOM     15  C   LIG d   1      -5.367  89.811 114.915  0.00  0.00     0.109 C 
ATOM     16  O   LIG d   1      -7.207  90.177 116.424  0.00  0.00    -0.276 OA
ATOM     17  H   LIG d   1      -4.865  92.164 115.683  0.00  0.00     0.149 HD
ENDBRANCH   6  13
BRANCH   5  18
ATOM     18  N   LIG d   1      -8.396  93.221 115.753  0.00  0.00     0.381 N 
ATOM     19  H   LIG d   1      -9.185  93.832 115.819  0.00  0.00    -0.090 HD
ATOM     20  H   LIG d   1      -8.620  92.364 116.228  0.00  0.00    -0.090 HD
ATOM     21  H   LIG d   1      -8.190  93.034 114.796  0.00  0.00    -0.090 HD
ENDBRANCH   5  18
BRANCH   3  22
ATOM     22  C   LIG d   1      -6.934  96.678 118.727  0.00  0.00     0.382 C 
ATOM     23  O   LIG d   1      -8.097  97.105 118.930  0.00  0.00    -0.241 OA
ATOM     24  O   LIG d   1      -5.962  97.430 118.929  0.00  0.00    -0.241 OA
ENDBRANCH   3  22
TORSDOF 7
ENDMDL
MODEL 2
REMARK VINA RESULT:      -4.4      2.189      4.694
REMARK  7 active torsions:
REMARK  status: ('A' for Active; 'I' for Inactive)
REMARK    1  A    between atoms: C_2  and  C_3 
REMARK    2  A    between atoms: C_3  and  O_6 
REMARK    3  A    between atoms: C_3  and  C_4 
REMARK    4  A    between atoms: C_7  and  O_6 
REMARK    5  A    between atoms: C_9  and  C_10 
REMARK    6  A    between atoms: N_15  and  C_14 
REMARK    7  A    between atoms: N_20  and  C_19 
REMARK       I    between atoms: C_22  and  N_20 
ROOT
ATOM      1  C   LIG d   1      -6.036  91.918 118.599  0.00  0.00     0.161 C 
ATOM      2  C   LIG d   1      -4.799  92.500 118.924  0.00  0.00     0.016 C 
ATOM      3  C   LIG d   1      -3.616  92.278 118.184  0.00  0.00     0.038 C 
ATOM      4  C   LIG d   1      -3.622  91.575 116.970  0.00  0.00     0.028 C 
ATOM      5  C   LIG d   1      -4.746  90.549 116.870  0.00  0.00    -0.047 C 
ATOM      6  C   LIG d   1      -6.086  91.238 117.215  0.00  0.00     0.091 C 
ENDROOT
BRANCH   1   7
ATOM      7  O   LIG d   1      -7.083  92.902 118.711  0.00  0.00    -0.368 OA
BRANCH   7   8
ATOM      8  C   LIG d   1      -6.884  94.132 117.973  0.00  0.00     0.119 C 
BRANCH   8   9
ATOM      9  C   LIG d   1      -7.353  95.293 118.872  0.00  0.00     0.028 C 
ATOM     10  C   LIG d   1      -7.226  96.660 118.178  0.00  0.00     0.006 C 
ENDBRANCH   8   9
BRANCH   8  11
ATOM     11  C   LIG d   1      -7.783  94.191 116.734  0.00  0.00     0.028 C 
ATOM     12  C   LIG d   1      -7.101  93.629 115.476  0.00  0.00     0.006 C 
ENDBRANCH   8  11
ENDBRANCH   7   8
ENDBRANCH   1   7
BRANCH   6  13
ATOM     13  N   LIG d   1      -7.227  90.285 117.223  0.00  0.00    -0.311 N 
ATOM     14  C   LIG d   1      -7.905  89.944 116.128  0.00  0.00     0.210 C 
ATOM     15  C   LIG d   1      -9.058  88.963 116.361  0.00  0.00     0.109 C 
ATOM     16  O   LIG d   1      -7.640  90.336 114.982  0.00  0.00    -0.276 OA
ATOM     17  H   LIG d   1      -7.489  89.895 118.107  0.00  0.00     0.149 HD
ENDBRANCH   6  13
BRANCH   5  18
ATOM     18  N   LIG d   1      -4.718  89.989 115.505  0.00  0.00     0.381 N 
ATOM     19  H   LIG d   1      -4.175  89.149 115.495  0.00  0.00    -0.090 HD
ATOM     20  H   LIG d   1      -4.282  90.653 114.890  0.00  0.00    -0.090 HD
ATOM     21  H   LIG d   1      -5.645  89.797 115.196  0.00  0.00    -0.090 HD
ENDBRANCH   5  18
BRANCH   3  22
ATOM     22  C   LIG d   1      -2.401  92.729 118.677  0.00  0.00     0.382 C 
ATOM     23  O   LIG d   1      -2.215  93.957 118.857  0.00  0.00    -0.241 OA
ATOM     24  O   LIG d   1      -1.474  91.928 118.903  0.00  0.00    -0.241 OA
ENDBRANCH   3  22
TORSDOF 7
ENDMDL
MODEL 3
REMARK VINA RESULT:      -4.3      1.761      2.401
REMARK  7 active torsions:
REMARK  status: ('A' for Active; 'I' for Inactive)
REMARK    1  A    between atoms: C_2  and  C_3 
REMARK    2  A    between atoms: C_3  and  O_6 
REMARK    3  A    between atoms: C_3  and  C_4 
REMARK    4  A    between atoms: C_7  and  O_6 
REMARK    5  A    between atoms: C_9  and  C_10 
REMARK    6  A    between atoms: N_15  and  C_14 
REMARK    7  A    between atoms: N_20  and  C_19 
REMARK       I    between atoms: C_22  and  N_20 
ROOT
ATOM      1  C   LIG d   1      -5.051  92.764 118.033  0.00  0.00     0.161 C 
ATOM      2  C   LIG d   1      -4.313  93.885 118.449  0.00  0.00     0.016 C 
ATOM      3  C   LIG d   1      -4.878  95.170 118.619  0.00  0.00     0.038 C 
ATOM      4  C   LIG d   1      -6.261  95.389 118.530  0.00  0.00     0.028 C 
ATOM      5  C   LIG d   1      -6.974  94.395 117.619  0.00  0.00    -0.047 C 
ATOM      6  C   LIG d   1      -6.581  92.959 118.038  0.00  0.00     0.091 C 
ENDROOT
BRANCH   1   7
ATOM      7  O   LIG d   1      -4.689  91.618 118.829  0.00  0.00    -0.368 OA
BRANCH   7   8
ATOM      8  C   LIG d   1      -3.688  90.738 118.261  0.00  0.00     0.119 C 
BRANCH   8   9
ATOM      9  C   LIG d   1      -2.327  91.135 118.863  0.00  0.00     0.028 C 
ATOM     10  C   LIG d   1      -1.179  91.018 117.846  0.00  0.00     0.006 C 
ENDBRANCH   8   9
BRANCH   8  11
ATOM     11  C   LIG d   1      -3.545  90.957 116.752  0.00  0.00     0.028 C 
ATOM     12  C   LIG d   1      -4.354  89.948 115.923  0.00  0.00     0.006 C 
ENDBRANCH   8  11
ENDBRANCH   7   8
ENDBRANCH   1   7
BRANCH   6  13
ATOM     13  N   LIG d   1      -7.169  91.927 117.145  0.00  0.00    -0.311 N 
ATOM     14  C   LIG d   1      -7.160  92.017 115.816  0.00  0.00     0.210 C 
ATOM     15  C   LIG d   1      -7.838  90.853 115.085  0.00  0.00     0.109 C 
ATOM     16  O   LIG d   1      -6.628  92.933 115.172  0.00  0.00    -0.276 OA
ATOM     17  H   LIG d   1      -7.595  91.134 117.583  0.00  0.00     0.149 HD
ENDBRANCH   6  13
BRANCH   5  18
ATOM     18  N   LIG d   1      -8.423  94.652 117.726  0.00  0.00     0.381 N 
ATOM     19  H   LIG d   1      -8.882  94.358 116.887  0.00  0.00    -0.090 HD
ATOM     20  H   LIG d   1      -8.570  95.640 117.836  0.00  0.00    -0.090 HD
ATOM     21  H   LIG d   1      -8.799  94.163 118.508  0.00  0.00    -0.090 HD
ENDBRANCH   5  18
BRANCH   3  22
ATOM     22  C   LIG d   1      -4.052  96.260 118.843  0.00  0.00     0.382 C 
ATOM     23  O   LIG d   1      -4.541  97.413 118.916  0.00  0.00    -0.241 OA
ATOM     24  O   LIG d   1      -2.818  96.111 118.930  0.00  0.00    -0.241 OA
ENDBRANCH   3  22
TORSDOF 7
ENDMDL
MODEL 4
REMARK VINA RESULT:      -4.3      8.969     12.057
REMARK  7 active torsions:
REMARK  status: ('A' for Active; 'I' for Inactive)
REMARK    1  A    between atoms: C_2  and  C_3 
REMARK    2  A    between atoms: C_3  and  O_6 
REMARK    3  A    between atoms: C_3  and  C_4 
REMARK    4  A    between atoms: C_7  and  O_6 
REMARK    5  A    between atoms: C_9  and  C_10 
REMARK    6  A    between atoms: N_15  and  C_14 
REMARK    7  A    between atoms: N_20  and  C_19 
REMARK       I    between atoms: C_22  and  N_20 
ROOT
ATOM      1  C   LIG d   1       4.821  89.251 116.003  0.00  0.00     0.161 C 
ATOM      2  C   LIG d   1       4.194  89.105 114.754  0.00  0.00     0.016 C 
ATOM      3  C   LIG d   1       3.650  87.883 114.295  0.00  0.00     0.038 C 
ATOM      4  C   LIG d   1       3.562  86.753 115.122  0.00  0.00     0.028 C 
ATOM      5  C   LIG d   1       4.634  86.711 116.206  0.00  0.00    -0.047 C 
ATOM      6  C   LIG d   1       4.636  88.058 116.964  0.00  0.00     0.091 C 
ENDROOT
BRANCH   1   7
ATOM      7  O   LIG d   1       4.382  90.472 116.630  0.00  0.00    -0.368 OA
BRANCH   7   8
ATOM      8  C   LIG d   1       3.328  90.340 117.614  0.00  0.00     0.119 C 
BRANCH   8   9
ATOM      9  C   LIG d   1       2.102  91.110 117.086  0.00  0.00     0.028 C 
ATOM     10  C   LIG d   1       0.775  90.513 117.583  0.00  0.00     0.006 C 
ENDBRANCH   8   9
BRANCH   8  11
ATOM     11  C   LIG d   1       3.704  91.028 118.930  0.00  0.00     0.028 C 
ATOM     12  C   LIG d   1       5.095  91.680 118.885  0.00  0.00     0.006 C 
ENDBRANCH   8  11
ENDBRANCH   7   8
ENDBRANCH   1   7
BRANCH   6  13
ATOM     13  N   LIG d   1       5.712  88.132 117.986  0.00  0.00    -0.311 N 
ATOM     14  C   LIG d   1       6.990  87.863 117.726  0.00  0.00     0.210 C 
ATOM     15  C   LIG d   1       7.933  87.981 118.927  0.00  0.00     0.109 C 
ATOM     16  O   LIG d   1       7.437  87.569 116.607  0.00  0.00    -0.276 OA
ATOM     17  H   LIG d   1       5.442  88.394 118.914  0.00  0.00     0.149 HD
ENDBRANCH   6  13
BRANCH   5  18
ATOM     18  N   LIG d   1       4.341  85.557 117.077  0.00  0.00     0.381 N 
ATOM     19  H   LIG d   1       3.352  85.444 117.169  0.00  0.00    -0.090 HD
ATOM     20  H   LIG d   1       4.724  85.734 117.990  0.00  0.00    -0.090 HD
ATOM     21  H   LIG d   1       4.744  84.730 116.695  0.00  0.00    -0.090 HD
ENDBRANCH   5  18
BRANCH   3  22
ATOM     22  C   LIG d   1       3.223  87.772 112.981  0.00  0.00     0.382 C 
ATOM     23  O   LIG d   1       2.192  88.379 112.603  0.00  0.00    -0.241 OA
ATOM     24  O   LIG d   1       3.830  87.037 112.179  0.00  0.00    -0.241 OA
ENDBRANCH   3  22
TORSDOF 7
ENDMDL
MODEL 5
REMARK VINA RESULT:      -4.3      8.335     11.459
REMARK  7 active torsions:
REMARK  status: ('A' for Active; 'I' for Inactive)
REMARK    1  A    between atoms: C_2  and  C_3 
REMARK    2  A    between atoms: C_3  and  O_6 
REMARK    3  A    between atoms: C_3  and  C_4 
REMARK    4  A    between atoms: C_7  and  O_6 
REMARK    5  A    between atoms: C_9  and  C_10 
REMARK    6  A    between atoms: N_15  and  C_14 
REMARK    7  A    between atoms: N_20  and  C_19 
REMARK       I    between atoms: C_22  and  N_20 
ROOT
ATOM      1  C   LIG d   1       3.971  88.858 116.454  0.00  0.00     0.161 C 
ATOM      2  C   LIG d   1       2.801  89.635 116.438  0.00  0.00     0.016 C 
ATOM      3  C   LIG d   1       2.648  90.826 117.184  0.00  0.00     0.038 C 
ATOM      4  C   LIG d   1       3.717  91.405 117.884  0.00  0.00     0.028 C 
ATOM      5  C   LIG d   1       4.763  90.393 118.337  0.00  0.00    -0.047 C 
ATOM      6  C   LIG d   1       5.186  89.532 117.124  0.00  0.00     0.091 C 
ENDROOT
BRANCH   1   7
ATOM      7  O   LIG d   1       4.303  88.446 115.113  0.00  0.00    -0.368 OA
BRANCH   7   8
ATOM      8  C   LIG d   1       3.363  87.550 114.470  0.00  0.00     0.119 C 
BRANCH   8   9
ATOM      9  C   LIG d   1       3.883  86.113 114.670  0.00  0.00     0.028 C 
ATOM     10  C   LIG d   1       3.261  85.430 115.900  0.00  0.00     0.006 C 
ENDBRANCH   8   9
BRANCH   8  11
ATOM     11  C   LIG d   1       3.337  87.764 112.954  0.00  0.00     0.028 C 
ATOM     12  C   LIG d   1       3.901  86.566 112.173  0.00  0.00     0.006 C 
ENDBRANCH   8  11
ENDBRANCH   7   8
ENDBRANCH   1   7
BRANCH   6  13
ATOM     13  N   LIG d   1       6.146  88.460 117.497  0.00  0.00    -0.311 N 
ATOM     14  C   LIG d   1       7.468  88.599 117.415  0.00  0.00     0.210 C 
ATOM     15  C   LIG d   1       8.275  87.365 117.829  0.00  0.00     0.109 C 
ATOM     16  O   LIG d   1       8.050  89.638 117.068  0.00  0.00    -0.276 OA
ATOM     17  H   LIG d   1       5.761  87.594 117.818  0.00  0.00     0.149 HD
ENDBRANCH   6  13
BRANCH   5  18
ATOM     18  N   LIG d   1       5.884  91.146 118.930  0.00  0.00     0.381 N 
ATOM     19  H   LIG d   1       6.553  90.510 119.316  0.00  0.00    -0.090 HD
ATOM     20  H   LIG d   1       5.531  91.722 119.674  0.00  0.00    -0.090 HD
ATOM     21  H   LIG d   1       6.318  91.714 118.237  0.00  0.00    -0.090 HD
ENDBRANCH   5  18
BRANCH   3  22
ATOM     22  C   LIG d   1       1.402  91.430 117.267  0.00  0.00     0.382 C 
ATOM     23  O   LIG d   1       0.407  90.890 116.727  0.00  0.00    -0.241 OA
ATOM     24  O   LIG d   1       1.270  92.530 117.836  0.00  0.00    -0.241 OA
ENDBRANCH   3  22
TORSDOF 7
ENDMDL
MODEL 6
REMARK VINA RESULT:      -4.3      7.710     10.651
REMARK  7 active torsions:
REMARK  status: ('A' for Active; 'I' for Inactive)
REMARK    1  A    between atoms: C_2  and  C_3 
REMARK    2  A    between atoms: C_3  and  O_6 
REMARK    3  A    between atoms: C_3  and  C_4 
REMARK    4  A    between atoms: C_7  and  O_6 
REMARK    5  A    between atoms: C_9  and  C_10 
REMARK    6  A    between atoms: N_15  and  C_14 
REMARK    7  A    between atoms: N_20  and  C_19 
REMARK       I    between atoms: C_22  and  N_20 
ROOT
ATOM      1  C   LIG d   1       2.723  88.655 117.144  0.00  0.00     0.161 C 
ATOM      2  C   LIG d   1       1.718  89.632 117.050  0.00  0.00     0.016 C 
ATOM      3  C   LIG d   1       1.906  90.980 117.431  0.00  0.00     0.038 C 
ATOM      4  C   LIG d   1       3.166  91.480 117.792  0.00  0.00     0.028 C 
ATOM      5  C   LIG d   1       4.090  90.421 118.384  0.00  0.00    -0.047 C 
ATOM      6  C   LIG d   1       4.136  89.205 117.431  0.00  0.00     0.091 C 
ENDROOT
BRANCH   1   7
ATOM      7  O   LIG d   1       2.733  87.848 115.949  0.00  0.00    -0.368 OA
BRANCH   7   8
ATOM      8  C   LIG d   1       3.750  88.172 114.970  0.00  0.00     0.119 C 
BRANCH   8   9
ATOM      9  C   LIG d   1       3.033  88.717 113.720  0.00  0.00     0.028 C 
ATOM     10  C   LIG d   1       2.797  87.630 112.658  0.00  0.00     0.006 C 
ENDBRANCH   8   9
BRANCH   8  11
ATOM     11  C   LIG d   1       4.489  86.916 114.498  0.00  0.00     0.028 C 
ATOM     12  C   LIG d   1       4.222  85.696 115.393  0.00  0.00     0.006 C 
ENDBRANCH   8  11
ENDBRANCH   7   8
ENDBRANCH   1   7
BRANCH   6  13
ATOM     13  N   LIG d   1       4.952  88.089 117.975  0.00  0.00    -0.311 N 
ATOM     14  C   LIG d   1       6.241  87.916 117.689  0.00  0.00     0.210 C 
ATOM     15  C   LIG d   1       6.889  86.689 118.340  0.00  0.00     0.109 C 
ATOM     16  O   LIG d   1       6.917  88.679 116.984  0.00  0.00    -0.276 OA
ATOM     17  H   LIG d   1       4.489  87.439 118.581  0.00  0.00     0.149 HD
ENDBRANCH   6  13
BRANCH   5  18
ATOM     18  N   LIG d   1       5.411  91.046 118.587  0.00  0.00     0.381 N 
ATOM     19  H   LIG d   1       5.662  91.577 117.778  0.00  0.00    -0.090 HD
ATOM     20  H   LIG d   1       6.096  90.323 118.715  0.00  0.00    -0.090 HD
ATOM     21  H   LIG d   1       5.388  91.638 119.388  0.00  0.00    -0.090 HD
ENDBRANCH   5  18
BRANCH   3  22
ATOM     22  C   LIG d   1       0.816  91.835 117.491  0.00  0.00     0.382 C 
ATOM     23  O   LIG d   1       0.906  92.923 118.110  0.00  0.00    -0.241 OA
ATOM     24  O   LIG d   1      -0.269  91.513 116.971  0.00  0.00    -0.241 OA
ENDBRANCH   3  22
TORSDOF 7
ENDMDL
MODEL 7
REMARK VINA RESULT:      -4.1      2.102      4.402
REMARK  7 active torsions:
REMARK  status: ('A' for Active; 'I' for Inactive)
REMARK    1  A    between atoms: C_2  and  C_3 
REMARK    2  A    between atoms: C_3  and  O_6 
REMARK    3  A    between atoms: C_3  and  C_4 
REMARK    4  A    between atoms: C_7  and  O_6 
REMARK    5  A    between atoms: C_9  and  C_10 
REMARK    6  A    between atoms: N_15  and  C_14 
REMARK    7  A    between atoms: N_20  and  C_19 
REMARK       I    between atoms: C_22  and  N_20 
ROOT
ATOM      1  C   LIG d   1      -5.470  93.080 117.487  0.00  0.00     0.161 C 
ATOM      2  C   LIG d   1      -6.592  93.916 117.612  0.00  0.00     0.016 C 
ATOM      3  C   LIG d   1      -6.530  95.229 118.132  0.00  0.00     0.038 C 
ATOM      4  C   LIG d   1      -5.308  95.855 118.422  0.00  0.00     0.028 C 
ATOM      5  C   LIG d   1      -4.198  94.875 118.787  0.00  0.00    -0.047 C 
ATOM      6  C   LIG d   1      -4.113  93.784 117.695  0.00  0.00     0.091 C 
ENDROOT
BRANCH   1   7
ATOM      7  O   LIG d   1      -5.498  92.413 116.209  0.00  0.00    -0.368 OA
BRANCH   7   8
ATOM      8  C   LIG d   1      -5.899  91.021 116.226  0.00  0.00     0.119 C 
BRANCH   8   9
ATOM      9  C   LIG d   1      -4.633  90.172 115.996  0.00  0.00     0.028 C 
ATOM     10  C   LIG d   1      -4.750  89.268 114.758  0.00  0.00     0.006 C 
ENDBRANCH   8   9
BRANCH   8  11
ATOM     11  C   LIG d   1      -6.825  90.694 115.050  0.00  0.00     0.028 C 
ATOM     12  C   LIG d   1      -7.051  91.895 114.118  0.00  0.00     0.006 C 
ENDBRANCH   8  11
ENDBRANCH   7   8
ENDBRANCH   1   7
BRANCH   6  13
ATOM     13  N   LIG d   1      -3.108  92.737 118.016  0.00  0.00    -0.311 N 
ATOM     14  C   LIG d   1      -1.799  92.896 117.827  0.00  0.00     0.210 C 
ATOM     15  C   LIG d   1      -0.940  91.685 118.206  0.00  0.00     0.109 C 
ATOM     16  O   LIG d   1      -1.264  93.935 117.413  0.00  0.00    -0.276 OA
ATOM     17  H   LIG d   1      -3.452  91.873 118.387  0.00  0.00     0.149 HD
ENDBRANCH   6  13
BRANCH   5  18
ATOM     18  N   LIG d   1      -2.950  95.648 118.930  0.00  0.00     0.381 N 
ATOM     19  H   LIG d   1      -2.892  96.335 118.204  0.00  0.00    -0.090 HD
ATOM     20  H   LIG d   1      -2.168  95.024 118.837  0.00  0.00    -0.090 HD
ATOM     21  H   LIG d   1      -2.925  96.093 119.821  0.00  0.00    -0.090 HD
ENDBRANCH   5  18
BRANCH   3  22
ATOM     22  C   LIG d   1      -7.703  95.917 118.403  0.00  0.00     0.382 C 
ATOM     23  O   LIG d   1      -7.733  97.168 118.305  0.00  0.00    -0.241 OA
ATOM     24  O   LIG d   1      -8.718  95.307 118.788  0.00  0.00    -0.241 OA
ENDBRANCH   3  22
TORSDOF 7
ENDMDL
MODEL 8
REMARK VINA RESULT:      -4.0      1.940      5.103
REMARK  7 active torsions:
REMARK  status: ('A' for Active; 'I' for Inactive)
REMARK    1  A    between atoms: C_2  and  C_3 
REMARK    2  A    between atoms: C_3  and  O_6 
REMARK    3  A    between atoms: C_3  and  C_4 
REMARK    4  A    between atoms: C_7  and  O_6 
REMARK    5  A    between atoms: C_9  and  C_10 
REMARK    6  A    between atoms: N_15  and  C_14 
REMARK    7  A    between atoms: N_20  and  C_19 
REMARK       I    between atoms: C_22  and  N_20 
ROOT
ATOM      1  C   LIG d   1      -4.655  93.212 118.086  0.00  0.00     0.161 C 
ATOM      2  C   LIG d   1      -3.409  93.765 118.422  0.00  0.00     0.016 C 
ATOM      3  C   LIG d   1      -2.177  93.116 118.176  0.00  0.00     0.038 C 
ATOM      4  C   LIG d   1      -2.101  91.928 117.433  0.00  0.00     0.028 C 
ATOM      5  C   LIG d   1      -3.366  91.081 117.514  0.00  0.00    -0.047 C 
ATOM      6  C   LIG d   1      -4.586  91.968 117.175  0.00  0.00     0.091 C 
ENDROOT
BRANCH   1   7
ATOM      7  O   LIG d   1      -5.494  94.222 117.491  0.00  0.00    -0.368 OA
BRANCH   7   8
ATOM      8  C   LIG d   1      -6.670  94.600 118.246  0.00  0.00     0.119 C 
BRANCH   8   9
ATOM      9  C   LIG d   1      -7.823  94.792 117.242  0.00  0.00     0.028 C 
ATOM     10  C   LIG d   1      -7.727  93.830 116.046  0.00  0.00     0.006 C 
ENDBRANCH   8   9
BRANCH   8  11
ATOM     11  C   LIG d   1      -6.487  95.964 118.918  0.00  0.00     0.028 C 
ATOM     12  C   LIG d   1      -7.156  97.108 118.139  0.00  0.00     0.006 C 
ENDBRANCH   8  11
ENDBRANCH   7   8
ENDBRANCH   1   7
BRANCH   6  13
ATOM     13  N   LIG d   1      -5.873  91.238 117.313  0.00  0.00    -0.311 N 
ATOM     14  C   LIG d   1      -6.467  90.602 116.305  0.00  0.00     0.210 C 
ATOM     15  C   LIG d   1      -7.798  89.930 116.658  0.00  0.00     0.109 C 
ATOM     16  O   LIG d   1      -6.002  90.503 115.159  0.00  0.00    -0.276 OA
ATOM     17  H   LIG d   1      -6.305  91.241 118.217  0.00  0.00     0.149 HD
ENDBRANCH   6  13
BRANCH   5  18
ATOM     18  N   LIG d   1      -3.202  89.945 116.587  0.00  0.00     0.381 N 
ATOM     19  H   LIG d   1      -2.760  89.183 117.061  0.00  0.00    -0.090 HD
ATOM     20  H   LIG d   1      -2.610  90.229 115.826  0.00  0.00    -0.090 HD
ATOM     21  H   LIG d   1      -4.090  89.659 116.238  0.00  0.00    -0.090 HD
ENDBRANCH   5  18
BRANCH   3  22
ATOM     22  C   LIG d   1      -1.007  93.636 118.709  0.00  0.00     0.382 C 
ATOM     23  O   LIG d   1      -0.912  94.867 118.930  0.00  0.00    -0.241 OA
ATOM     24  O   LIG d   1      -0.030  92.896 118.930  0.00  0.00    -0.241 OA
ENDBRANCH   3  22
TORSDOF 7
ENDMDL
MODEL 9
REMARK VINA RESULT:      -3.9      8.045     11.548
REMARK  7 active torsions:
REMARK  status: ('A' for Active; 'I' for Inactive)
REMARK    1  A    between atoms: C_2  and  C_3 
REMARK    2  A    between atoms: C_3  and  O_6 
REMARK    3  A    between atoms: C_3  and  C_4 
REMARK    4  A    between atoms: C_7  and  O_6 
REMARK    5  A    between atoms: C_9  and  C_10 
REMARK    6  A    between atoms: N_15  and  C_14 
REMARK    7  A    between atoms: N_20  and  C_19 
REMARK       I    between atoms: C_22  and  N_20 
ROOT
ATOM      1  C   LIG d   1       3.743  88.890 115.814  0.00  0.00     0.161 C 
ATOM      2  C   LIG d   1       5.082  88.492 115.966  0.00  0.00     0.016 C 
ATOM      3  C   LIG d   1       5.914  88.944 117.016  0.00  0.00     0.038 C 
ATOM      4  C   LIG d   1       5.415  89.714 118.078  0.00  0.00     0.028 C 
ATOM      5  C   LIG d   1       4.200  90.553 117.699  0.00  0.00    -0.047 C 
ATOM      6  C   LIG d   1       3.150  89.641 117.024  0.00  0.00     0.091 C 
ENDROOT
BRANCH   1   7
ATOM      7  O   LIG d   1       2.928  87.748 115.484  0.00  0.00    -0.368 OA
BRANCH   7   8
ATOM      8  C   LIG d   1       3.574  86.454 115.580  0.00  0.00     0.119 C 
BRANCH   8   9
ATOM      9  C   LIG d   1       3.444  85.768 114.207  0.00  0.00     0.028 C 
ATOM     10  C   LIG d   1       3.624  86.753 113.039  0.00  0.00     0.006 C 
ENDBRANCH   8   9
BRANCH   8  11
ATOM     11  C   LIG d   1       2.841  85.537 116.563  0.00  0.00     0.028 C 
ATOM     12  C   LIG d   1       2.976  85.998 118.023  0.00  0.00     0.006 C 
ENDBRANCH   8  11
ENDBRANCH   7   8
ENDBRANCH   1   7
BRANCH   6  13
ATOM     13  N   LIG d   1       1.964  90.398 116.546  0.00  0.00    -0.311 N 
ATOM     14  C   LIG d   1       0.867  90.582 117.280  0.00  0.00     0.210 C 
ATOM     15  C   LIG d   1      -0.247  91.375 116.590  0.00  0.00     0.109 C 
ATOM     16  O   LIG d   1       0.724  90.191 118.448  0.00  0.00    -0.276 OA
ATOM     17  H   LIG d   1       2.007  90.777 115.621  0.00  0.00     0.149 HD
ENDBRANCH   6  13
BRANCH   5  18
ATOM     18  N   LIG d   1       3.701  91.196 118.929  0.00  0.00     0.381 N 
ATOM     19  H   LIG d   1       2.784  91.563 118.772  0.00  0.00    -0.090 HD
ATOM     20  H   LIG d   1       4.310  91.960 119.167  0.00  0.00    -0.090 HD
ATOM     21  H   LIG d   1       3.679  90.535 119.675  0.00  0.00    -0.090 HD
ENDBRANCH   5  18
BRANCH   3  22
ATOM     22  C   LIG d   1       7.271  88.660 116.989  0.00  0.00     0.382 C 
ATOM     23  O   LIG d   1       8.107  89.582 117.147  0.00  0.00    -0.241 OA
ATOM     24  O   LIG d   1       7.669  87.502 116.764  0.00  0.00    -0.241 OA
ENDBRANCH   3  22
TORSDOF 7
ENDMDL
