MODEL 1
REMARK VINA RESULT:      -4.5      0.000      0.000
REMARK  7 active torsions:
REMARK  status: ('A' for Active; 'I' for Inactive)
REMARK    1  A    between atoms: C_2  and  C_3 
REMARK    2  A    between atoms: C_3  and  O_6 
REMARK    3  A    between atoms: C_3  and  C_4 
REMARK    4  A    between atoms: C_7  and  O_6 
REMARK    5  A    between atoms: C_9  and  C_10 
REMARK    6  A    between atoms: N_15  and  C_14 
REMARK    7  A    between atoms: N_20  and  C_19 
REMARK       I    between atoms: C_22  and  N_20 
ROOT
ATOM      1  C   LIG d   1       4.843  88.550 115.769  0.00  0.00     0.161 C 
ATOM      2  C   LIG d   1       6.184  88.133 115.759  0.00  0.00     0.016 C 
ATOM      3  C   LIG d   1       6.626  86.916 116.328  0.00  0.00     0.038 C 
ATOM      4  C   LIG d   1       5.726  85.957 116.817  0.00  0.00     0.028 C 
ATOM      5  C   LIG d   1       4.410  86.553 117.304  0.00  0.00    -0.047 C 
ATOM      6  C   LIG d   1       3.832  87.466 116.198  0.00  0.00     0.091 C 
ENDROOT
BRANCH   1   7
ATOM      7  O   LIG d   1       4.487  89.084 114.479  0.00  0.00    -0.368 OA
BRANCH   7   8
ATOM      8  C   LIG d   1       3.998  88.128 113.506  0.00  0.00     0.119 C 
BRANCH   8   9
ATOM      9  C   LIG d   1       5.203  87.662 112.667  0.00  0.00     0.028 C 
ATOM     10  C   LIG d   1       5.401  86.138 112.719  0.00  0.00     0.006 C 
ENDBRANCH   8   9
BRANCH   8  11
ATOM     11  C   LIG d   1       3.040  88.788 112.510  0.00  0.00     0.028 C 
ATOM     12  C   LIG d   1       2.446  87.789 111.504  0.00  0.00     0.006 C 
ENDBRANCH   8  11
ENDBRANCH   7   8
ENDBRANCH   1   7
BRANCH   6  13
ATOM     13  N   LIG d   1       2.587  88.156 116.626  0.00  0.00    -0.311 N 
ATOM     14  C   LIG d   1       1.367  87.738 116.294  0.00  0.00     0.210 C 
ATOM     15  C   LIG d   1       0.220  88.606 116.823  0.00  0.00     0.109 C 
ATOM     16  O   LIG d   1       1.123  86.713 115.640  0.00  0.00    -0.276 OA
ATOM     17  H   LIG d   1       2.691  88.979 117.186  0.00  0.00     0.149 HD
ENDBRANCH   6  13
BRANCH   5  18
ATOM     18  N   LIG d   1       3.516  85.434 117.656  0.00  0.00     0.381 N 
ATOM     19  H   LIG d   1       3.290  85.473 118.630  0.00  0.00    -0.090 HD
ATOM     20  H   LIG d   1       3.994  84.568 117.478  0.00  0.00    -0.090 HD
ATOM     21  H   LIG d   1       2.683  85.479 117.112  0.00  0.00    -0.090 HD
ENDBRANCH   5  18
BRANCH   3  22
ATOM     22  C   LIG d   1       7.984  86.667 116.450  0.00  0.00     0.382 C 
ATOM     23  O   LIG d   1       8.777  87.612 116.680  0.00  0.00    -0.241 OA
ATOM     24  O   LIG d   1       8.432  85.516 116.288  0.00  0.00    -0.241 OA
ENDBRANCH   3  22
TORSDOF 7
ENDMDL
MODEL 2
REMARK VINA RESULT:      -4.3      5.863      9.275
REMARK  7 active torsions:
REMARK  status: ('A' for Active; 'I' for Inactive)
REMARK    1  A    between atoms: C_2  and  C_3 
REMARK    2  A    between atoms: C_3  and  O_6 
REMARK    3  A    between atoms: C_3  and  C_4 
REMARK    4  A    between atoms: C_7  and  O_6 
REMARK    5  A    between atoms: C_9  and  C_10 
REMARK    6  A    between atoms: N_15  and  C_14 
REMARK    7  A    between atoms: N_20  and  C_19 
REMARK       I    between atoms: C_22  and  N_20 
ROOT
ATOM      1  C   LIG d   1      -2.083  89.737 117.750  0.00  0.00     0.161 C 
ATOM      2  C   LIG d   1      -3.414  89.382 117.478  0.00  0.00     0.016 C 
ATOM      3  C   LIG d   1      -4.456  90.326 117.327  0.00  0.00     0.038 C 
ATOM      4  C   LIG d   1      -4.206  91.706 117.287  0.00  0.00     0.028 C 
ATOM      5  C   LIG d   1      -2.957  92.117 118.060  0.00  0.00    -0.047 C 
ATOM      6  C   LIG d   1      -1.770  91.241 117.600  0.00  0.00     0.091 C 
ENDROOT
BRANCH   1   7
ATOM      7  O   LIG d   1      -1.191  88.956 116.929  0.00  0.00    -0.368 OA
BRANCH   7   8
ATOM      8  C   LIG d   1      -0.716  87.715 117.506  0.00  0.00     0.119 C 
BRANCH   8   9
ATOM      9  C   LIG d   1      -0.109  88.048 118.883  0.00  0.00     0.028 C 
ATOM     10  C   LIG d   1       1.269  88.721 118.769  0.00  0.00     0.006 C 
ENDBRANCH   8   9
BRANCH   8  11
ATOM     11  C   LIG d   1       0.436  87.125 116.687  0.00  0.00     0.028 C 
ATOM     12  C   LIG d   1       0.956  85.797 117.261  0.00  0.00     0.006 C 
ENDBRANCH   8  11
ENDBRANCH   7   8
ENDBRANCH   1   7
BRANCH   6  13
ATOM     13  N   LIG d   1      -0.528  91.521 118.366  0.00  0.00    -0.311 N 
ATOM     14  C   LIG d   1       0.358  92.450 118.012  0.00  0.00     0.210 C 
ATOM     15  C   LIG d   1       1.579  92.562 118.930  0.00  0.00     0.109 C 
ATOM     16  O   LIG d   1       0.232  93.214 117.043  0.00  0.00    -0.276 OA
ATOM     17  H   LIG d   1      -0.362  90.968 119.184  0.00  0.00     0.149 HD
ENDBRANCH   6  13
BRANCH   5  18
ATOM     18  N   LIG d   1      -2.740  93.557 117.821  0.00  0.00     0.381 N 
ATOM     19  H   LIG d   1      -2.989  93.785 116.879  0.00  0.00    -0.090 HD
ATOM     20  H   LIG d   1      -1.765  93.764 117.948  0.00  0.00    -0.090 HD
ATOM     21  H   LIG d   1      -3.287  94.095 118.457  0.00  0.00    -0.090 HD
ENDBRANCH   5  18
BRANCH   3  22
ATOM     22  C   LIG d   1      -5.771  89.892 117.253  0.00  0.00     0.382 C 
ATOM     23  O   LIG d   1      -6.127  89.125 116.326  0.00  0.00    -0.241 OA
ATOM     24  O   LIG d   1      -6.616  90.295 118.075  0.00  0.00    -0.241 OA
ENDBRANCH   3  22
TORSDOF 7
ENDMDL
MODEL 3
REMARK VINA RESULT:      -4.2      7.859     10.120
REMARK  7 active torsions:
REMARK  status: ('A' for Active; 'I' for Inactive)
REMARK    1  A    between atoms: C_2  and  C_3 
REMARK    2  A    between atoms: C_3  and  O_6 
REMARK    3  A    between atoms: C_3  and  C_4 
REMARK    4  A    between atoms: C_7  and  O_6 
REMARK    5  A    between atoms: C_9  and  C_10 
REMARK    6  A    between atoms: N_15  and  C_14 
REMARK    7  A    between atoms: N_20  and  C_19 
REMARK       I    between atoms: C_22  and  N_20 
ROOT
ATOM      1  C   LIG d   1      -3.286  91.727 118.416  0.00  0.00     0.161 C 
ATOM      2  C   LIG d   1      -2.479  90.592 118.229  0.00  0.00     0.016 C 
ATOM      3  C   LIG d   1      -2.981  89.342 117.801  0.00  0.00     0.038 C 
ATOM      4  C   LIG d   1      -4.311  89.180 117.383  0.00  0.00     0.028 C 
ATOM      5  C   LIG d   1      -5.274  90.168 118.033  0.00  0.00    -0.047 C 
ATOM      6  C   LIG d   1      -4.719  91.600 117.858  0.00  0.00     0.091 C 
ENDROOT
BRANCH   1   7
ATOM      7  O   LIG d   1      -2.634  92.887 117.862  0.00  0.00    -0.368 OA
BRANCH   7   8
ATOM      8  C   LIG d   1      -1.655  93.534 118.711  0.00  0.00     0.119 C 
BRANCH   8   9
ATOM      9  C   LIG d   1      -2.120  94.987 118.930  0.00  0.00     0.028 C 
ATOM     10  C   LIG d   1      -1.312  95.994 118.095  0.00  0.00     0.006 C 
ENDBRANCH   8   9
BRANCH   8  11
ATOM     11  C   LIG d   1      -0.297  93.644 118.013  0.00  0.00     0.028 C 
ATOM     12  C   LIG d   1       0.704  92.577 118.485  0.00  0.00     0.006 C 
ENDBRANCH   8  11
ENDBRANCH   7   8
ENDBRANCH   1   7
BRANCH   6  13
ATOM     13  N   LIG d   1      -5.559  92.620 118.539  0.00  0.00    -0.311 N 
ATOM     14  C   LIG d   1      -6.570  93.251 117.945  0.00  0.00     0.210 C 
ATOM     15  C   LIG d   1      -7.293  94.280 118.821  0.00  0.00     0.109 C 
ATOM     16  O   LIG d   1      -6.958  93.034 116.788  0.00  0.00    -0.276 OA
ATOM     17  H   LIG d   1      -5.333  92.835 119.490  0.00  0.00     0.149 HD
ENDBRANCH   6  13
BRANCH   5  18
ATOM     18  N   LIG d   1      -6.596  89.979 117.406  0.00  0.00     0.381 N 
ATOM     19  H   LIG d   1      -6.701  90.614 116.640  0.00  0.00    -0.090 HD
ATOM     20  H   LIG d   1      -7.309  90.182 118.084  0.00  0.00    -0.090 HD
ATOM     21  H   LIG d   1      -6.690  89.041 117.085  0.00  0.00    -0.090 HD
ENDBRANCH   5  18
BRANCH   3  22
ATOM     22  C   LIG d   1      -2.159  88.226 117.826  0.00  0.00     0.382 C 
ATOM     23  O   LIG d   1      -2.370  87.310 118.658  0.00  0.00    -0.241 OA
ATOM     24  O   LIG d   1      -1.182  88.143 117.058  0.00  0.00    -0.241 OA
ENDBRANCH   3  22
TORSDOF 7
ENDMDL
MODEL 4
REMARK VINA RESULT:      -4.0      2.120      2.993
REMARK  7 active torsions:
REMARK  status: ('A' for Active; 'I' for Inactive)
REMARK    1  A    between atoms: C_2  and  C_3 
REMARK    2  A    between atoms: C_3  and  O_6 
REMARK    3  A    between atoms: C_3  and  C_4 
REMARK    4  A    between atoms: C_7  and  O_6 
REMARK    5  A    between atoms: C_9  and  C_10 
REMARK    6  A    between atoms: N_15  and  C_14 
REMARK    7  A    between atoms: N_20  and  C_19 
REMARK       I    between atoms: C_22  and  N_20 
ROOT
ATOM      1  C   LIG d   1       4.694  88.117 115.005  0.00  0.00     0.161 C 
ATOM      2  C   LIG d   1       5.285  89.245 115.598  0.00  0.00     0.016 C 
ATOM      3  C   LIG d   1       5.362  89.439 116.996  0.00  0.00     0.038 C 
ATOM      4  C   LIG d   1       4.985  88.439 117.905  0.00  0.00     0.028 C 
ATOM      5  C   LIG d   1       3.920  87.494 117.359  0.00  0.00    -0.047 C 
ATOM      6  C   LIG d   1       4.378  86.964 115.981  0.00  0.00     0.091 C 
ENDROOT
BRANCH   1   7
ATOM      7  O   LIG d   1       5.521  87.644 113.923  0.00  0.00    -0.368 OA
BRANCH   7   8
ATOM      8  C   LIG d   1       5.150  88.091 112.596  0.00  0.00     0.119 C 
BRANCH   8   9
ATOM      9  C   LIG d   1       3.759  88.746 112.699  0.00  0.00     0.028 C 
ATOM     10  C   LIG d   1       2.724  88.074 111.781  0.00  0.00     0.006 C 
ENDBRANCH   8   9
BRANCH   8  11
ATOM     11  C   LIG d   1       4.971  86.908 111.640  0.00  0.00     0.028 C 
ATOM     12  C   LIG d   1       5.082  85.548 112.347  0.00  0.00     0.006 C 
ENDBRANCH   8  11
ENDBRANCH   7   8
ENDBRANCH   1   7
BRANCH   6  13
ATOM     13  N   LIG d   1       3.355  86.099 115.338  0.00  0.00    -0.311 N 
ATOM     14  C   LIG d   1       2.098  86.484 115.124  0.00  0.00     0.210 C 
ATOM     15  C   LIG d   1       1.202  85.430 114.466  0.00  0.00     0.109 C 
ATOM     16  O   LIG d   1       1.649  87.610 115.387  0.00  0.00    -0.276 OA
ATOM     17  H   LIG d   1       3.642  85.180 115.065  0.00  0.00     0.149 HD
ENDBRANCH   6  13
BRANCH   5  18
ATOM     18  N   LIG d   1       3.722  86.423 118.354  0.00  0.00     0.381 N 
ATOM     19  H   LIG d   1       3.294  86.799 119.176  0.00  0.00    -0.090 HD
ATOM     20  H   LIG d   1       4.618  86.047 118.609  0.00  0.00    -0.090 HD
ATOM     21  H   LIG d   1       3.148  85.704 117.971  0.00  0.00    -0.090 HD
ENDBRANCH   5  18
BRANCH   3  22
ATOM     22  C   LIG d   1       5.784  90.661 117.499  0.00  0.00     0.382 C 
ATOM     23  O   LIG d   1       6.926  90.769 118.006  0.00  0.00    -0.241 OA
ATOM     24  O   LIG d   1       5.020  91.644 117.491  0.00  0.00    -0.241 OA
ENDBRANCH   3  22
TORSDOF 7
ENDMDL
MODEL 5
REMARK VINA RESULT:      -3.9      6.604      9.142
REMARK  7 active torsions:
REMARK  status: ('A' for Active; 'I' for Inactive)
REMARK    1  A    between atoms: C_2  and  C_3 
REMARK    2  A    between atoms: C_3  and  O_6 
REMARK    3  A    between atoms: C_3  and  C_4 
REMARK    4  A    between atoms: C_7  and  O_6 
REMARK    5  A    between atoms: C_9  and  C_10 
REMARK    6  A    between atoms: N_15  and  C_14 
REMARK    7  A    between atoms: N_20  and  C_19 
REMARK       I    between atoms: C_22  and  N_20 
ROOT
ATOM      1  C   LIG d   1      -2.976  90.437 117.333  0.00  0.00     0.161 C 
ATOM      2  C   LIG d   1      -1.849  91.276 117.349  0.00  0.00     0.016 C 
ATOM      3  C   LIG d   1      -1.884  92.618 117.792  0.00  0.00     0.038 C 
ATOM      4  C   LIG d   1      -3.024  93.170 118.396  0.00  0.00     0.028 C 
ATOM      5  C   LIG d   1      -4.326  92.521 117.938  0.00  0.00    -0.047 C 
ATOM      6  C   LIG d   1      -4.203  90.987 118.091  0.00  0.00     0.091 C 
ENDROOT
BRANCH   1   7
ATOM      7  O   LIG d   1      -2.622  89.133 117.833  0.00  0.00    -0.368 OA
BRANCH   7   8
ATOM      8  C   LIG d   1      -1.253  88.715 117.610  0.00  0.00     0.119 C 
BRANCH   8   9
ATOM      9  C   LIG d   1      -1.293  87.291 117.021  0.00  0.00     0.028 C 
ATOM     10  C   LIG d   1       0.021  86.908 116.320  0.00  0.00     0.006 C 
ENDBRANCH   8   9
BRANCH   8  11
ATOM     11  C   LIG d   1      -0.487  88.586 118.930  0.00  0.00     0.028 C 
ATOM     12  C   LIG d   1       0.840  89.361 118.927  0.00  0.00     0.006 C 
ENDBRANCH   8  11
ENDBRANCH   7   8
ENDBRANCH   1   7
BRANCH   6  13
ATOM     13  N   LIG d   1      -5.402  90.269 117.587  0.00  0.00    -0.311 N 
ATOM     14  C   LIG d   1      -5.828  90.347 116.327  0.00  0.00     0.210 C 
ATOM     15  C   LIG d   1      -7.096  89.543 116.022  0.00  0.00     0.109 C 
ATOM     16  O   LIG d   1      -5.257  90.979 115.425  0.00  0.00    -0.276 OA
ATOM     17  H   LIG d   1      -5.908  89.708 118.244  0.00  0.00     0.149 HD
ENDBRANCH   6  13
BRANCH   5  18
ATOM     18  N   LIG d   1      -5.419  93.096 118.746  0.00  0.00     0.381 N 
ATOM     19  H   LIG d   1      -5.567  92.537 119.562  0.00  0.00    -0.090 HD
ATOM     20  H   LIG d   1      -6.263  93.089 118.201  0.00  0.00    -0.090 HD
ATOM     21  H   LIG d   1      -5.192  94.029 119.010  0.00  0.00    -0.090 HD
ENDBRANCH   5  18
BRANCH   3  22
ATOM     22  C   LIG d   1      -0.781  93.435 117.597  0.00  0.00     0.382 C 
ATOM     23  O   LIG d   1      -0.924  94.681 117.552  0.00  0.00    -0.241 OA
ATOM     24  O   LIG d   1       0.348  92.940 117.421  0.00  0.00    -0.241 OA
ENDBRANCH   3  22
TORSDOF 7
ENDMDL
MODEL 6
REMARK VINA RESULT:      -3.8      7.553     11.038
REMARK  7 active torsions:
REMARK  status: ('A' for Active; 'I' for Inactive)
REMARK    1  A    between atoms: C_2  and  C_3 
REMARK    2  A    between atoms: C_3  and  O_6 
REMARK    3  A    between atoms: C_3  and  C_4 
REMARK    4  A    between atoms: C_7  and  O_6 
REMARK    5  A    between atoms: C_9  and  C_10 
REMARK    6  A    between atoms: N_15  and  C_14 
REMARK    7  A    between atoms: N_20  and  C_19 
REMARK       I    between atoms: C_22  and  N_20 
ROOT
ATOM      1  C   LIG d   1      -3.632  92.024 117.958  0.00  0.00     0.161 C 
ATOM      2  C   LIG d   1      -4.497  93.106 118.193  0.00  0.00     0.016 C 
ATOM      3  C   LIG d   1      -5.906  92.999 118.152  0.00  0.00     0.038 C 
ATOM      4  C   LIG d   1      -6.552  91.761 118.022  0.00  0.00     0.028 C 
ATOM      5  C   LIG d   1      -5.722  90.720 117.279  0.00  0.00    -0.047 C 
ATOM      6  C   LIG d   1      -4.319  90.643 117.924  0.00  0.00     0.091 C 
ENDROOT
BRANCH   1   7
ATOM      7  O   LIG d   1      -2.567  92.030 118.929  0.00  0.00    -0.368 OA
BRANCH   7   8
ATOM      8  C   LIG d   1      -1.265  92.442 118.444  0.00  0.00     0.119 C 
BRANCH   8   9
ATOM      9  C   LIG d   1      -1.491  93.521 117.369  0.00  0.00     0.028 C 
ATOM     10  C   LIG d   1      -1.153  94.934 117.875  0.00  0.00     0.006 C 
ENDBRANCH   8   9
BRANCH   8  11
ATOM     11  C   LIG d   1      -0.551  91.294 117.723  0.00  0.00     0.028 C 
ATOM     12  C   LIG d   1       0.253  90.398 118.679  0.00  0.00     0.006 C 
ENDBRANCH   8  11
ENDBRANCH   7   8
ENDBRANCH   1   7
BRANCH   6  13
ATOM     13  N   LIG d   1      -3.415  89.708 117.205  0.00  0.00    -0.311 N 
ATOM     14  C   LIG d   1      -2.887  88.622 117.766  0.00  0.00     0.210 C 
ATOM     15  C   LIG d   1      -1.965  87.806 116.854  0.00  0.00     0.109 C 
ATOM     16  O   LIG d   1      -3.120  88.239 118.923  0.00  0.00    -0.276 OA
ATOM     17  H   LIG d   1      -3.197  89.926 116.253  0.00  0.00     0.149 HD
ENDBRANCH   6  13
BRANCH   5  18
ATOM     18  N   LIG d   1      -6.455  89.441 117.336  0.00  0.00     0.381 N 
ATOM     19  H   LIG d   1      -6.670  89.216 118.287  0.00  0.00    -0.090 HD
ATOM     20  H   LIG d   1      -5.870  88.713 116.965  0.00  0.00    -0.090 HD
ATOM     21  H   LIG d   1      -7.295  89.506 116.804  0.00  0.00    -0.090 HD
ENDBRANCH   5  18
BRANCH   3  22
ATOM     22  C   LIG d   1      -6.684  94.146 118.202  0.00  0.00     0.382 C 
ATOM     23  O   LIG d   1      -6.137  95.271 118.295  0.00  0.00    -0.241 OA
ATOM     24  O   LIG d   1      -7.927  94.066 118.201  0.00  0.00    -0.241 OA
ENDBRANCH   3  22
TORSDOF 7
ENDMDL
MODEL 7
REMARK VINA RESULT:      -3.8      1.631      1.973
REMARK  7 active torsions:
REMARK  status: ('A' for Active; 'I' for Inactive)
REMARK    1  A    between atoms: C_2  and  C_3 
REMARK    2  A    between atoms: C_3  and  O_6 
REMARK    3  A    between atoms: C_3  and  C_4 
REMARK    4  A    between atoms: C_7  and  O_6 
REMARK    5  A    between atoms: C_9  and  C_10 
REMARK    6  A    between atoms: N_15  and  C_14 
REMARK    7  A    between atoms: N_20  and  C_19 
REMARK       I    between atoms: C_22  and  N_20 
ROOT
ATOM      1  C   LIG d   1       3.412  87.813 115.411  0.00  0.00     0.161 C 
ATOM      2  C   LIG d   1       4.661  87.170 115.421  0.00  0.00     0.016 C 
ATOM      3  C   LIG d   1       5.106  86.349 116.483  0.00  0.00     0.038 C 
ATOM      4  C   LIG d   1       4.264  85.992 117.546  0.00  0.00     0.028 C 
ATOM      5  C   LIG d   1       3.175  87.021 117.829  0.00  0.00    -0.047 C 
ATOM      6  C   LIG d   1       2.436  87.345 116.511  0.00  0.00     0.091 C 
ENDROOT
BRANCH   1   7
ATOM      7  O   LIG d   1       2.804  87.679 114.112  0.00  0.00    -0.368 OA
BRANCH   7   8
ATOM      8  C   LIG d   1       3.083  86.448 113.401  0.00  0.00     0.119 C 
BRANCH   8   9
ATOM      9  C   LIG d   1       3.435  86.821 111.948  0.00  0.00     0.028 C 
ATOM     10  C   LIG d   1       4.953  86.908 111.716  0.00  0.00     0.006 C 
ENDBRANCH   8   9
BRANCH   8  11
ATOM     11  C   LIG d   1       1.834  85.566 113.302  0.00  0.00     0.028 C 
ATOM     12  C   LIG d   1       1.282  85.474 111.871  0.00  0.00     0.006 C 
ENDBRANCH   8  11
ENDBRANCH   7   8
ENDBRANCH   1   7
BRANCH   6  13
ATOM     13  N   LIG d   1       1.410  88.407 116.683  0.00  0.00    -0.311 N 
ATOM     14  C   LIG d   1       0.128  88.153 116.938  0.00  0.00     0.210 C 
ATOM     15  C   LIG d   1      -0.766  89.391 117.058  0.00  0.00     0.109 C 
ATOM     16  O   LIG d   1      -0.349  87.020 117.108  0.00  0.00    -0.276 OA
ATOM     17  H   LIG d   1       1.716  89.356 116.592  0.00  0.00     0.149 HD
ENDBRANCH   6  13
BRANCH   5  18
ATOM     18  N   LIG d   1       2.289  86.459 118.866  0.00  0.00     0.381 N 
ATOM     19  H   LIG d   1       2.579  86.778 119.769  0.00  0.00    -0.090 HD
ATOM     20  H   LIG d   1       2.361  85.457 118.847  0.00  0.00    -0.090 HD
ATOM     21  H   LIG d   1       1.347  86.735 118.696  0.00  0.00    -0.090 HD
ENDBRANCH   5  18
BRANCH   3  22
ATOM     22  C   LIG d   1       6.421  85.909 116.507  0.00  0.00     0.382 C 
ATOM     23  O   LIG d   1       6.902  85.430 117.562  0.00  0.00    -0.241 OA
ATOM     24  O   LIG d   1       7.145  86.027 115.501  0.00  0.00    -0.241 OA
ENDBRANCH   3  22
TORSDOF 7
ENDMDL
MODEL 8
REMARK VINA RESULT:      -3.6      7.672     11.510
REMARK  7 active torsions:
REMARK  status: ('A' for Active; 'I' for Inactive)
REMARK    1  A    between atoms: C_2  and  C_3 
REMARK    2  A    between atoms: C_3  and  O_6 
REMARK    3  A    between atoms: C_3  and  C_4 
REMARK    4  A    between atoms: C_7  and  O_6 
REMARK    5  A    between atoms: C_9  and  C_10 
REMARK    6  A    between atoms: N_15  and  C_14 
REMARK    7  A    between atoms: N_20  and  C_19 
REMARK       I    between atoms: C_22  and  N_20 
ROOT
ATOM      1  C   LIG d   1      -5.387  90.329 118.321  0.00  0.00     0.161 C 
ATOM      2  C   LIG d   1      -6.143  91.512 118.339  0.00  0.00     0.016 C 
ATOM      3  C   LIG d   1      -5.572  92.799 118.470  0.00  0.00     0.038 C 
ATOM      4  C   LIG d   1      -4.184  93.001 118.439  0.00  0.00     0.028 C 
ATOM      5  C   LIG d   1      -3.386  91.798 118.930  0.00  0.00    -0.047 C 
ATOM      6  C   LIG d   1      -3.865  90.536 118.175  0.00  0.00     0.091 C 
ENDROOT
BRANCH   1   7
ATOM      7  O   LIG d   1      -5.875  89.453 117.286  0.00  0.00    -0.368 OA
BRANCH   7   8
ATOM      8  C   LIG d   1      -6.736  90.059 116.291  0.00  0.00     0.119 C 
BRANCH   8   9
ATOM      9  C   LIG d   1      -7.848  89.044 115.962  0.00  0.00     0.028 C 
ATOM     10  C   LIG d   1      -8.798  89.551 114.863  0.00  0.00     0.006 C 
ENDBRANCH   8   9
BRANCH   8  11
ATOM     11  C   LIG d   1      -5.991  90.287 114.973  0.00  0.00     0.028 C 
ATOM     12  C   LIG d   1      -6.165  91.714 114.429  0.00  0.00     0.006 C 
ENDBRANCH   8  11
ENDBRANCH   7   8
ENDBRANCH   1   7
BRANCH   6  13
ATOM     13  N   LIG d   1      -3.194  89.300 118.655  0.00  0.00    -0.311 N 
ATOM     14  C   LIG d   1      -2.087  88.805 118.103  0.00  0.00     0.210 C 
ATOM     15  C   LIG d   1      -1.571  87.510 118.739  0.00  0.00     0.109 C 
ATOM     16  O   LIG d   1      -1.465  89.333 117.169  0.00  0.00    -0.276 OA
ATOM     17  H   LIG d   1      -3.614  88.825 119.429  0.00  0.00     0.149 HD
ENDBRANCH   6  13
BRANCH   5  18
ATOM     18  N   LIG d   1      -1.957  92.093 118.715  0.00  0.00     0.381 N 
ATOM     19  H   LIG d   1      -1.624  92.701 119.437  0.00  0.00    -0.090 HD
ATOM     20  H   LIG d   1      -1.851  92.563 117.833  0.00  0.00    -0.090 HD
ATOM     21  H   LIG d   1      -1.430  91.247 118.714  0.00  0.00    -0.090 HD
ENDBRANCH   5  18
BRANCH   3  22
ATOM     22  C   LIG d   1      -6.393  93.898 118.673  0.00  0.00     0.382 C 
ATOM     23  O   LIG d   1      -7.640  93.766 118.625  0.00  0.00    -0.241 OA
ATOM     24  O   LIG d   1      -5.902  95.027 118.860  0.00  0.00    -0.241 OA
ENDBRANCH   3  22
TORSDOF 7
ENDMDL
MODEL 9
REMARK VINA RESULT:      -3.0      7.866     10.861
REMARK  7 active torsions:
REMARK  status: ('A' for Active; 'I' for Inactive)
REMARK    1  A    between atoms: C_2  and  C_3 
REMARK    2  A    between atoms: C_3  and  O_6 
REMARK    3  A    between atoms: C_3  and  C_4 
REMARK    4  A    between atoms: C_7  and  O_6 
REMARK    5  A    between atoms: C_9  and  C_10 
REMARK    6  A    between atoms: N_15  and  C_14 
REMARK    7  A    between atoms: N_20  and  C_19 
REMARK       I    between atoms: C_22  and  N_20 
ROOT
ATOM      1  C   LIG d   1      -3.909  91.036 116.660  0.00  0.00     0.161 C 
ATOM      2  C   LIG d   1      -4.160  92.169 117.452  0.00  0.00     0.016 C 
ATOM      3  C   LIG d   1      -5.405  92.426 118.070  0.00  0.00     0.038 C 
ATOM      4  C   LIG d   1      -6.445  91.485 118.062  0.00  0.00     0.028 C 
ATOM      5  C   LIG d   1      -6.411  90.554 116.854  0.00  0.00    -0.047 C 
ATOM      6  C   LIG d   1      -4.996  89.943 116.731  0.00  0.00     0.091 C 
ENDROOT
BRANCH   1   7
ATOM      7  O   LIG d   1      -2.620  90.482 116.992  0.00  0.00    -0.368 OA
BRANCH   7   8
ATOM      8  C   LIG d   1      -2.416  90.136 118.384  0.00  0.00     0.119 C 
BRANCH   8   9
ATOM      9  C   LIG d   1      -1.056  90.722 118.812  0.00  0.00     0.028 C 
ATOM     10  C   LIG d   1      -0.553  91.805 117.843  0.00  0.00     0.006 C 
ENDBRANCH   8   9
BRANCH   8  11
ATOM     11  C   LIG d   1      -2.280  88.621 118.567  0.00  0.00     0.028 C 
ATOM     12  C   LIG d   1      -1.773  87.911 117.302  0.00  0.00     0.006 C 
ENDBRANCH   8  11
ENDBRANCH   7   8
ENDBRANCH   1   7
BRANCH   6  13
ATOM     13  N   LIG d   1      -4.852  89.085 115.526  0.00  0.00    -0.311 N 
ATOM     14  C   LIG d   1      -5.582  89.243 114.423  0.00  0.00     0.210 C 
ATOM     15  C   LIG d   1      -5.287  88.238 113.305  0.00  0.00     0.109 C 
ATOM     16  O   LIG d   1      -6.422  90.139 114.253  0.00  0.00    -0.276 OA
ATOM     17  H   LIG d   1      -4.171  88.353 115.567  0.00  0.00     0.149 HD
ENDBRANCH   6  13
BRANCH   5  18
ATOM     18  N   LIG d   1      -7.465  89.540 117.044  0.00  0.00     0.381 N 
ATOM     19  H   LIG d   1      -8.349  89.989 117.170  0.00  0.00    -0.090 HD
ATOM     20  H   LIG d   1      -7.260  89.009 117.872  0.00  0.00    -0.090 HD
ATOM     21  H   LIG d   1      -7.501  88.934 116.253  0.00  0.00    -0.090 HD
ENDBRANCH   5  18
BRANCH   3  22
ATOM     22  C   LIG d   1      -5.632  93.654 118.672  0.00  0.00     0.382 C 
ATOM     23  O   LIG d   1      -6.806  94.023 118.920  0.00  0.00    -0.241 OA
ATOM     24  O   LIG d   1      -4.682  94.417 118.930  0.00  0.00    -0.241 OA
ENDBRANCH   3  22
TORSDOF 7
ENDMDL
