MODEL 1
REMARK VINA RESULT:      -5.6      0.000      0.000
REMARK  7 active torsions:
REMARK  status: ('A' for Active; 'I' for Inactive)
REMARK    1  A    between atoms: C_2  and  C_3 
REMARK    2  A    between atoms: C_3  and  O_6 
REMARK    3  A    between atoms: C_3  and  C_4 
REMARK    4  A    between atoms: C_7  and  O_6 
REMARK    5  A    between atoms: C_9  and  C_10 
REMARK    6  A    between atoms: N_15  and  C_14 
REMARK    7  A    between atoms: N_20  and  C_19 
REMARK       I    between atoms: C_22  and  N_20 
ROOT
ATOM      1  C   LIG d   1       2.237  88.873 115.420  0.00  0.00     0.161 C 
ATOM      2  C   LIG d   1       1.045  89.110 116.126  0.00  0.00     0.016 C 
ATOM      3  C   LIG d   1       0.885  90.169 117.049  0.00  0.00     0.038 C 
ATOM      4  C   LIG d   1       1.863  91.161 117.217  0.00  0.00     0.028 C 
ATOM      5  C   LIG d   1       3.275  90.678 116.901  0.00  0.00    -0.047 C 
ATOM      6  C   LIG d   1       3.277  90.010 115.507  0.00  0.00     0.091 C 
ENDROOT
BRANCH   1   7
ATOM      7  O   LIG d   1       1.937  88.573 114.042  0.00  0.00    -0.368 OA
BRANCH   7   8
ATOM      8  C   LIG d   1       2.254  87.231 113.599  0.00  0.00     0.119 C 
BRANCH   8   9
ATOM      9  C   LIG d   1       2.682  87.321 112.121  0.00  0.00     0.028 C 
ATOM     10  C   LIG d   1       4.072  86.710 111.875  0.00  0.00     0.006 C 
ENDBRANCH   8   9
BRANCH   8  11
ATOM     11  C   LIG d   1       1.014  86.333 113.608  0.00  0.00     0.028 C 
ATOM     12  C   LIG d   1       0.484  86.035 112.196  0.00  0.00     0.006 C 
ENDBRANCH   8  11
ENDBRANCH   7   8
ENDBRANCH   1   7
BRANCH   6  13
ATOM     13  N   LIG d   1       4.601  89.435 115.156  0.00  0.00    -0.311 N 
ATOM     14  C   LIG d   1       5.169  89.578 113.959  0.00  0.00     0.210 C 
ATOM     15  C   LIG d   1       6.528  88.889 113.801  0.00  0.00     0.109 C 
ATOM     16  O   LIG d   1       4.691  90.238 113.024  0.00  0.00    -0.276 OA
ATOM     17  H   LIG d   1       5.074  88.910 115.866  0.00  0.00     0.149 HD
ENDBRANCH   6  13
BRANCH   5  18
ATOM     18  N   LIG d   1       4.174  91.845 116.983  0.00  0.00     0.381 N 
ATOM     19  H   LIG d   1       4.666  91.833 117.854  0.00  0.00    -0.090 HD
ATOM     20  H   LIG d   1       3.622  92.684 116.945  0.00  0.00    -0.090 HD
ATOM     21  H   LIG d   1       4.822  91.831 116.227  0.00  0.00    -0.090 HD
ENDBRANCH   5  18
BRANCH   3  22
ATOM     22  C   LIG d   1      -0.249  90.221 117.845  0.00  0.00     0.382 C 
ATOM     23  O   LIG d   1      -1.228  90.924 117.496  0.00  0.00    -0.241 OA
ATOM     24  O   LIG d   1      -0.287  89.610 118.930  0.00  0.00    -0.241 OA
ENDBRANCH   3  22
TORSDOF 7
ENDMDL
MODEL 2
REMARK VINA RESULT:      -4.9      1.956      5.283
REMARK  7 active torsions:
REMARK  status: ('A' for Active; 'I' for Inactive)
REMARK    1  A    between atoms: C_2  and  C_3 
REMARK    2  A    between atoms: C_3  and  O_6 
REMARK    3  A    between atoms: C_3  and  C_4 
REMARK    4  A    between atoms: C_7  and  O_6 
REMARK    5  A    between atoms: C_9  and  C_10 
REMARK    6  A    between atoms: N_15  and  C_14 
REMARK    7  A    between atoms: N_20  and  C_19 
REMARK       I    between atoms: C_22  and  N_20 
ROOT
ATOM      1  C   LIG d   1       2.342  89.656 116.723  0.00  0.00     0.161 C 
ATOM      2  C   LIG d   1       1.876  89.046 115.547  0.00  0.00     0.016 C 
ATOM      3  C   LIG d   1       2.702  88.295 114.679  0.00  0.00     0.038 C 
ATOM      4  C   LIG d   1       4.027  87.975 115.011  0.00  0.00     0.028 C 
ATOM      5  C   LIG d   1       4.682  88.991 115.940  0.00  0.00    -0.047 C 
ATOM      6  C   LIG d   1       3.759  89.225 117.157  0.00  0.00     0.091 C 
ENDROOT
BRANCH   1   7
ATOM      7  O   LIG d   1       1.401  89.438 117.793  0.00  0.00    -0.368 OA
BRANCH   7   8
ATOM      8  C   LIG d   1       0.200  90.247 117.761  0.00  0.00     0.119 C 
BRANCH   8   9
ATOM      9  C   LIG d   1       0.623  91.712 117.984  0.00  0.00     0.028 C 
ATOM     10  C   LIG d   1      -0.493  92.707 117.624  0.00  0.00     0.006 C 
ENDBRANCH   8   9
BRANCH   8  11
ATOM     11  C   LIG d   1      -0.730  89.911 118.930  0.00  0.00     0.028 C 
ATOM     12  C   LIG d   1      -2.055  89.279 118.475  0.00  0.00     0.006 C 
ENDBRANCH   8  11
ENDBRANCH   7   8
ENDBRANCH   1   7
BRANCH   6  13
ATOM     13  N   LIG d   1       4.284  90.269 118.075  0.00  0.00    -0.311 N 
ATOM     14  C   LIG d   1       4.378  91.556 117.745  0.00  0.00     0.210 C 
ATOM     15  C   LIG d   1       4.967  92.461 118.832  0.00  0.00     0.109 C 
ATOM     16  O   LIG d   1       4.000  92.039 116.667  0.00  0.00    -0.276 OA
ATOM     17  H   LIG d   1       4.585  89.970 118.982  0.00  0.00     0.149 HD
ENDBRANCH   6  13
BRANCH   5  18
ATOM     18  N   LIG d   1       6.008  88.465 116.313  0.00  0.00     0.381 N 
ATOM     19  H   LIG d   1       6.410  89.036 117.029  0.00  0.00    -0.090 HD
ATOM     20  H   LIG d   1       6.609  88.498 115.509  0.00  0.00    -0.090 HD
ATOM     21  H   LIG d   1       5.924  87.526 116.635  0.00  0.00    -0.090 HD
ENDBRANCH   5  18
BRANCH   3  22
ATOM     22  C   LIG d   1       2.215  87.889 113.446  0.00  0.00     0.382 C 
ATOM     23  O   LIG d   1       2.680  88.388 112.393  0.00  0.00    -0.241 OA
ATOM     24  O   LIG d   1       1.286  87.062 113.375  0.00  0.00    -0.241 OA
ENDBRANCH   3  22
TORSDOF 7
ENDMDL
MODEL 3
REMARK VINA RESULT:      -4.8      2.391      4.821
REMARK  7 active torsions:
REMARK  status: ('A' for Active; 'I' for Inactive)
REMARK    1  A    between atoms: C_2  and  C_3 
REMARK    2  A    between atoms: C_3  and  O_6 
REMARK    3  A    between atoms: C_3  and  C_4 
REMARK    4  A    between atoms: C_7  and  O_6 
REMARK    5  A    between atoms: C_9  and  C_10 
REMARK    6  A    between atoms: N_15  and  C_14 
REMARK    7  A    between atoms: N_20  and  C_19 
REMARK       I    between atoms: C_22  and  N_20 
ROOT
ATOM      1  C   LIG d   1       3.764  90.337 116.394  0.00  0.00     0.161 C 
ATOM      2  C   LIG d   1       2.635  91.017 116.879  0.00  0.00     0.016 C 
ATOM      3  C   LIG d   1       1.308  90.598 116.631  0.00  0.00     0.038 C 
ATOM      4  C   LIG d   1       1.022  89.376 116.003  0.00  0.00     0.028 C 
ATOM      5  C   LIG d   1       2.121  88.910 115.055  0.00  0.00    -0.047 C 
ATOM      6  C   LIG d   1       3.474  88.942 115.801  0.00  0.00     0.091 C 
ENDROOT
BRANCH   1   7
ATOM      7  O   LIG d   1       4.761  90.244 117.430  0.00  0.00    -0.368 OA
BRANCH   7   8
ATOM      8  C   LIG d   1       5.864  91.180 117.341  0.00  0.00     0.119 C 
BRANCH   8   9
ATOM      9  C   LIG d   1       7.104  90.391 116.877  0.00  0.00     0.028 C 
ATOM     10  C   LIG d   1       8.414  90.988 117.417  0.00  0.00     0.006 C 
ENDBRANCH   8   9
BRANCH   8  11
ATOM     11  C   LIG d   1       6.232  91.740 118.718  0.00  0.00     0.028 C 
ATOM     12  C   LIG d   1       5.729  93.177 118.930  0.00  0.00     0.006 C 
ENDBRANCH   8  11
ENDBRANCH   7   8
ENDBRANCH   1   7
BRANCH   6  13
ATOM     13  N   LIG d   1       4.616  88.581 114.921  0.00  0.00    -0.311 N 
ATOM     14  C   LIG d   1       4.975  89.296 113.856  0.00  0.00     0.210 C 
ATOM     15  C   LIG d   1       6.168  88.736 113.074  0.00  0.00     0.109 C 
ATOM     16  O   LIG d   1       4.440  90.357 113.503  0.00  0.00    -0.276 OA
ATOM     17  H   LIG d   1       5.126  87.751 115.153  0.00  0.00     0.149 HD
ENDBRANCH   6  13
BRANCH   5  18
ATOM     18  N   LIG d   1       1.756  87.563 114.577  0.00  0.00     0.381 N 
ATOM     19  H   LIG d   1       1.789  86.914 115.337  0.00  0.00    -0.090 HD
ATOM     20  H   LIG d   1       2.424  87.272 113.884  0.00  0.00    -0.090 HD
ATOM     21  H   LIG d   1       0.842  87.578 114.182  0.00  0.00    -0.090 HD
ENDBRANCH   5  18
BRANCH   3  22
ATOM     22  C   LIG d   1       0.250  91.424 116.977  0.00  0.00     0.382 C 
ATOM     23  O   LIG d   1      -0.928  90.996 116.912  0.00  0.00    -0.241 OA
ATOM     24  O   LIG d   1       0.455  92.606 117.312  0.00  0.00    -0.241 OA
ENDBRANCH   3  22
TORSDOF 7
ENDMDL
MODEL 4
REMARK VINA RESULT:      -4.8      2.239      5.290
REMARK  7 active torsions:
REMARK  status: ('A' for Active; 'I' for Inactive)
REMARK    1  A    between atoms: C_2  and  C_3 
REMARK    2  A    between atoms: C_3  and  O_6 
REMARK    3  A    between atoms: C_3  and  C_4 
REMARK    4  A    between atoms: C_7  and  O_6 
REMARK    5  A    between atoms: C_9  and  C_10 
REMARK    6  A    between atoms: N_15  and  C_14 
REMARK    7  A    between atoms: N_20  and  C_19 
REMARK       I    between atoms: C_22  and  N_20 
ROOT
ATOM      1  C   LIG d   1       1.791  89.206 116.258  0.00  0.00     0.161 C 
ATOM      2  C   LIG d   1       2.564  90.228 116.833  0.00  0.00     0.016 C 
ATOM      3  C   LIG d   1       3.864  90.564 116.390  0.00  0.00     0.038 C 
ATOM      4  C   LIG d   1       4.424  89.996 115.235  0.00  0.00     0.028 C 
ATOM      5  C   LIG d   1       3.885  88.604 114.922  0.00  0.00    -0.047 C 
ATOM      6  C   LIG d   1       2.340  88.651 114.926  0.00  0.00     0.091 C 
ENDROOT
BRANCH   1   7
ATOM      7  O   LIG d   1       0.432  89.656 116.090  0.00  0.00    -0.368 OA
BRANCH   7   8
ATOM      8  C   LIG d   1      -0.235  90.126 117.287  0.00  0.00     0.119 C 
BRANCH   8   9
ATOM      9  C   LIG d   1      -1.603  89.420 117.362  0.00  0.00     0.028 C 
ATOM     10  C   LIG d   1      -2.135  89.323 118.802  0.00  0.00     0.006 C 
ENDBRANCH   8   9
BRANCH   8  11
ATOM     11  C   LIG d   1      -0.555  91.621 117.196  0.00  0.00     0.028 C 
ATOM     12  C   LIG d   1       0.091  92.439 118.325  0.00  0.00     0.006 C 
ENDBRANCH   8  11
ENDBRANCH   7   8
ENDBRANCH   1   7
BRANCH   6  13
ATOM     13  N   LIG d   1       1.732  87.312 114.712  0.00  0.00    -0.311 N 
ATOM     14  C   LIG d   1       1.445  86.822 113.507  0.00  0.00     0.210 C 
ATOM     15  C   LIG d   1       0.804  85.430 113.512  0.00  0.00     0.109 C 
ATOM     16  O   LIG d   1       1.691  87.393 112.434  0.00  0.00    -0.276 OA
ATOM     17  H   LIG d   1       1.528  86.768 115.527  0.00  0.00     0.149 HD
ENDBRANCH   6  13
BRANCH   5  18
ATOM     18  N   LIG d   1       4.448  88.191 113.623  0.00  0.00     0.381 N 
ATOM     19  H   LIG d   1       5.072  87.420 113.754  0.00  0.00    -0.090 HD
ATOM     20  H   LIG d   1       4.970  88.957 113.236  0.00  0.00    -0.090 HD
ATOM     21  H   LIG d   1       3.714  87.931 113.001  0.00  0.00    -0.090 HD
ENDBRANCH   5  18
BRANCH   3  22
ATOM     22  C   LIG d   1       4.635  91.448 117.129  0.00  0.00     0.382 C 
ATOM     23  O   LIG d   1       4.443  92.684 117.026  0.00  0.00    -0.241 OA
ATOM     24  O   LIG d   1       5.550  91.028 117.863  0.00  0.00    -0.241 OA
ENDBRANCH   3  22
TORSDOF 7
ENDMDL
MODEL 5
REMARK VINA RESULT:      -4.7      2.277      2.983
REMARK  7 active torsions:
REMARK  status: ('A' for Active; 'I' for Inactive)
REMARK    1  A    between atoms: C_2  and  C_3 
REMARK    2  A    between atoms: C_3  and  O_6 
REMARK    3  A    between atoms: C_3  and  C_4 
REMARK    4  A    between atoms: C_7  and  O_6 
REMARK    5  A    between atoms: C_9  and  C_10 
REMARK    6  A    between atoms: N_15  and  C_14 
REMARK    7  A    between atoms: N_20  and  C_19 
REMARK       I    between atoms: C_22  and  N_20 
ROOT
ATOM      1  C   LIG d   1       3.700  88.080 116.236  0.00  0.00     0.161 C 
ATOM      2  C   LIG d   1       2.567  88.911 116.206  0.00  0.00     0.016 C 
ATOM      3  C   LIG d   1       2.587  90.268 116.601  0.00  0.00     0.038 C 
ATOM      4  C   LIG d   1       3.784  90.933 116.910  0.00  0.00     0.028 C 
ATOM      5  C   LIG d   1       4.872  90.006 117.440  0.00  0.00    -0.047 C 
ATOM      6  C   LIG d   1       5.036  88.817 116.465  0.00  0.00     0.091 C 
ENDROOT
BRANCH   1   7
ATOM      7  O   LIG d   1       3.761  87.295 115.029  0.00  0.00    -0.368 OA
BRANCH   7   8
ATOM      8  C   LIG d   1       3.736  88.035 113.784  0.00  0.00     0.119 C 
BRANCH   8   9
ATOM      9  C   LIG d   1       2.657  87.397 112.888  0.00  0.00     0.028 C 
ATOM     10  C   LIG d   1       3.261  86.621 111.705  0.00  0.00     0.006 C 
ENDBRANCH   8   9
BRANCH   8  11
ATOM     11  C   LIG d   1       5.050  87.876 113.014  0.00  0.00     0.028 C 
ATOM     12  C   LIG d   1       5.914  89.147 113.041  0.00  0.00     0.006 C 
ENDBRANCH   8  11
ENDBRANCH   7   8
ENDBRANCH   1   7
BRANCH   6  13
ATOM     13  N   LIG d   1       6.023  87.818 116.951  0.00  0.00    -0.311 N 
ATOM     14  C   LIG d   1       7.310  87.830 116.606  0.00  0.00     0.210 C 
ATOM     15  C   LIG d   1       8.150  86.697 117.204  0.00  0.00     0.109 C 
ATOM     16  O   LIG d   1       7.841  88.690 115.888  0.00  0.00    -0.276 OA
ATOM     17  H   LIG d   1       5.684  87.102 117.563  0.00  0.00     0.149 HD
ENDBRANCH   6  13
BRANCH   5  18
ATOM     18  N   LIG d   1       6.103  90.804 117.590  0.00  0.00     0.381 N 
ATOM     19  H   LIG d   1       5.955  91.532 118.260  0.00  0.00    -0.090 HD
ATOM     20  H   LIG d   1       6.325  91.229 116.707  0.00  0.00    -0.090 HD
ATOM     21  H   LIG d   1       6.855  90.220 117.884  0.00  0.00    -0.090 HD
ENDBRANCH   5  18
BRANCH   3  22
ATOM     22  C   LIG d   1       1.395  90.965 116.726  0.00  0.00     0.382 C 
ATOM     23  O   LIG d   1       0.340  90.494 116.239  0.00  0.00    -0.241 OA
ATOM     24  O   LIG d   1       1.370  92.080 117.283  0.00  0.00    -0.241 OA
ENDBRANCH   3  22
TORSDOF 7
ENDMDL
MODEL 6
REMARK VINA RESULT:      -4.6      2.788      5.324
REMARK  7 active torsions:
REMARK  status: ('A' for Active; 'I' for Inactive)
REMARK    1  A    between atoms: C_2  and  C_3 
REMARK    2  A    between atoms: C_3  and  O_6 
REMARK    3  A    between atoms: C_3  and  C_4 
REMARK    4  A    between atoms: C_7  and  O_6 
REMARK    5  A    between atoms: C_9  and  C_10 
REMARK    6  A    between atoms: N_15  and  C_14 
REMARK    7  A    between atoms: N_20  and  C_19 
REMARK       I    between atoms: C_22  and  N_20 
ROOT
ATOM      1  C   LIG d   1       4.572  87.615 115.934  0.00  0.00     0.161 C 
ATOM      2  C   LIG d   1       5.440  88.124 116.914  0.00  0.00     0.016 C 
ATOM      3  C   LIG d   1       6.553  88.944 116.618  0.00  0.00     0.038 C 
ATOM      4  C   LIG d   1       6.788  89.438 115.326  0.00  0.00     0.028 C 
ATOM      5  C   LIG d   1       6.231  88.542 114.225  0.00  0.00    -0.047 C 
ATOM      6  C   LIG d   1       4.747  88.234 114.531  0.00  0.00     0.091 C 
ENDROOT
BRANCH   1   7
ATOM      7  O   LIG d   1       3.206  87.749 116.373  0.00  0.00    -0.368 OA
BRANCH   7   8
ATOM      8  C   LIG d   1       2.642  89.082 116.305  0.00  0.00     0.119 C 
BRANCH   8   9
ATOM      9  C   LIG d   1       2.445  89.576 117.751  0.00  0.00     0.028 C 
ATOM     10  C   LIG d   1       3.352  90.771 118.092  0.00  0.00     0.006 C 
ENDBRANCH   8   9
BRANCH   8  11
ATOM     11  C   LIG d   1       1.240  89.062 115.689  0.00  0.00     0.028 C 
ATOM     12  C   LIG d   1       0.205  89.817 116.539  0.00  0.00     0.006 C 
ENDBRANCH   8  11
ENDBRANCH   7   8
ENDBRANCH   1   7
BRANCH   6  13
ATOM     13  N   LIG d   1       4.148  87.295 113.547  0.00  0.00    -0.311 N 
ATOM     14  C   LIG d   1       3.199  87.646 112.682  0.00  0.00     0.210 C 
ATOM     15  C   LIG d   1       2.706  86.519 111.769  0.00  0.00     0.109 C 
ATOM     16  O   LIG d   1       2.740  88.793 112.562  0.00  0.00    -0.276 OA
ATOM     17  H   LIG d   1       4.485  86.352 113.554  0.00  0.00     0.149 HD
ENDBRANCH   6  13
BRANCH   5  18
ATOM     18  N   LIG d   1       6.423  89.243 112.941  0.00  0.00     0.381 N 
ATOM     19  H   LIG d   1       6.879  90.119 113.098  0.00  0.00    -0.090 HD
ATOM     20  H   LIG d   1       5.523  89.425 112.532  0.00  0.00    -0.090 HD
ATOM     21  H   LIG d   1       6.968  88.681 112.325  0.00  0.00    -0.090 HD
ENDBRANCH   5  18
BRANCH   3  22
ATOM     22  C   LIG d   1       7.469  89.245 117.615  0.00  0.00     0.382 C 
ATOM     23  O   LIG d   1       8.681  89.398 117.327  0.00  0.00    -0.241 OA
ATOM     24  O   LIG d   1       7.107  89.322 118.804  0.00  0.00    -0.241 OA
ENDBRANCH   3  22
TORSDOF 7
ENDMDL
MODEL 7
REMARK VINA RESULT:      -4.5      1.309      2.028
REMARK  7 active torsions:
REMARK  status: ('A' for Active; 'I' for Inactive)
REMARK    1  A    between atoms: C_2  and  C_3 
REMARK    2  A    between atoms: C_3  and  O_6 
REMARK    3  A    between atoms: C_3  and  C_4 
REMARK    4  A    between atoms: C_7  and  O_6 
REMARK    5  A    between atoms: C_9  and  C_10 
REMARK    6  A    between atoms: N_15  and  C_14 
REMARK    7  A    between atoms: N_20  and  C_19 
REMARK       I    between atoms: C_22  and  N_20 
ROOT
ATOM      1  C   LIG d   1       2.237  88.861 115.397  0.00  0.00     0.161 C 
ATOM      2  C   LIG d   1       0.933  89.303 115.675  0.00  0.00     0.016 C 
ATOM      3  C   LIG d   1       0.630  90.241 116.689  0.00  0.00     0.038 C 
ATOM      4  C   LIG d   1       1.633  90.919 117.397  0.00  0.00     0.028 C 
ATOM      5  C   LIG d   1       2.938  90.135 117.498  0.00  0.00    -0.047 C 
ATOM      6  C   LIG d   1       3.356  89.672 116.084  0.00  0.00     0.091 C 
ENDROOT
BRANCH   1   7
ATOM      7  O   LIG d   1       2.447  88.826 113.971  0.00  0.00    -0.368 OA
BRANCH   7   8
ATOM      8  C   LIG d   1       2.523  87.510 113.370  0.00  0.00     0.119 C 
BRANCH   8   9
ATOM      9  C   LIG d   1       1.686  86.554 114.241  0.00  0.00     0.028 C 
ATOM     10  C   LIG d   1       0.377  86.129 113.555  0.00  0.00     0.006 C 
ENDBRANCH   8   9
BRANCH   8  11
ATOM     11  C   LIG d   1       3.951  86.958 113.418  0.00  0.00     0.028 C 
ATOM     12  C   LIG d   1       4.668  87.041 112.062  0.00  0.00     0.006 C 
ENDBRANCH   8  11
ENDBRANCH   7   8
ENDBRANCH   1   7
BRANCH   6  13
ATOM     13  N   LIG d   1       4.578  88.826 116.102  0.00  0.00    -0.311 N 
ATOM     14  C   LIG d   1       5.808  89.313 115.951  0.00  0.00     0.210 C 
ATOM     15  C   LIG d   1       6.926  88.266 115.982  0.00  0.00     0.109 C 
ATOM     16  O   LIG d   1       6.083  90.516 115.826  0.00  0.00    -0.276 OA
ATOM     17  H   LIG d   1       4.449  87.842 116.229  0.00  0.00     0.149 HD
ENDBRANCH   6  13
BRANCH   5  18
ATOM     18  N   LIG d   1       3.936  91.012 118.138  0.00  0.00     0.381 N 
ATOM     19  H   LIG d   1       4.321  91.639 117.460  0.00  0.00    -0.090 HD
ATOM     20  H   LIG d   1       4.681  90.445 118.502  0.00  0.00    -0.090 HD
ATOM     21  H   LIG d   1       3.512  91.530 118.876  0.00  0.00    -0.090 HD
ENDBRANCH   5  18
BRANCH   3  22
ATOM     22  C   LIG d   1      -0.693  90.480 117.031  0.00  0.00     0.382 C 
ATOM     23  O   LIG d   1      -1.059  91.636 117.352  0.00  0.00    -0.241 OA
ATOM     24  O   LIG d   1      -1.515  89.545 117.064  0.00  0.00    -0.241 OA
ENDBRANCH   3  22
TORSDOF 7
ENDMDL
MODEL 8
REMARK VINA RESULT:      -4.5      2.746      5.682
REMARK  7 active torsions:
REMARK  status: ('A' for Active; 'I' for Inactive)
REMARK    1  A    between atoms: C_2  and  C_3 
REMARK    2  A    between atoms: C_3  and  O_6 
REMARK    3  A    between atoms: C_3  and  C_4 
REMARK    4  A    between atoms: C_7  and  O_6 
REMARK    5  A    between atoms: C_9  and  C_10 
REMARK    6  A    between atoms: N_15  and  C_14 
REMARK    7  A    between atoms: N_20  and  C_19 
REMARK       I    between atoms: C_22  and  N_20 
ROOT
ATOM      1  C   LIG d   1       5.148  89.913 115.369  0.00  0.00     0.161 C 
ATOM      2  C   LIG d   1       4.416  89.557 114.224  0.00  0.00     0.016 C 
ATOM      3  C   LIG d   1       4.125  88.218 113.872  0.00  0.00     0.038 C 
ATOM      4  C   LIG d   1       4.418  87.146 114.728  0.00  0.00     0.028 C 
ATOM      5  C   LIG d   1       5.601  87.415 115.652  0.00  0.00    -0.047 C 
ATOM      6  C   LIG d   1       5.379  88.764 116.372  0.00  0.00     0.091 C 
ENDROOT
BRANCH   1   7
ATOM      7  O   LIG d   1       4.515  91.031 116.024  0.00  0.00    -0.368 OA
BRANCH   7   8
ATOM      8  C   LIG d   1       3.630  90.707 117.124  0.00  0.00     0.119 C 
BRANCH   8   9
ATOM      9  C   LIG d   1       2.191  91.015 116.666  0.00  0.00     0.028 C 
ATOM     10  C   LIG d   1       1.418  89.746 116.269  0.00  0.00     0.006 C 
ENDBRANCH   8   9
BRANCH   8  11
ATOM     11  C   LIG d   1       3.877  91.623 118.326  0.00  0.00     0.028 C 
ATOM     12  C   LIG d   1       5.230  92.349 118.254  0.00  0.00     0.006 C 
ENDBRANCH   8  11
ENDBRANCH   7   8
ENDBRANCH   1   7
BRANCH   6  13
ATOM     13  N   LIG d   1       6.530  89.144 117.232  0.00  0.00    -0.311 N 
ATOM     14  C   LIG d   1       7.801  88.932 116.892  0.00  0.00     0.210 C 
ATOM     15  C   LIG d   1       8.832  89.381 117.933  0.00  0.00     0.109 C 
ATOM     16  O   LIG d   1       8.172  88.444 115.815  0.00  0.00    -0.276 OA
ATOM     17  H   LIG d   1       6.320  89.574 118.112  0.00  0.00     0.149 HD
ENDBRANCH   6  13
BRANCH   5  18
ATOM     18  N   LIG d   1       5.708  86.274 116.581  0.00  0.00     0.381 N 
ATOM     19  H   LIG d   1       6.669  86.020 116.696  0.00  0.00    -0.090 HD
ATOM     20  H   LIG d   1       5.218  85.489 116.190  0.00  0.00    -0.090 HD
ATOM     21  H   LIG d   1       5.314  86.515 117.464  0.00  0.00    -0.090 HD
ENDBRANCH   5  18
BRANCH   3  22
ATOM     22  C   LIG d   1       3.569  87.939 112.633  0.00  0.00     0.382 C 
ATOM     23  O   LIG d   1       2.458  88.431 112.319  0.00  0.00    -0.241 OA
ATOM     24  O   LIG d   1       4.143  87.166 111.843  0.00  0.00    -0.241 OA
ENDBRANCH   3  22
TORSDOF 7
ENDMDL
MODEL 9
REMARK VINA RESULT:      -4.4      3.357      4.257
REMARK  7 active torsions:
REMARK  status: ('A' for Active; 'I' for Inactive)
REMARK    1  A    between atoms: C_2  and  C_3 
REMARK    2  A    between atoms: C_3  and  O_6 
REMARK    3  A    between atoms: C_3  and  C_4 
REMARK    4  A    between atoms: C_7  and  O_6 
REMARK    5  A    between atoms: C_9  and  C_10 
REMARK    6  A    between atoms: N_15  and  C_14 
REMARK    7  A    between atoms: N_20  and  C_19 
REMARK       I    between atoms: C_22  and  N_20 
ROOT
ATOM      1  C   LIG d   1       5.334  87.737 116.467  0.00  0.00     0.161 C 
ATOM      2  C   LIG d   1       4.347  88.737 116.472  0.00  0.00     0.016 C 
ATOM      3  C   LIG d   1       4.596  90.075 116.854  0.00  0.00     0.038 C 
ATOM      4  C   LIG d   1       5.893  90.542 117.115  0.00  0.00     0.028 C 
ATOM      5  C   LIG d   1       6.839  89.455 117.613  0.00  0.00    -0.047 C 
ATOM      6  C   LIG d   1       6.777  88.253 116.643  0.00  0.00     0.091 C 
ENDROOT
BRANCH   1   7
ATOM      7  O   LIG d   1       5.226  86.949 115.266  0.00  0.00    -0.368 OA
BRANCH   7   8
ATOM      8  C   LIG d   1       4.518  87.564 114.161  0.00  0.00     0.119 C 
BRANCH   8   9
ATOM      9  C   LIG d   1       3.829  86.437 113.368  0.00  0.00     0.028 C 
ATOM     10  C   LIG d   1       4.130  86.511 111.862  0.00  0.00     0.006 C 
ENDBRANCH   8   9
BRANCH   8  11
ATOM     11  C   LIG d   1       5.487  88.221 113.174  0.00  0.00     0.028 C 
ATOM     12  C   LIG d   1       5.524  89.752 113.304  0.00  0.00     0.006 C 
ENDBRANCH   8  11
ENDBRANCH   7   8
ENDBRANCH   1   7
BRANCH   6  13
ATOM     13  N   LIG d   1       7.611  87.111 117.101  0.00  0.00    -0.311 N 
ATOM     14  C   LIG d   1       8.879  86.936 116.735  0.00  0.00     0.210 C 
ATOM     15  C   LIG d   1       9.550  85.683 117.306  0.00  0.00     0.109 C 
ATOM     16  O   LIG d   1       9.523  87.717 116.019  0.00  0.00    -0.276 OA
ATOM     17  H   LIG d   1       7.177  86.446 117.711  0.00  0.00     0.149 HD
ENDBRANCH   6  13
BRANCH   5  18
ATOM     18  N   LIG d   1       8.186  90.049 117.713  0.00  0.00     0.381 N 
ATOM     19  H   LIG d   1       8.719  89.564 118.407  0.00  0.00    -0.090 HD
ATOM     20  H   LIG d   1       8.098  91.009 117.997  0.00  0.00    -0.090 HD
ATOM     21  H   LIG d   1       8.648  89.996 116.832  0.00  0.00    -0.090 HD
ENDBRANCH   5  18
BRANCH   3  22
ATOM     22  C   LIG d   1       3.534  90.952 117.017  0.00  0.00     0.382 C 
ATOM     23  O   LIG d   1       3.670  92.163 116.717  0.00  0.00    -0.241 OA
ATOM     24  O   LIG d   1       2.457  90.557 117.501  0.00  0.00    -0.241 OA
ENDBRANCH   3  22
TORSDOF 7
ENDMDL
