MODEL 1
REMARK VINA RESULT:      -4.8      0.000      0.000
REMARK  7 active torsions:
REMARK  status: ('A' for Active; 'I' for Inactive)
REMARK    1  A    between atoms: C_2  and  C_3 
REMARK    2  A    between atoms: C_3  and  O_6 
REMARK    3  A    between atoms: C_3  and  C_4 
REMARK    4  A    between atoms: C_7  and  O_6 
REMARK    5  A    between atoms: C_9  and  C_10 
REMARK    6  A    between atoms: N_15  and  C_14 
REMARK    7  A    between atoms: N_20  and  C_19 
REMARK       I    between atoms: C_22  and  N_20 
ROOT
ATOM      1  C   LIG d   1       2.649  89.976 115.585  0.00  0.00     0.161 C 
ATOM      2  C   LIG d   1       3.419  89.442 114.538  0.00  0.00     0.016 C 
ATOM      3  C   LIG d   1       4.814  89.233 114.626  0.00  0.00     0.038 C 
ATOM      4  C   LIG d   1       5.515  89.405 115.829  0.00  0.00     0.028 C 
ATOM      5  C   LIG d   1       4.871  90.421 116.765  0.00  0.00    -0.047 C 
ATOM      6  C   LIG d   1       3.378  90.065 116.942  0.00  0.00     0.091 C 
ENDROOT
BRANCH   1   7
ATOM      7  O   LIG d   1       1.424  89.228 115.722  0.00  0.00    -0.368 OA
BRANCH   7   8
ATOM      8  C   LIG d   1       1.524  87.966 116.425  0.00  0.00     0.119 C 
BRANCH   8   9
ATOM      9  C   LIG d   1       1.225  86.846 115.409  0.00  0.00     0.028 C 
ATOM     10  C   LIG d   1       2.389  85.849 115.275  0.00  0.00     0.006 C 
ENDBRANCH   8   9
BRANCH   8  11
ATOM     11  C   LIG d   1       0.439  87.839 117.499  0.00  0.00     0.028 C 
ATOM     12  C   LIG d   1      -0.439  89.096 117.610  0.00  0.00     0.006 C 
ENDBRANCH   8  11
ENDBRANCH   7   8
ENDBRANCH   1   7
BRANCH   6  13
ATOM     13  N   LIG d   1       2.653  91.058 117.777  0.00  0.00    -0.311 N 
ATOM     14  C   LIG d   1       2.931  92.361 117.774  0.00  0.00     0.210 C 
ATOM     15  C   LIG d   1       2.077  93.206 118.724  0.00  0.00     0.109 C 
ATOM     16  O   LIG d   1       3.781  92.901 117.051  0.00  0.00    -0.276 OA
ATOM     17  H   LIG d   1       1.925  90.711 118.371  0.00  0.00     0.149 HD
ENDBRANCH   6  13
BRANCH   5  18
ATOM     18  N   LIG d   1       5.625  90.400 118.033  0.00  0.00     0.381 N 
ATOM     19  H   LIG d   1       6.600  90.524 117.850  0.00  0.00    -0.090 HD
ATOM     20  H   LIG d   1       5.499  89.504 118.471  0.00  0.00    -0.090 HD
ATOM     21  H   LIG d   1       5.298  91.122 118.637  0.00  0.00    -0.090 HD
ENDBRANCH   5  18
BRANCH   3  22
ATOM     22  C   LIG d   1       5.530  88.886 113.490  0.00  0.00     0.382 C 
ATOM     23  O   LIG d   1       6.405  89.664 113.039  0.00  0.00    -0.241 OA
ATOM     24  O   LIG d   1       5.281  87.826 112.886  0.00  0.00    -0.241 OA
ENDBRANCH   3  22
TORSDOF 7
ENDMDL
MODEL 2
REMARK VINA RESULT:      -4.8      2.215      3.228
REMARK  7 active torsions:
REMARK  status: ('A' for Active; 'I' for Inactive)
REMARK    1  A    between atoms: C_2  and  C_3 
REMARK    2  A    between atoms: C_3  and  O_6 
REMARK    3  A    between atoms: C_3  and  C_4 
REMARK    4  A    between atoms: C_7  and  O_6 
REMARK    5  A    between atoms: C_9  and  C_10 
REMARK    6  A    between atoms: N_15  and  C_14 
REMARK    7  A    between atoms: N_20  and  C_19 
REMARK       I    between atoms: C_22  and  N_20 
ROOT
ATOM      1  C   LIG d   1       4.271  89.928 115.025  0.00  0.00     0.161 C 
ATOM      2  C   LIG d   1       3.729  89.157 113.983  0.00  0.00     0.016 C 
ATOM      3  C   LIG d   1       4.232  87.889 113.612  0.00  0.00     0.038 C 
ATOM      4  C   LIG d   1       5.221  87.235 114.361  0.00  0.00     0.028 C 
ATOM      5  C   LIG d   1       6.142  88.190 115.113  0.00  0.00    -0.047 C 
ATOM      6  C   LIG d   1       5.279  89.183 115.925  0.00  0.00     0.091 C 
ENDROOT
BRANCH   1   7
ATOM      7  O   LIG d   1       3.208  90.489 115.821  0.00  0.00    -0.368 OA
BRANCH   7   8
ATOM      8  C   LIG d   1       2.034  89.658 115.994  0.00  0.00     0.119 C 
BRANCH   8   9
ATOM      9  C   LIG d   1       0.839  90.594 116.260  0.00  0.00     0.028 C 
ATOM     10  C   LIG d   1       0.002  90.147 117.470  0.00  0.00     0.006 C 
ENDBRANCH   8   9
BRANCH   8  11
ATOM     11  C   LIG d   1       2.150  88.783 117.246  0.00  0.00     0.028 C 
ATOM     12  C   LIG d   1       2.254  87.285 116.918  0.00  0.00     0.006 C 
ENDBRANCH   8  11
ENDBRANCH   7   8
ENDBRANCH   1   7
BRANCH   6  13
ATOM     13  N   LIG d   1       6.099  90.206 116.625  0.00  0.00    -0.311 N 
ATOM     14  C   LIG d   1       6.014  90.445 117.932  0.00  0.00     0.210 C 
ATOM     15  C   LIG d   1       6.935  91.555 118.448  0.00  0.00     0.109 C 
ATOM     16  O   LIG d   1       5.287  89.820 118.719  0.00  0.00    -0.276 OA
ATOM     17  H   LIG d   1       6.738  90.737 116.067  0.00  0.00     0.149 HD
ENDBRANCH   6  13
BRANCH   5  18
ATOM     18  N   LIG d   1       7.035  87.375 115.958  0.00  0.00     0.381 N 
ATOM     19  H   LIG d   1       7.867  87.890 116.167  0.00  0.00    -0.090 HD
ATOM     20  H   LIG d   1       7.295  86.547 115.452  0.00  0.00    -0.090 HD
ATOM     21  H   LIG d   1       6.570  87.125 116.803  0.00  0.00    -0.090 HD
ENDBRANCH   5  18
BRANCH   3  22
ATOM     22  C   LIG d   1       3.770  87.279 112.455  0.00  0.00     0.382 C 
ATOM     23  O   LIG d   1       2.703  87.669 111.924  0.00  0.00    -0.241 OA
ATOM     24  O   LIG d   1       4.384  86.314 111.962  0.00  0.00    -0.241 OA
ENDBRANCH   3  22
TORSDOF 7
ENDMDL
MODEL 3
REMARK VINA RESULT:      -4.7      2.184      5.323
REMARK  7 active torsions:
REMARK  status: ('A' for Active; 'I' for Inactive)
REMARK    1  A    between atoms: C_2  and  C_3 
REMARK    2  A    between atoms: C_3  and  O_6 
REMARK    3  A    between atoms: C_3  and  C_4 
REMARK    4  A    between atoms: C_7  and  O_6 
REMARK    5  A    between atoms: C_9  and  C_10 
REMARK    6  A    between atoms: N_15  and  C_14 
REMARK    7  A    between atoms: N_20  and  C_19 
REMARK       I    between atoms: C_22  and  N_20 
ROOT
ATOM      1  C   LIG d   1       1.491  87.976 116.152  0.00  0.00     0.161 C 
ATOM      2  C   LIG d   1       0.214  87.798 116.710  0.00  0.00     0.016 C 
ATOM      3  C   LIG d   1      -0.512  88.836 117.338  0.00  0.00     0.038 C 
ATOM      4  C   LIG d   1      -0.070  90.167 117.318  0.00  0.00     0.028 C 
ATOM      5  C   LIG d   1       1.445  90.301 117.211  0.00  0.00    -0.047 C 
ATOM      6  C   LIG d   1       1.942  89.446 116.023  0.00  0.00     0.091 C 
ENDROOT
BRANCH   1   7
ATOM      7  O   LIG d   1       1.562  87.315 114.873  0.00  0.00    -0.368 OA
BRANCH   7   8
ATOM      8  C   LIG d   1       2.359  86.106 114.823  0.00  0.00     0.119 C 
BRANCH   8   9
ATOM      9  C   LIG d   1       3.121  85.999 116.158  0.00  0.00     0.028 C 
ATOM     10  C   LIG d   1       4.643  85.905 115.959  0.00  0.00     0.006 C 
ENDBRANCH   8   9
BRANCH   8  11
ATOM     11  C   LIG d   1       3.442  86.197 113.744  0.00  0.00     0.028 C 
ATOM     12  C   LIG d   1       2.883  86.602 112.371  0.00  0.00     0.006 C 
ENDBRANCH   8  11
ENDBRANCH   7   8
ENDBRANCH   1   7
BRANCH   6  13
ATOM     13  N   LIG d   1       3.422  89.454 115.898  0.00  0.00    -0.311 N 
ATOM     14  C   LIG d   1       4.061  89.678 114.751  0.00  0.00     0.210 C 
ATOM     15  C   LIG d   1       5.589  89.621 114.839  0.00  0.00     0.109 C 
ATOM     16  O   LIG d   1       3.507  89.951 113.675  0.00  0.00    -0.276 OA
ATOM     17  H   LIG d   1       3.951  89.272 116.729  0.00  0.00     0.149 HD
ENDBRANCH   6  13
BRANCH   5  18
ATOM     18  N   LIG d   1       1.757  91.735 117.061  0.00  0.00     0.381 N 
ATOM     19  H   LIG d   1       2.487  91.991 117.696  0.00  0.00    -0.090 HD
ATOM     20  H   LIG d   1       0.938  92.271 117.290  0.00  0.00    -0.090 HD
ATOM     21  H   LIG d   1       2.038  91.927 116.125  0.00  0.00    -0.090 HD
ENDBRANCH   5  18
BRANCH   3  22
ATOM     22  C   LIG d   1      -1.675  88.538 118.031  0.00  0.00     0.382 C 
ATOM     23  O   LIG d   1      -2.730  89.171 117.786  0.00  0.00    -0.241 OA
ATOM     24  O   LIG d   1      -1.672  87.676 118.930  0.00  0.00    -0.241 OA
ENDBRANCH   3  22
TORSDOF 7
ENDMDL
MODEL 4
REMARK VINA RESULT:      -4.6      2.319      5.469
REMARK  7 active torsions:
REMARK  status: ('A' for Active; 'I' for Inactive)
REMARK    1  A    between atoms: C_2  and  C_3 
REMARK    2  A    between atoms: C_3  and  O_6 
REMARK    3  A    between atoms: C_3  and  C_4 
REMARK    4  A    between atoms: C_7  and  O_6 
REMARK    5  A    between atoms: C_9  and  C_10 
REMARK    6  A    between atoms: N_15  and  C_14 
REMARK    7  A    between atoms: N_20  and  C_19 
REMARK       I    between atoms: C_22  and  N_20 
ROOT
ATOM      1  C   LIG d   1       3.453  89.239 116.112  0.00  0.00     0.161 C 
ATOM      2  C   LIG d   1       3.716  90.493 116.688  0.00  0.00     0.016 C 
ATOM      3  C   LIG d   1       2.719  91.300 117.284  0.00  0.00     0.038 C 
ATOM      4  C   LIG d   1       1.410  90.838 117.479  0.00  0.00     0.028 C 
ATOM      5  C   LIG d   1       0.981  89.784 116.464  0.00  0.00    -0.047 C 
ATOM      6  C   LIG d   1       2.051  88.670 116.415  0.00  0.00     0.091 C 
ENDROOT
BRANCH   1   7
ATOM      7  O   LIG d   1       4.471  88.298 116.505  0.00  0.00    -0.368 OA
BRANCH   7   8
ATOM      8  C   LIG d   1       5.616  88.193 115.622  0.00  0.00     0.119 C 
BRANCH   8   9
ATOM      9  C   LIG d   1       5.081  88.095 114.180  0.00  0.00     0.028 C 
ATOM     10  C   LIG d   1       6.163  88.400 113.131  0.00  0.00     0.006 C 
ENDBRANCH   8   9
BRANCH   8  11
ATOM     11  C   LIG d   1       6.384  86.889 115.859  0.00  0.00     0.028 C 
ATOM     12  C   LIG d   1       5.489  85.644 115.765  0.00  0.00     0.006 C 
ENDBRANCH   8  11
ENDBRANCH   7   8
ENDBRANCH   1   7
BRANCH   6  13
ATOM     13  N   LIG d   1       1.751  87.641 115.386  0.00  0.00    -0.311 N 
ATOM     14  C   LIG d   1       1.739  86.333 115.638  0.00  0.00     0.210 C 
ATOM     15  C   LIG d   1       1.426  85.444 114.430  0.00  0.00     0.109 C 
ATOM     16  O   LIG d   1       1.927  85.826 116.754  0.00  0.00    -0.276 OA
ATOM     17  H   LIG d   1       1.557  87.966 114.459  0.00  0.00     0.149 HD
ENDBRANCH   6  13
BRANCH   5  18
ATOM     18  N   LIG d   1      -0.350  89.292 116.867  0.00  0.00     0.381 N 
ATOM     19  H   LIG d   1      -0.934  89.196 116.061  0.00  0.00    -0.090 HD
ATOM     20  H   LIG d   1      -0.771  89.963 117.484  0.00  0.00    -0.090 HD
ATOM     21  H   LIG d   1      -0.262  88.413 117.329  0.00  0.00    -0.090 HD
ENDBRANCH   5  18
BRANCH   3  22
ATOM     22  C   LIG d   1       3.021  92.602 117.655  0.00  0.00     0.382 C 
ATOM     23  O   LIG d   1       4.071  93.146 117.236  0.00  0.00    -0.241 OA
ATOM     24  O   LIG d   1       2.278  93.223 118.438  0.00  0.00    -0.241 OA
ENDBRANCH   3  22
TORSDOF 7
ENDMDL
MODEL 5
REMARK VINA RESULT:      -4.6      2.853      4.914
REMARK  7 active torsions:
REMARK  status: ('A' for Active; 'I' for Inactive)
REMARK    1  A    between atoms: C_2  and  C_3 
REMARK    2  A    between atoms: C_3  and  O_6 
REMARK    3  A    between atoms: C_3  and  C_4 
REMARK    4  A    between atoms: C_7  and  O_6 
REMARK    5  A    between atoms: C_9  and  C_10 
REMARK    6  A    between atoms: N_15  and  C_14 
REMARK    7  A    between atoms: N_20  and  C_19 
REMARK       I    between atoms: C_22  and  N_20 
ROOT
ATOM      1  C   LIG d   1       4.632  87.142 115.991  0.00  0.00     0.161 C 
ATOM      2  C   LIG d   1       4.954  87.932 117.109  0.00  0.00     0.016 C 
ATOM      3  C   LIG d   1       5.395  89.271 117.014  0.00  0.00     0.038 C 
ATOM      4  C   LIG d   1       5.402  89.965 115.795  0.00  0.00     0.028 C 
ATOM      5  C   LIG d   1       5.568  89.057 114.581  0.00  0.00    -0.047 C 
ATOM      6  C   LIG d   1       4.527  87.917 114.661  0.00  0.00     0.091 C 
ENDROOT
BRANCH   1   7
ATOM      7  O   LIG d   1       3.416  86.411 116.243  0.00  0.00    -0.368 OA
BRANCH   7   8
ATOM      8  C   LIG d   1       2.333  87.163 116.843  0.00  0.00     0.119 C 
BRANCH   8   9
ATOM      9  C   LIG d   1       1.783  86.327 118.015  0.00  0.00     0.028 C 
ATOM     10  C   LIG d   1       0.546  86.970 118.665  0.00  0.00     0.006 C 
ENDBRANCH   8   9
BRANCH   8  11
ATOM     11  C   LIG d   1       1.159  87.321 115.872  0.00  0.00     0.028 C 
ATOM     12  C   LIG d   1       1.135  86.234 114.785  0.00  0.00     0.006 C 
ENDBRANCH   8  11
ENDBRANCH   7   8
ENDBRANCH   1   7
BRANCH   6  13
ATOM     13  N   LIG d   1       4.675  86.935 113.556  0.00  0.00    -0.311 N 
ATOM     14  C   LIG d   1       3.944  86.968 112.443  0.00  0.00     0.210 C 
ATOM     15  C   LIG d   1       4.244  85.850 111.439  0.00  0.00     0.109 C 
ATOM     16  O   LIG d   1       3.098  87.835 112.178  0.00  0.00    -0.276 OA
ATOM     17  H   LIG d   1       5.361  86.215 113.674  0.00  0.00     0.149 HD
ENDBRANCH   6  13
BRANCH   5  18
ATOM     18  N   LIG d   1       5.419  89.893 113.375  0.00  0.00     0.381 N 
ATOM     19  H   LIG d   1       5.541  90.857 113.614  0.00  0.00    -0.090 HD
ATOM     20  H   LIG d   1       4.490  89.774 113.010  0.00  0.00    -0.090 HD
ATOM     21  H   LIG d   1       6.090  89.625 112.689  0.00  0.00    -0.090 HD
ENDBRANCH   5  18
BRANCH   3  22
ATOM     22  C   LIG d   1       5.875  89.918 118.143  0.00  0.00     0.382 C 
ATOM     23  O   LIG d   1       5.575  91.118 118.353  0.00  0.00    -0.241 OA
ATOM     24  O   LIG d   1       6.641  89.330 118.930  0.00  0.00    -0.241 OA
ENDBRANCH   3  22
TORSDOF 7
ENDMDL
MODEL 6
REMARK VINA RESULT:      -4.6      2.341      5.988
REMARK  7 active torsions:
REMARK  status: ('A' for Active; 'I' for Inactive)
REMARK    1  A    between atoms: C_2  and  C_3 
REMARK    2  A    between atoms: C_3  and  O_6 
REMARK    3  A    between atoms: C_3  and  C_4 
REMARK    4  A    between atoms: C_7  and  O_6 
REMARK    5  A    between atoms: C_9  and  C_10 
REMARK    6  A    between atoms: N_15  and  C_14 
REMARK    7  A    between atoms: N_20  and  C_19 
REMARK       I    between atoms: C_22  and  N_20 
ROOT
ATOM      1  C   LIG d   1       2.096  89.854 115.641  0.00  0.00     0.161 C 
ATOM      2  C   LIG d   1       1.030  90.079 116.528  0.00  0.00     0.016 C 
ATOM      3  C   LIG d   1       0.301  89.039 117.148  0.00  0.00     0.038 C 
ATOM      4  C   LIG d   1       0.689  87.695 117.040  0.00  0.00     0.028 C 
ATOM      5  C   LIG d   1       1.448  87.385 115.754  0.00  0.00    -0.047 C 
ATOM      6  C   LIG d   1       2.605  88.398 115.598  0.00  0.00     0.091 C 
ENDROOT
BRANCH   1   7
ATOM      7  O   LIG d   1       3.180  90.755 115.943  0.00  0.00    -0.368 OA
BRANCH   7   8
ATOM      8  C   LIG d   1       3.472  90.954 117.348  0.00  0.00     0.119 C 
BRANCH   8   9
ATOM      9  C   LIG d   1       3.570  92.473 117.590  0.00  0.00     0.028 C 
ATOM     10  C   LIG d   1       2.388  93.013 118.412  0.00  0.00     0.006 C 
ENDBRANCH   8   9
BRANCH   8  11
ATOM     11  C   LIG d   1       4.850  90.396 117.715  0.00  0.00     0.028 C 
ATOM     12  C   LIG d   1       5.760  90.203 116.492  0.00  0.00     0.006 C 
ENDBRANCH   8  11
ENDBRANCH   7   8
ENDBRANCH   1   7
BRANCH   6  13
ATOM     13  N   LIG d   1       3.347  88.219 114.323  0.00  0.00    -0.311 N 
ATOM     14  C   LIG d   1       4.459  87.494 114.218  0.00  0.00     0.210 C 
ATOM     15  C   LIG d   1       5.076  87.456 112.816  0.00  0.00     0.109 C 
ATOM     16  O   LIG d   1       4.975  86.852 115.145  0.00  0.00    -0.276 OA
ATOM     17  H   LIG d   1       2.980  88.680 113.513  0.00  0.00     0.149 HD
ENDBRANCH   6  13
BRANCH   5  18
ATOM     18  N   LIG d   1       1.910  85.987 115.835  0.00  0.00     0.381 N 
ATOM     19  H   LIG d   1       2.046  85.730 116.793  0.00  0.00    -0.090 HD
ATOM     20  H   LIG d   1       2.792  85.908 115.359  0.00  0.00    -0.090 HD
ATOM     21  H   LIG d   1       1.241  85.381 115.413  0.00  0.00    -0.090 HD
ENDBRANCH   5  18
BRANCH   3  22
ATOM     22  C   LIG d   1      -0.855  89.336 117.855  0.00  0.00     0.382 C 
ATOM     23  O   LIG d   1      -0.868  90.298 118.659  0.00  0.00    -0.241 OA
ATOM     24  O   LIG d   1      -1.871  88.626 117.731  0.00  0.00    -0.241 OA
ENDBRANCH   3  22
TORSDOF 7
ENDMDL
MODEL 7
REMARK VINA RESULT:      -4.6      2.347      3.834
REMARK  7 active torsions:
REMARK  status: ('A' for Active; 'I' for Inactive)
REMARK    1  A    between atoms: C_2  and  C_3 
REMARK    2  A    between atoms: C_3  and  O_6 
REMARK    3  A    between atoms: C_3  and  C_4 
REMARK    4  A    between atoms: C_7  and  O_6 
REMARK    5  A    between atoms: C_9  and  C_10 
REMARK    6  A    between atoms: N_15  and  C_14 
REMARK    7  A    between atoms: N_20  and  C_19 
REMARK       I    between atoms: C_22  and  N_20 
ROOT
ATOM      1  C   LIG d   1       3.830  89.489 115.552  0.00  0.00     0.161 C 
ATOM      2  C   LIG d   1       3.199  88.697 114.577  0.00  0.00     0.016 C 
ATOM      3  C   LIG d   1       3.827  87.604 113.937  0.00  0.00     0.038 C 
ATOM      4  C   LIG d   1       5.085  87.131 114.340  0.00  0.00     0.028 C 
ATOM      5  C   LIG d   1       5.963  88.207 114.971  0.00  0.00    -0.047 C 
ATOM      6  C   LIG d   1       5.162  88.919 116.084  0.00  0.00     0.091 C 
ENDROOT
BRANCH   1   7
ATOM      7  O   LIG d   1       2.920  89.738 116.642  0.00  0.00    -0.368 OA
BRANCH   7   8
ATOM      8  C   LIG d   1       2.294  91.044 116.663  0.00  0.00     0.119 C 
BRANCH   8   9
ATOM      9  C   LIG d   1       2.763  91.761 117.944  0.00  0.00     0.028 C 
ATOM     10  C   LIG d   1       3.882  92.781 117.670  0.00  0.00     0.006 C 
ENDBRANCH   8   9
BRANCH   8  11
ATOM     11  C   LIG d   1       0.773  90.931 116.796  0.00  0.00     0.028 C 
ATOM     12  C   LIG d   1       0.321  89.558 117.320  0.00  0.00     0.006 C 
ENDBRANCH   8  11
ENDBRANCH   7   8
ENDBRANCH   1   7
BRANCH   6  13
ATOM     13  N   LIG d   1       5.918  90.043 116.696  0.00  0.00    -0.311 N 
ATOM     14  C   LIG d   1       6.655  89.916 117.798  0.00  0.00     0.210 C 
ATOM     15  C   LIG d   1       7.337  91.204 118.272  0.00  0.00     0.109 C 
ATOM     16  O   LIG d   1       6.835  88.852 118.410  0.00  0.00    -0.276 OA
ATOM     17  H   LIG d   1       5.853  90.935 116.247  0.00  0.00     0.149 HD
ENDBRANCH   6  13
BRANCH   5  18
ATOM     18  N   LIG d   1       7.185  87.549 115.468  0.00  0.00     0.381 N 
ATOM     19  H   LIG d   1       7.331  86.689 114.979  0.00  0.00    -0.090 HD
ATOM     20  H   LIG d   1       7.068  87.340 116.444  0.00  0.00    -0.090 HD
ATOM     21  H   LIG d   1       7.971  88.149 115.342  0.00  0.00    -0.090 HD
ENDBRANCH   5  18
BRANCH   3  22
ATOM     22  C   LIG d   1       3.211  86.996 112.853  0.00  0.00     0.382 C 
ATOM     23  O   LIG d   1       3.095  85.748 112.817  0.00  0.00    -0.241 OA
ATOM     24  O   LIG d   1       2.810  87.678 111.891  0.00  0.00    -0.241 OA
ENDBRANCH   3  22
TORSDOF 7
ENDMDL
MODEL 8
REMARK VINA RESULT:      -4.5      2.445      5.433
REMARK  7 active torsions:
REMARK  status: ('A' for Active; 'I' for Inactive)
REMARK    1  A    between atoms: C_2  and  C_3 
REMARK    2  A    between atoms: C_3  and  O_6 
REMARK    3  A    between atoms: C_3  and  C_4 
REMARK    4  A    between atoms: C_7  and  O_6 
REMARK    5  A    between atoms: C_9  and  C_10 
REMARK    6  A    between atoms: N_15  and  C_14 
REMARK    7  A    between atoms: N_20  and  C_19 
REMARK       I    between atoms: C_22  and  N_20 
ROOT
ATOM      1  C   LIG d   1       0.702  89.991 117.370  0.00  0.00     0.161 C 
ATOM      2  C   LIG d   1      -0.703  90.011 117.380  0.00  0.00     0.016 C 
ATOM      3  C   LIG d   1      -1.463  91.130 117.790  0.00  0.00     0.038 C 
ATOM      4  C   LIG d   1      -0.866  92.366 118.077  0.00  0.00     0.028 C 
ATOM      5  C   LIG d   1       0.573  92.245 118.567  0.00  0.00    -0.047 C 
ATOM      6  C   LIG d   1       1.369  91.368 117.574  0.00  0.00     0.091 C 
ENDROOT
BRANCH   1   7
ATOM      7  O   LIG d   1       1.174  89.381 116.153  0.00  0.00    -0.368 OA
BRANCH   7   8
ATOM      8  C   LIG d   1       1.862  88.115 116.299  0.00  0.00     0.119 C 
BRANCH   8   9
ATOM      9  C   LIG d   1       3.038  88.109 115.304  0.00  0.00     0.028 C 
ATOM     10  C   LIG d   1       3.425  89.525 114.845  0.00  0.00     0.006 C 
ENDBRANCH   8   9
BRANCH   8  11
ATOM     11  C   LIG d   1       0.969  86.944 115.878  0.00  0.00     0.028 C 
ATOM     12  C   LIG d   1       1.515  86.188 114.657  0.00  0.00     0.006 C 
ENDBRANCH   8  11
ENDBRANCH   7   8
ENDBRANCH   1   7
BRANCH   6  13
ATOM     13  N   LIG d   1       2.766  91.129 118.022  0.00  0.00    -0.311 N 
ATOM     14  C   LIG d   1       3.785  91.924 117.702  0.00  0.00     0.210 C 
ATOM     15  C   LIG d   1       5.145  91.485 118.251  0.00  0.00     0.109 C 
ATOM     16  O   LIG d   1       3.686  92.969 117.041  0.00  0.00    -0.276 OA
ATOM     17  H   LIG d   1       2.931  90.319 118.588  0.00  0.00     0.149 HD
ENDBRANCH   6  13
BRANCH   5  18
ATOM     18  N   LIG d   1       1.116  93.610 118.696  0.00  0.00     0.381 N 
ATOM     19  H   LIG d   1       0.706  94.205 118.005  0.00  0.00    -0.090 HD
ATOM     20  H   LIG d   1       2.108  93.582 118.539  0.00  0.00    -0.090 HD
ATOM     21  H   LIG d   1       0.928  93.968 119.607  0.00  0.00    -0.090 HD
ENDBRANCH   5  18
BRANCH   3  22
ATOM     22  C   LIG d   1      -2.834  91.006 117.955  0.00  0.00     0.382 C 
ATOM     23  O   LIG d   1      -3.473  91.889 118.578  0.00  0.00    -0.241 OA
ATOM     24  O   LIG d   1      -3.434  90.002 117.527  0.00  0.00    -0.241 OA
ENDBRANCH   3  22
TORSDOF 7
ENDMDL
MODEL 9
REMARK VINA RESULT:      -4.5      2.617      5.793
REMARK  7 active torsions:
REMARK  status: ('A' for Active; 'I' for Inactive)
REMARK    1  A    between atoms: C_2  and  C_3 
REMARK    2  A    between atoms: C_3  and  O_6 
REMARK    3  A    between atoms: C_3  and  C_4 
REMARK    4  A    between atoms: C_7  and  O_6 
REMARK    5  A    between atoms: C_9  and  C_10 
REMARK    6  A    between atoms: N_15  and  C_14 
REMARK    7  A    between atoms: N_20  and  C_19 
REMARK       I    between atoms: C_22  and  N_20 
ROOT
ATOM      1  C   LIG d   1       4.841  89.210 115.053  0.00  0.00     0.161 C 
ATOM      2  C   LIG d   1       4.381  90.318 115.784  0.00  0.00     0.016 C 
ATOM      3  C   LIG d   1       3.134  90.347 116.451  0.00  0.00     0.038 C 
ATOM      4  C   LIG d   1       2.324  89.207 116.558  0.00  0.00     0.028 C 
ATOM      5  C   LIG d   1       2.512  88.220 115.411  0.00  0.00    -0.047 C 
ATOM      6  C   LIG d   1       4.020  87.919 115.251  0.00  0.00     0.091 C 
ENDROOT
BRANCH   1   7
ATOM      7  O   LIG d   1       6.231  88.971 115.350  0.00  0.00    -0.368 OA
BRANCH   7   8
ATOM      8  C   LIG d   1       6.505  88.254 116.579  0.00  0.00     0.119 C 
BRANCH   8   9
ATOM      9  C   LIG d   1       7.211  89.232 117.538  0.00  0.00     0.028 C 
ATOM     10  C   LIG d   1       6.396  89.492 118.816  0.00  0.00     0.006 C 
ENDBRANCH   8   9
BRANCH   8  11
ATOM     11  C   LIG d   1       7.507  87.118 116.349  0.00  0.00     0.028 C 
ATOM     12  C   LIG d   1       6.873  85.726 116.499  0.00  0.00     0.006 C 
ENDBRANCH   8  11
ENDBRANCH   7   8
ENDBRANCH   1   7
BRANCH   6  13
ATOM     13  N   LIG d   1       4.300  87.026 114.096  0.00  0.00    -0.311 N 
ATOM     14  C   LIG d   1       3.810  87.231 112.875  0.00  0.00     0.210 C 
ATOM     15  C   LIG d   1       4.206  86.180 111.834  0.00  0.00     0.109 C 
ATOM     16  O   LIG d   1       3.111  88.202 112.548  0.00  0.00    -0.276 OA
ATOM     17  H   LIG d   1       4.884  86.231 114.266  0.00  0.00     0.149 HD
ENDBRANCH   6  13
BRANCH   5  18
ATOM     18  N   LIG d   1       1.712  87.020 115.720  0.00  0.00     0.381 N 
ATOM     19  H   LIG d   1       1.001  87.249 116.386  0.00  0.00    -0.090 HD
ATOM     20  H   LIG d   1       2.313  86.325 116.126  0.00  0.00    -0.090 HD
ATOM     21  H   LIG d   1       1.296  86.664 114.888  0.00  0.00    -0.090 HD
ENDBRANCH   5  18
BRANCH   3  22
ATOM     22  C   LIG d   1       2.669  91.539 116.986  0.00  0.00     0.382 C 
ATOM     23  O   LIG d   1       3.456  92.503 117.148  0.00  0.00    -0.241 OA
ATOM     24  O   LIG d   1       1.483  91.648 117.349  0.00  0.00    -0.241 OA
ENDBRANCH   3  22
TORSDOF 7
ENDMDL
