MODEL 1
REMARK VINA RESULT:      -5.1      0.000      0.000
REMARK  7 active torsions:
REMARK  status: ('A' for Active; 'I' for Inactive)
REMARK    1  A    between atoms: C_2  and  C_3 
REMARK    2  A    between atoms: C_3  and  O_6 
REMARK    3  A    between atoms: C_3  and  C_4 
REMARK    4  A    between atoms: C_7  and  O_6 
REMARK    5  A    between atoms: C_9  and  C_10 
REMARK    6  A    between atoms: N_15  and  C_14 
REMARK    7  A    between atoms: N_20  and  C_19 
REMARK       I    between atoms: C_22  and  N_20 
ROOT
ATOM      1  C   LIG d   1      -4.101  91.140 116.513  0.00  0.00     0.161 C 
ATOM      2  C   LIG d   1      -3.728  90.089 115.659  0.00  0.00     0.016 C 
ATOM      3  C   LIG d   1      -4.636  89.416 114.810  0.00  0.00     0.038 C 
ATOM      4  C   LIG d   1      -5.959  89.852 114.645  0.00  0.00     0.028 C 
ATOM      5  C   LIG d   1      -6.510  90.589 115.861  0.00  0.00    -0.047 C 
ATOM      6  C   LIG d   1      -5.516  91.703 116.265  0.00  0.00     0.091 C 
ENDROOT
BRANCH   1   7
ATOM      7  O   LIG d   1      -3.123  92.196 116.445  0.00  0.00    -0.368 OA
BRANCH   7   8
ATOM      8  C   LIG d   1      -1.788  91.858 116.894  0.00  0.00     0.119 C 
BRANCH   8   9
ATOM      9  C   LIG d   1      -1.849  91.663 118.421  0.00  0.00     0.028 C 
ATOM     10  C   LIG d   1      -1.260  90.314 118.865  0.00  0.00     0.006 C 
ENDBRANCH   8   9
BRANCH   8  11
ATOM     11  C   LIG d   1      -0.814  93.020 116.672  0.00  0.00     0.028 C 
ATOM     12  C   LIG d   1      -0.738  93.971 117.876  0.00  0.00     0.006 C 
ENDBRANCH   8  11
ENDBRANCH   7   8
ENDBRANCH   1   7
BRANCH   6  13
ATOM     13  N   LIG d   1      -5.938  92.419 117.497  0.00  0.00    -0.311 N 
ATOM     14  C   LIG d   1      -6.887  93.353 117.514  0.00  0.00     0.210 C 
ATOM     15  C   LIG d   1      -7.153  93.980 118.886  0.00  0.00     0.109 C 
ATOM     16  O   LIG d   1      -7.556  93.700 116.528  0.00  0.00    -0.276 OA
ATOM     17  H   LIG d   1      -5.469  92.177 118.348  0.00  0.00     0.149 HD
ENDBRANCH   6  13
BRANCH   5  18
ATOM     18  N   LIG d   1      -7.844  91.107 115.502  0.00  0.00     0.381 N 
ATOM     19  H   LIG d   1      -8.412  90.363 115.150  0.00  0.00    -0.090 HD
ATOM     20  H   LIG d   1      -7.741  91.795 114.776  0.00  0.00    -0.090 HD
ATOM     21  H   LIG d   1      -8.276  91.517 116.300  0.00  0.00    -0.090 HD
ENDBRANCH   5  18
BRANCH   3  22
ATOM     22  C   LIG d   1      -4.233  88.268 114.145  0.00  0.00     0.382 C 
ATOM     23  O   LIG d   1      -4.574  88.082 112.952  0.00  0.00    -0.241 OA
ATOM     24  O   LIG d   1      -3.570  87.395 114.736  0.00  0.00    -0.241 OA
ENDBRANCH   3  22
TORSDOF 7
ENDMDL
MODEL 2
REMARK VINA RESULT:      -5.1      0.535      1.592
REMARK  7 active torsions:
REMARK  status: ('A' for Active; 'I' for Inactive)
REMARK    1  A    between atoms: C_2  and  C_3 
REMARK    2  A    between atoms: C_3  and  O_6 
REMARK    3  A    between atoms: C_3  and  C_4 
REMARK    4  A    between atoms: C_7  and  O_6 
REMARK    5  A    between atoms: C_9  and  C_10 
REMARK    6  A    between atoms: N_15  and  C_14 
REMARK    7  A    between atoms: N_20  and  C_19 
REMARK       I    between atoms: C_22  and  N_20 
ROOT
ATOM      1  C   LIG d   1      -4.058  91.127 116.428  0.00  0.00     0.161 C 
ATOM      2  C   LIG d   1      -3.736  90.072 115.557  0.00  0.00     0.016 C 
ATOM      3  C   LIG d   1      -4.689  89.415 114.745  0.00  0.00     0.038 C 
ATOM      4  C   LIG d   1      -6.010  89.872 114.636  0.00  0.00     0.028 C 
ATOM      5  C   LIG d   1      -6.499  90.615 115.875  0.00  0.00    -0.047 C 
ATOM      6  C   LIG d   1      -5.473  91.712 116.239  0.00  0.00     0.091 C 
ENDROOT
BRANCH   1   7
ATOM      7  O   LIG d   1      -3.067  92.168 116.321  0.00  0.00    -0.368 OA
BRANCH   7   8
ATOM      8  C   LIG d   1      -2.297  92.441 117.518  0.00  0.00     0.119 C 
BRANCH   8   9
ATOM      9  C   LIG d   1      -1.133  93.368 117.119  0.00  0.00     0.028 C 
ATOM     10  C   LIG d   1      -0.928  94.517 118.120  0.00  0.00     0.006 C 
ENDBRANCH   8   9
BRANCH   8  11
ATOM     11  C   LIG d   1      -1.636  91.169 118.058  0.00  0.00     0.028 C 
ATOM     12  C   LIG d   1      -0.379  90.770 117.269  0.00  0.00     0.006 C 
ENDBRANCH   8  11
ENDBRANCH   7   8
ENDBRANCH   1   7
BRANCH   6  13
ATOM     13  N   LIG d   1      -5.832  92.431 117.489  0.00  0.00    -0.311 N 
ATOM     14  C   LIG d   1      -6.765  93.380 117.547  0.00  0.00     0.210 C 
ATOM     15  C   LIG d   1      -6.965  94.008 118.930  0.00  0.00     0.109 C 
ATOM     16  O   LIG d   1      -7.468  93.740 116.590  0.00  0.00    -0.276 OA
ATOM     17  H   LIG d   1      -5.332  92.180 118.320  0.00  0.00     0.149 HD
ENDBRANCH   6  13
BRANCH   5  18
ATOM     18  N   LIG d   1      -7.838  91.154 115.572  0.00  0.00     0.381 N 
ATOM     19  H   LIG d   1      -7.995  91.136 114.584  0.00  0.00    -0.090 HD
ATOM     20  H   LIG d   1      -7.882  92.109 115.880  0.00  0.00    -0.090 HD
ATOM     21  H   LIG d   1      -8.536  90.615 116.036  0.00  0.00    -0.090 HD
ENDBRANCH   5  18
BRANCH   3  22
ATOM     22  C   LIG d   1      -4.331  88.263 114.061  0.00  0.00     0.382 C 
ATOM     23  O   LIG d   1      -3.587  87.415 114.609  0.00  0.00    -0.241 OA
ATOM     24  O   LIG d   1      -4.708  88.082 112.888  0.00  0.00    -0.241 OA
ENDBRANCH   3  22
TORSDOF 7
ENDMDL
MODEL 3
REMARK VINA RESULT:      -4.6      2.483      5.966
REMARK  7 active torsions:
REMARK  status: ('A' for Active; 'I' for Inactive)
REMARK    1  A    between atoms: C_2  and  C_3 
REMARK    2  A    between atoms: C_3  and  O_6 
REMARK    3  A    between atoms: C_3  and  C_4 
REMARK    4  A    between atoms: C_7  and  O_6 
REMARK    5  A    between atoms: C_9  and  C_10 
REMARK    6  A    between atoms: N_15  and  C_14 
REMARK    7  A    between atoms: N_20  and  C_19 
REMARK       I    between atoms: C_22  and  N_20 
ROOT
ATOM      1  C   LIG d   1      -5.798  91.218 118.016  0.00  0.00     0.161 C 
ATOM      2  C   LIG d   1      -6.922  92.061 118.018  0.00  0.00     0.016 C 
ATOM      3  C   LIG d   1      -6.855  93.447 118.287  0.00  0.00     0.038 C 
ATOM      4  C   LIG d   1      -5.631  94.117 118.423  0.00  0.00     0.028 C 
ATOM      5  C   LIG d   1      -4.504  93.223 118.929  0.00  0.00    -0.047 C 
ATOM      6  C   LIG d   1      -4.441  91.951 118.053  0.00  0.00     0.091 C 
ENDROOT
BRANCH   1   7
ATOM      7  O   LIG d   1      -5.856  90.329 116.884  0.00  0.00    -0.368 OA
BRANCH   7   8
ATOM      8  C   LIG d   1      -5.062  90.708 115.733  0.00  0.00     0.119 C 
BRANCH   8   9
ATOM      9  C   LIG d   1      -5.994  91.438 114.747  0.00  0.00     0.028 C 
ATOM     10  C   LIG d   1      -7.182  90.565 114.307  0.00  0.00     0.006 C 
ENDBRANCH   8   9
BRANCH   8  11
ATOM     11  C   LIG d   1      -4.553  89.478 114.976  0.00  0.00     0.028 C 
ATOM     12  C   LIG d   1      -3.426  88.745 115.720  0.00  0.00     0.006 C 
ENDBRANCH   8  11
ENDBRANCH   7   8
ENDBRANCH   1   7
BRANCH   6  13
ATOM     13  N   LIG d   1      -3.420  90.983 118.532  0.00  0.00    -0.311 N 
ATOM     14  C   LIG d   1      -2.165  90.961 118.087  0.00  0.00     0.210 C 
ATOM     15  C   LIG d   1      -1.281  89.869 118.698  0.00  0.00     0.109 C 
ATOM     16  O   LIG d   1      -1.691  91.762 117.268  0.00  0.00    -0.276 OA
ATOM     17  H   LIG d   1      -3.711  90.317 119.221  0.00  0.00     0.149 HD
ENDBRANCH   6  13
BRANCH   5  18
ATOM     18  N   LIG d   1      -3.258  94.012 118.893  0.00  0.00     0.381 N 
ATOM     19  H   LIG d   1      -2.603  93.583 118.271  0.00  0.00    -0.090 HD
ATOM     20  H   LIG d   1      -2.856  94.027 119.814  0.00  0.00    -0.090 HD
ATOM     21  H   LIG d   1      -3.452  94.942 118.593  0.00  0.00    -0.090 HD
ENDBRANCH   5  18
BRANCH   3  22
ATOM     22  C   LIG d   1      -8.025  94.171 118.460  0.00  0.00     0.382 C 
ATOM     23  O   LIG d   1      -8.017  95.418 118.325  0.00  0.00    -0.241 OA
ATOM     24  O   LIG d   1      -9.079  93.597 118.794  0.00  0.00    -0.241 OA
ENDBRANCH   3  22
TORSDOF 7
ENDMDL
MODEL 4
REMARK VINA RESULT:      -4.4      6.307      9.297
REMARK  7 active torsions:
REMARK  status: ('A' for Active; 'I' for Inactive)
REMARK    1  A    between atoms: C_2  and  C_3 
REMARK    2  A    between atoms: C_3  and  O_6 
REMARK    3  A    between atoms: C_3  and  C_4 
REMARK    4  A    between atoms: C_7  and  O_6 
REMARK    5  A    between atoms: C_9  and  C_10 
REMARK    6  A    between atoms: N_15  and  C_14 
REMARK    7  A    between atoms: N_20  and  C_19 
REMARK       I    between atoms: C_22  and  N_20 
ROOT
ATOM      1  C   LIG d   1       1.360  87.440 115.580  0.00  0.00     0.161 C 
ATOM      2  C   LIG d   1       0.206  88.024 116.130  0.00  0.00     0.016 C 
ATOM      3  C   LIG d   1       0.237  88.959 117.190  0.00  0.00     0.038 C 
ATOM      4  C   LIG d   1       1.442  89.492 117.674  0.00  0.00     0.028 C 
ATOM      5  C   LIG d   1       2.633  88.557 117.493  0.00  0.00    -0.047 C 
ATOM      6  C   LIG d   1       2.687  88.092 116.020  0.00  0.00     0.091 C 
ENDROOT
BRANCH   1   7
ATOM      7  O   LIG d   1       1.261  87.425 114.142  0.00  0.00    -0.368 OA
BRANCH   7   8
ATOM      8  C   LIG d   1       0.979  86.140 113.536  0.00  0.00     0.119 C 
BRANCH   8   9
ATOM      9  C   LIG d   1       1.935  85.973 112.339  0.00  0.00     0.028 C 
ATOM     10  C   LIG d   1       2.944  87.128 112.229  0.00  0.00     0.006 C 
ENDBRANCH   8   9
BRANCH   8  11
ATOM     11  C   LIG d   1      -0.430  86.103 112.938  0.00  0.00     0.028 C 
ATOM     12  C   LIG d   1      -0.430  85.800 111.431  0.00  0.00     0.006 C 
ENDBRANCH   8  11
ENDBRANCH   7   8
ENDBRANCH   1   7
BRANCH   6  13
ATOM     13  N   LIG d   1       3.774  87.109 115.776  0.00  0.00    -0.311 N 
ATOM     14  C   LIG d   1       4.972  87.443 115.299  0.00  0.00     0.210 C 
ATOM     15  C   LIG d   1       5.940  86.272 115.103  0.00  0.00     0.109 C 
ATOM     16  O   LIG d   1       5.336  88.603 115.051  0.00  0.00    -0.276 OA
ATOM     17  H   LIG d   1       3.575  86.149 115.979  0.00  0.00     0.149 HD
ENDBRANCH   6  13
BRANCH   5  18
ATOM     18  N   LIG d   1       3.842  89.290 117.913  0.00  0.00     0.381 N 
ATOM     19  H   LIG d   1       3.583  90.085 118.462  0.00  0.00    -0.090 HD
ATOM     20  H   LIG d   1       4.325  89.617 117.094  0.00  0.00    -0.090 HD
ATOM     21  H   LIG d   1       4.438  88.692 118.442  0.00  0.00    -0.090 HD
ENDBRANCH   5  18
BRANCH   3  22
ATOM     22  C   LIG d   1      -0.946  89.341 117.805  0.00  0.00     0.382 C 
ATOM     23  O   LIG d   1      -1.300  90.544 117.789  0.00  0.00    -0.241 OA
ATOM     24  O   LIG d   1      -1.641  88.504 118.412  0.00  0.00    -0.241 OA
ENDBRANCH   3  22
TORSDOF 7
ENDMDL
MODEL 5
REMARK VINA RESULT:      -4.1      6.529      8.644
REMARK  7 active torsions:
REMARK  status: ('A' for Active; 'I' for Inactive)
REMARK    1  A    between atoms: C_2  and  C_3 
REMARK    2  A    between atoms: C_3  and  O_6 
REMARK    3  A    between atoms: C_3  and  C_4 
REMARK    4  A    between atoms: C_7  and  O_6 
REMARK    5  A    between atoms: C_9  and  C_10 
REMARK    6  A    between atoms: N_15  and  C_14 
REMARK    7  A    between atoms: N_20  and  C_19 
REMARK       I    between atoms: C_22  and  N_20 
ROOT
ATOM      1  C   LIG d   1       1.666  87.573 115.547  0.00  0.00     0.161 C 
ATOM      2  C   LIG d   1       0.785  86.906 114.680  0.00  0.00     0.016 C 
ATOM      3  C   LIG d   1       1.197  86.283 113.479  0.00  0.00     0.038 C 
ATOM      4  C   LIG d   1       2.551  86.154 113.138  0.00  0.00     0.028 C 
ATOM      5  C   LIG d   1       3.432  87.250 113.728  0.00  0.00    -0.047 C 
ATOM      6  C   LIG d   1       3.163  87.347 115.247  0.00  0.00     0.091 C 
ENDROOT
BRANCH   1   7
ATOM      7  O   LIG d   1       1.370  87.220 116.912  0.00  0.00    -0.368 OA
BRANCH   7   8
ATOM      8  C   LIG d   1       0.978  88.310 117.782  0.00  0.00     0.119 C 
BRANCH   8   9
ATOM      9  C   LIG d   1      -0.465  88.035 118.248  0.00  0.00     0.028 C 
ATOM     10  C   LIG d   1      -1.502  88.851 117.459  0.00  0.00     0.006 C 
ENDBRANCH   8   9
BRANCH   8  11
ATOM     11  C   LIG d   1       0.912  89.636 117.019  0.00  0.00     0.028 C 
ATOM     12  C   LIG d   1       1.684  90.765 117.718  0.00  0.00     0.006 C 
ENDBRANCH   8  11
ENDBRANCH   7   8
ENDBRANCH   1   7
BRANCH   6  13
ATOM     13  N   LIG d   1       3.922  88.452 115.888  0.00  0.00    -0.311 N 
ATOM     14  C   LIG d   1       5.121  88.291 116.445  0.00  0.00     0.210 C 
ATOM     15  C   LIG d   1       5.720  89.556 117.067  0.00  0.00     0.109 C 
ATOM     16  O   LIG d   1       5.760  87.228 116.453  0.00  0.00    -0.276 OA
ATOM     17  H   LIG d   1       3.491  89.356 115.898  0.00  0.00     0.149 HD
ENDBRANCH   6  13
BRANCH   5  18
ATOM     18  N   LIG d   1       4.833  86.917 113.409  0.00  0.00     0.381 N 
ATOM     19  H   LIG d   1       5.088  86.061 113.859  0.00  0.00    -0.090 HD
ATOM     20  H   LIG d   1       5.428  87.647 113.757  0.00  0.00    -0.090 HD
ATOM     21  H   LIG d   1       4.946  86.828 112.423  0.00  0.00    -0.090 HD
ENDBRANCH   5  18
BRANCH   3  22
ATOM     22  C   LIG d   1       0.245  85.816 112.586  0.00  0.00     0.382 C 
ATOM     23  O   LIG d   1      -0.958  85.738 112.935  0.00  0.00    -0.241 OA
ATOM     24  O   LIG d   1       0.580  85.430 111.450  0.00  0.00    -0.241 OA
ENDBRANCH   3  22
TORSDOF 7
ENDMDL
MODEL 6
REMARK VINA RESULT:      -4.1      2.028      4.752
REMARK  7 active torsions:
REMARK  status: ('A' for Active; 'I' for Inactive)
REMARK    1  A    between atoms: C_2  and  C_3 
REMARK    2  A    between atoms: C_3  and  O_6 
REMARK    3  A    between atoms: C_3  and  C_4 
REMARK    4  A    between atoms: C_7  and  O_6 
REMARK    5  A    between atoms: C_9  and  C_10 
REMARK    6  A    between atoms: N_15  and  C_14 
REMARK    7  A    between atoms: N_20  and  C_19 
REMARK       I    between atoms: C_22  and  N_20 
ROOT
ATOM      1  C   LIG d   1      -4.004  91.597 116.471  0.00  0.00     0.161 C 
ATOM      2  C   LIG d   1      -4.391  90.625 115.534  0.00  0.00     0.016 C 
ATOM      3  C   LIG d   1      -3.896  89.300 115.537  0.00  0.00     0.038 C 
ATOM      4  C   LIG d   1      -3.089  88.813 116.576  0.00  0.00     0.028 C 
ATOM      5  C   LIG d   1      -2.269  89.898 117.266  0.00  0.00    -0.047 C 
ATOM      6  C   LIG d   1      -3.210  91.053 117.677  0.00  0.00     0.091 C 
ENDROOT
BRANCH   1   7
ATOM      7  O   LIG d   1      -5.160  92.329 116.921  0.00  0.00    -0.368 OA
BRANCH   7   8
ATOM      8  C   LIG d   1      -6.395  92.071 116.210  0.00  0.00     0.119 C 
BRANCH   8   9
ATOM      9  C   LIG d   1      -7.393  93.180 116.596  0.00  0.00     0.028 C 
ATOM     10  C   LIG d   1      -7.041  93.845 117.937  0.00  0.00     0.006 C 
ENDBRANCH   8   9
BRANCH   8  11
ATOM     11  C   LIG d   1      -7.043  90.763 116.674  0.00  0.00     0.028 C 
ATOM     12  C   LIG d   1      -7.722  89.995 115.529  0.00  0.00     0.006 C 
ENDBRANCH   8  11
ENDBRANCH   7   8
ENDBRANCH   1   7
BRANCH   6  13
ATOM     13  N   LIG d   1      -2.475  92.194 118.284  0.00  0.00    -0.311 N 
ATOM     14  C   LIG d   1      -1.484  92.837 117.670  0.00  0.00     0.210 C 
ATOM     15  C   LIG d   1      -0.849  93.971 118.481  0.00  0.00     0.109 C 
ATOM     16  O   LIG d   1      -1.091  92.597 116.518  0.00  0.00    -0.276 OA
ATOM     17  H   LIG d   1      -2.750  92.475 119.205  0.00  0.00     0.149 HD
ENDBRANCH   6  13
BRANCH   5  18
ATOM     18  N   LIG d   1      -1.582  89.275 118.413  0.00  0.00     0.381 N 
ATOM     19  H   LIG d   1      -2.157  88.555 118.803  0.00  0.00    -0.090 HD
ATOM     20  H   LIG d   1      -1.430  89.974 119.120  0.00  0.00    -0.090 HD
ATOM     21  H   LIG d   1      -0.709  88.893 118.122  0.00  0.00    -0.090 HD
ENDBRANCH   5  18
BRANCH   3  22
ATOM     22  C   LIG d   1      -4.176  88.459 114.471  0.00  0.00     0.382 C 
ATOM     23  O   LIG d   1      -3.596  87.350 114.378  0.00  0.00    -0.241 OA
ATOM     24  O   LIG d   1      -4.967  88.815 113.577  0.00  0.00    -0.241 OA
ENDBRANCH   3  22
TORSDOF 7
ENDMDL
MODEL 7
REMARK VINA RESULT:      -4.0      2.139      4.915
REMARK  7 active torsions:
REMARK  status: ('A' for Active; 'I' for Inactive)
REMARK    1  A    between atoms: C_2  and  C_3 
REMARK    2  A    between atoms: C_3  and  O_6 
REMARK    3  A    between atoms: C_3  and  C_4 
REMARK    4  A    between atoms: C_7  and  O_6 
REMARK    5  A    between atoms: C_9  and  C_10 
REMARK    6  A    between atoms: N_15  and  C_14 
REMARK    7  A    between atoms: N_20  and  C_19 
REMARK       I    between atoms: C_22  and  N_20 
ROOT
ATOM      1  C   LIG d   1      -3.364  91.190 116.772  0.00  0.00     0.161 C 
ATOM      2  C   LIG d   1      -1.997  90.868 116.812  0.00  0.00     0.016 C 
ATOM      3  C   LIG d   1      -1.033  91.647 117.492  0.00  0.00     0.038 C 
ATOM      4  C   LIG d   1      -1.397  92.726 118.312  0.00  0.00     0.028 C 
ATOM      5  C   LIG d   1      -2.706  93.389 117.895  0.00  0.00    -0.047 C 
ATOM      6  C   LIG d   1      -3.795  92.302 117.752  0.00  0.00     0.091 C 
ENDROOT
BRANCH   1   7
ATOM      7  O   LIG d   1      -4.152  90.002 116.984  0.00  0.00    -0.368 OA
BRANCH   7   8
ATOM      8  C   LIG d   1      -4.796  89.447 115.810  0.00  0.00     0.119 C 
BRANCH   8   9
ATOM      9  C   LIG d   1      -3.757  88.572 115.083  0.00  0.00     0.028 C 
ATOM     10  C   LIG d   1      -4.237  88.126 113.691  0.00  0.00     0.006 C 
ENDBRANCH   8   9
BRANCH   8  11
ATOM     11  C   LIG d   1      -5.174  90.544 114.811  0.00  0.00     0.028 C 
ATOM     12  C   LIG d   1      -6.690  90.644 114.581  0.00  0.00     0.006 C 
ENDBRANCH   8  11
ENDBRANCH   7   8
ENDBRANCH   1   7
BRANCH   6  13
ATOM     13  N   LIG d   1      -5.086  92.854 117.266  0.00  0.00    -0.311 N 
ATOM     14  C   LIG d   1      -6.261  92.572 117.826  0.00  0.00     0.210 C 
ATOM     15  C   LIG d   1      -7.472  93.231 117.156  0.00  0.00     0.109 C 
ATOM     16  O   LIG d   1      -6.413  91.865 118.833  0.00  0.00    -0.276 OA
ATOM     17  H   LIG d   1      -5.052  93.462 116.471  0.00  0.00     0.149 HD
ENDBRANCH   6  13
BRANCH   5  18
ATOM     18  N   LIG d   1      -3.034  94.405 118.913  0.00  0.00     0.381 N 
ATOM     19  H   LIG d   1      -3.838  94.116 119.434  0.00  0.00    -0.090 HD
ATOM     20  H   LIG d   1      -3.253  95.270 118.450  0.00  0.00    -0.090 HD
ATOM     21  H   LIG d   1      -2.260  94.536 119.527  0.00  0.00    -0.090 HD
ENDBRANCH   5  18
BRANCH   3  22
ATOM     22  C   LIG d   1       0.315  91.372 117.325  0.00  0.00     0.382 C 
ATOM     23  O   LIG d   1       0.696  90.191 117.140  0.00  0.00    -0.241 OA
ATOM     24  O   LIG d   1       1.160  92.285 117.400  0.00  0.00    -0.241 OA
ENDBRANCH   3  22
TORSDOF 7
ENDMDL
MODEL 8
REMARK VINA RESULT:      -4.0      5.053      7.605
REMARK  7 active torsions:
REMARK  status: ('A' for Active; 'I' for Inactive)
REMARK    1  A    between atoms: C_2  and  C_3 
REMARK    2  A    between atoms: C_3  and  O_6 
REMARK    3  A    between atoms: C_3  and  C_4 
REMARK    4  A    between atoms: C_7  and  O_6 
REMARK    5  A    between atoms: C_9  and  C_10 
REMARK    6  A    between atoms: N_15  and  C_14 
REMARK    7  A    between atoms: N_20  and  C_19 
REMARK       I    between atoms: C_22  and  N_20 
ROOT
ATOM      1  C   LIG d   1       1.451  89.496 117.251  0.00  0.00     0.161 C 
ATOM      2  C   LIG d   1       2.773  89.928 117.448  0.00  0.00     0.016 C 
ATOM      3  C   LIG d   1       3.112  91.244 117.839  0.00  0.00     0.038 C 
ATOM      4  C   LIG d   1       2.136  92.181 118.209  0.00  0.00     0.028 C 
ATOM      5  C   LIG d   1       0.785  91.945 117.542  0.00  0.00    -0.047 C 
ATOM      6  C   LIG d   1       0.369  90.472 117.757  0.00  0.00     0.091 C 
ENDROOT
BRANCH   1   7
ATOM      7  O   LIG d   1       1.270  88.195 117.844  0.00  0.00    -0.368 OA
BRANCH   7   8
ATOM      8  C   LIG d   1       1.063  87.097 116.922  0.00  0.00     0.119 C 
BRANCH   8   9
ATOM      9  C   LIG d   1       2.320  86.207 116.971  0.00  0.00     0.028 C 
ATOM     10  C   LIG d   1       3.028  86.267 118.335  0.00  0.00     0.006 C 
ENDBRANCH   8   9
BRANCH   8  11
ATOM     11  C   LIG d   1       0.974  87.593 115.476  0.00  0.00     0.028 C 
ATOM     12  C   LIG d   1       2.076  87.010 114.577  0.00  0.00     0.006 C 
ENDBRANCH   8  11
ENDBRANCH   7   8
ENDBRANCH   1   7
BRANCH   6  13
ATOM     13  N   LIG d   1      -0.901  90.134 117.064  0.00  0.00    -0.311 N 
ATOM     14  C   LIG d   1      -1.923  89.524 117.663  0.00  0.00     0.210 C 
ATOM     15  C   LIG d   1      -3.131  89.251 116.761  0.00  0.00     0.109 C 
ATOM     16  O   LIG d   1      -1.956  89.212 118.863  0.00  0.00    -0.276 OA
ATOM     17  H   LIG d   1      -0.972  90.380 116.096  0.00  0.00     0.149 HD
ENDBRANCH   6  13
BRANCH   5  18
ATOM     18  N   LIG d   1      -0.172  92.907 118.120  0.00  0.00     0.381 N 
ATOM     19  H   LIG d   1       0.204  93.294 118.962  0.00  0.00    -0.090 HD
ATOM     20  H   LIG d   1      -1.022  92.422 118.349  0.00  0.00    -0.090 HD
ATOM     21  H   LIG d   1      -0.362  93.635 117.467  0.00  0.00    -0.090 HD
ENDBRANCH   5  18
BRANCH   3  22
ATOM     22  C   LIG d   1       4.439  91.646 117.824  0.00  0.00     0.382 C 
ATOM     23  O   LIG d   1       4.758  92.736 117.291  0.00  0.00    -0.241 OA
ATOM     24  O   LIG d   1       5.326  90.911 118.298  0.00  0.00    -0.241 OA
ENDBRANCH   3  22
TORSDOF 7
ENDMDL
MODEL 9
REMARK VINA RESULT:      -3.9      2.266      4.929
REMARK  7 active torsions:
REMARK  status: ('A' for Active; 'I' for Inactive)
REMARK    1  A    between atoms: C_2  and  C_3 
REMARK    2  A    between atoms: C_3  and  O_6 
REMARK    3  A    between atoms: C_3  and  C_4 
REMARK    4  A    between atoms: C_7  and  O_6 
REMARK    5  A    between atoms: C_9  and  C_10 
REMARK    6  A    between atoms: N_15  and  C_14 
REMARK    7  A    between atoms: N_20  and  C_19 
REMARK       I    between atoms: C_22  and  N_20 
ROOT
ATOM      1  C   LIG d   1      -3.085  91.167 116.879  0.00  0.00     0.161 C 
ATOM      2  C   LIG d   1      -2.152  92.102 117.356  0.00  0.00     0.016 C 
ATOM      3  C   LIG d   1      -2.473  93.118 118.285  0.00  0.00     0.038 C 
ATOM      4  C   LIG d   1      -3.723  93.174 118.920  0.00  0.00     0.028 C 
ATOM      5  C   LIG d   1      -4.849  92.560 118.095  0.00  0.00    -0.047 C 
ATOM      6  C   LIG d   1      -4.425  91.143 117.643  0.00  0.00     0.091 C 
ENDROOT
BRANCH   1   7
ATOM      7  O   LIG d   1      -2.495  89.852 116.861  0.00  0.00    -0.368 OA
BRANCH   7   8
ATOM      8  C   LIG d   1      -1.498  89.588 117.879  0.00  0.00     0.119 C 
BRANCH   8   9
ATOM      9  C   LIG d   1      -0.317  88.872 117.195  0.00  0.00     0.028 C 
ATOM     10  C   LIG d   1       0.913  89.782 117.042  0.00  0.00     0.006 C 
ENDBRANCH   8   9
BRANCH   8  11
ATOM     11  C   LIG d   1      -2.019  88.601 118.927  0.00  0.00     0.028 C 
ATOM     12  C   LIG d   1      -1.247  87.272 118.930  0.00  0.00     0.006 C 
ENDBRANCH   8  11
ENDBRANCH   7   8
ENDBRANCH   1   7
BRANCH   6  13
ATOM     13  N   LIG d   1      -5.436  90.504 116.760  0.00  0.00    -0.311 N 
ATOM     14  C   LIG d   1      -5.880  91.058 115.633  0.00  0.00     0.210 C 
ATOM     15  C   LIG d   1      -6.935  90.240 114.883  0.00  0.00     0.109 C 
ATOM     16  O   LIG d   1      -5.476  92.134 115.167  0.00  0.00    -0.276 OA
ATOM     17  H   LIG d   1      -5.794  89.614 117.047  0.00  0.00     0.149 HD
ENDBRANCH   6  13
BRANCH   5  18
ATOM     18  N   LIG d   1      -6.065  92.561 118.930  0.00  0.00     0.381 N 
ATOM     19  H   LIG d   1      -6.563  93.419 118.802  0.00  0.00    -0.090 HD
ATOM     20  H   LIG d   1      -5.796  92.493 119.896  0.00  0.00    -0.090 HD
ATOM     21  H   LIG d   1      -6.648  91.791 118.685  0.00  0.00    -0.090 HD
ENDBRANCH   5  18
BRANCH   3  22
ATOM     22  C   LIG d   1      -1.551  94.116 118.559  0.00  0.00     0.382 C 
ATOM     23  O   LIG d   1      -1.945  95.266 118.869  0.00  0.00    -0.241 OA
ATOM     24  O   LIG d   1      -0.329  93.893 118.457  0.00  0.00    -0.241 OA
ENDBRANCH   3  22
TORSDOF 7
ENDMDL
