MODEL 1
REMARK VINA RESULT:      -6.0      0.000      0.000
REMARK  7 active torsions:
REMARK  status: ('A' for Active; 'I' for Inactive)
REMARK    1  A    between atoms: C_2  and  C_3 
REMARK    2  A    between atoms: C_3  and  O_6 
REMARK    3  A    between atoms: C_3  and  C_4 
REMARK    4  A    between atoms: C_7  and  O_6 
REMARK    5  A    between atoms: C_9  and  C_10 
REMARK    6  A    between atoms: N_15  and  C_14 
REMARK    7  A    between atoms: N_20  and  C_19 
REMARK       I    between atoms: C_22  and  N_20 
ROOT
ATOM      1  C   LIG d   1      -7.957  76.012 117.848  0.00  0.00     0.161 C 
ATOM      2  C   LIG d   1      -9.055  76.771 118.284  0.00  0.00     0.016 C 
ATOM      3  C   LIG d   1      -9.036  78.181 118.384  0.00  0.00     0.038 C 
ATOM      4  C   LIG d   1      -7.959  78.944 117.908  0.00  0.00     0.028 C 
ATOM      5  C   LIG d   1      -6.631  78.195 117.929  0.00  0.00    -0.047 C 
ATOM      6  C   LIG d   1      -6.812  76.833 117.220  0.00  0.00     0.091 C 
ENDROOT
BRANCH   1   7
ATOM      7  O   LIG d   1      -8.401  74.990 116.934  0.00  0.00    -0.368 OA
BRANCH   7   8
ATOM      8  C   LIG d   1      -8.505  73.651 117.477  0.00  0.00     0.119 C 
BRANCH   8   9
ATOM      9  C   LIG d   1      -7.444  72.782 116.774  0.00  0.00     0.028 C 
ATOM     10  C   LIG d   1      -7.904  71.326 116.591  0.00  0.00     0.006 C 
ENDBRANCH   8   9
BRANCH   8  11
ATOM     11  C   LIG d   1      -9.851  73.010 117.125  0.00  0.00     0.028 C 
ATOM     12  C   LIG d   1     -10.828  73.998 116.467  0.00  0.00     0.006 C 
ENDBRANCH   8  11
ENDBRANCH   7   8
ENDBRANCH   1   7
BRANCH   6  13
ATOM     13  N   LIG d   1      -5.582  76.000 117.269  0.00  0.00    -0.311 N 
ATOM     14  C   LIG d   1      -4.887  75.654 116.186  0.00  0.00     0.210 C 
ATOM     15  C   LIG d   1      -3.662  74.775 116.458  0.00  0.00     0.109 C 
ATOM     16  O   LIG d   1      -5.151  76.017 115.030  0.00  0.00    -0.276 OA
ATOM     17  H   LIG d   1      -5.278  75.688 118.170  0.00  0.00     0.149 HD
ENDBRANCH   6  13
BRANCH   5  18
ATOM     18  N   LIG d   1      -5.624  79.055 117.280  0.00  0.00     0.381 N 
ATOM     19  H   LIG d   1      -4.998  79.423 117.968  0.00  0.00    -0.090 HD
ATOM     20  H   LIG d   1      -6.092  79.825 116.835  0.00  0.00    -0.090 HD
ATOM     21  H   LIG d   1      -5.113  78.532 116.603  0.00  0.00    -0.090 HD
ENDBRANCH   5  18
BRANCH   3  22
ATOM     22  C   LIG d   1     -10.087  78.841 119.003  0.00  0.00     0.382 C 
ATOM     23  O   LIG d   1      -9.887  79.936 119.581  0.00  0.00    -0.241 OA
ATOM     24  O   LIG d   1     -11.224  78.333 119.028  0.00  0.00    -0.241 OA
ENDBRANCH   3  22
TORSDOF 7
ENDMDL
MODEL 2
REMARK VINA RESULT:      -5.6      1.309      1.886
REMARK  7 active torsions:
REMARK  status: ('A' for Active; 'I' for Inactive)
REMARK    1  A    between atoms: C_2  and  C_3 
REMARK    2  A    between atoms: C_3  and  O_6 
REMARK    3  A    between atoms: C_3  and  C_4 
REMARK    4  A    between atoms: C_7  and  O_6 
REMARK    5  A    between atoms: C_9  and  C_10 
REMARK    6  A    between atoms: N_15  and  C_14 
REMARK    7  A    between atoms: N_20  and  C_19 
REMARK       I    between atoms: C_22  and  N_20 
ROOT
ATOM      1  C   LIG d   1      -7.478  76.699 117.808  0.00  0.00     0.161 C 
ATOM      2  C   LIG d   1      -8.754  77.168 118.164  0.00  0.00     0.016 C 
ATOM      3  C   LIG d   1      -9.053  78.536 118.362  0.00  0.00     0.038 C 
ATOM      4  C   LIG d   1      -8.126  79.547 118.070  0.00  0.00     0.028 C 
ATOM      5  C   LIG d   1      -6.675  79.094 118.194  0.00  0.00    -0.047 C 
ATOM      6  C   LIG d   1      -6.483  77.797 117.376  0.00  0.00     0.091 C 
ENDROOT
BRANCH   1   7
ATOM      7  O   LIG d   1      -7.595  75.696 116.780  0.00  0.00    -0.368 OA
BRANCH   7   8
ATOM      8  C   LIG d   1      -7.202  74.352 117.153  0.00  0.00     0.119 C 
BRANCH   8   9
ATOM      9  C   LIG d   1      -6.389  73.766 115.983  0.00  0.00     0.028 C 
ATOM     10  C   LIG d   1      -6.080  74.814 114.900  0.00  0.00     0.006 C 
ENDBRANCH   8   9
BRANCH   8  11
ATOM     11  C   LIG d   1      -8.420  73.436 117.299  0.00  0.00     0.028 C 
ATOM     12  C   LIG d   1      -8.079  71.953 117.086  0.00  0.00     0.006 C 
ENDBRANCH   8  11
ENDBRANCH   7   8
ENDBRANCH   1   7
BRANCH   6  13
ATOM     13  N   LIG d   1      -5.112  77.239 117.512  0.00  0.00    -0.311 N 
ATOM     14  C   LIG d   1      -4.123  77.511 116.662  0.00  0.00     0.210 C 
ATOM     15  C   LIG d   1      -2.794  76.816 116.973  0.00  0.00     0.109 C 
ATOM     16  O   LIG d   1      -4.212  78.286 115.698  0.00  0.00    -0.276 OA
ATOM     17  H   LIG d   1      -4.943  76.625 118.284  0.00  0.00     0.149 HD
ENDBRANCH   6  13
BRANCH   5  18
ATOM     18  N   LIG d   1      -5.821  80.203 117.728  0.00  0.00     0.381 N 
ATOM     19  H   LIG d   1      -5.881  80.282 116.733  0.00  0.00    -0.090 HD
ATOM     20  H   LIG d   1      -4.867  80.003 117.972  0.00  0.00    -0.090 HD
ATOM     21  H   LIG d   1      -6.108  81.057 118.154  0.00  0.00    -0.090 HD
ENDBRANCH   5  18
BRANCH   3  22
ATOM     22  C   LIG d   1     -10.279  78.900 118.898  0.00  0.00     0.382 C 
ATOM     23  O   LIG d   1     -11.274  78.151 118.752  0.00  0.00    -0.241 OA
ATOM     24  O   LIG d   1     -10.412  79.990 119.486  0.00  0.00    -0.241 OA
ENDBRANCH   3  22
TORSDOF 7
ENDMDL
MODEL 3
REMARK VINA RESULT:      -5.6      2.176      3.116
REMARK  7 active torsions:
REMARK  status: ('A' for Active; 'I' for Inactive)
REMARK    1  A    between atoms: C_2  and  C_3 
REMARK    2  A    between atoms: C_3  and  O_6 
REMARK    3  A    between atoms: C_3  and  C_4 
REMARK    4  A    between atoms: C_7  and  O_6 
REMARK    5  A    between atoms: C_9  and  C_10 
REMARK    6  A    between atoms: N_15  and  C_14 
REMARK    7  A    between atoms: N_20  and  C_19 
REMARK       I    between atoms: C_22  and  N_20 
ROOT
ATOM      1  C   LIG d   1      -6.931  78.342 117.902  0.00  0.00     0.161 C 
ATOM      2  C   LIG d   1      -8.313  78.230 118.129  0.00  0.00     0.016 C 
ATOM      3  C   LIG d   1      -9.135  79.325 118.483  0.00  0.00     0.038 C 
ATOM      4  C   LIG d   1      -8.653  80.642 118.487  0.00  0.00     0.028 C 
ATOM      5  C   LIG d   1      -7.155  80.739 118.758  0.00  0.00    -0.047 C 
ATOM      6  C   LIG d   1      -6.409  79.790 117.794  0.00  0.00     0.091 C 
ENDROOT
BRANCH   1   7
ATOM      7  O   LIG d   1      -6.566  77.588 116.730  0.00  0.00    -0.368 OA
BRANCH   7   8
ATOM      8  C   LIG d   1      -6.685  76.148 116.835  0.00  0.00     0.119 C 
BRANCH   8   9
ATOM      9  C   LIG d   1      -5.360  75.536 116.340  0.00  0.00     0.028 C 
ATOM     10  C   LIG d   1      -5.555  74.626 115.116  0.00  0.00     0.006 C 
ENDBRANCH   8   9
BRANCH   8  11
ATOM     11  C   LIG d   1      -7.760  75.607 115.887  0.00  0.00     0.028 C 
ATOM     12  C   LIG d   1      -8.995  75.073 116.630  0.00  0.00     0.006 C 
ENDBRANCH   8  11
ENDBRANCH   7   8
ENDBRANCH   1   7
BRANCH   6  13
ATOM     13  N   LIG d   1      -4.945  79.760 118.048  0.00  0.00    -0.311 N 
ATOM     14  C   LIG d   1      -4.031  79.898 117.089  0.00  0.00     0.210 C 
ATOM     15  C   LIG d   1      -2.577  79.817 117.564  0.00  0.00     0.109 C 
ATOM     16  O   LIG d   1      -4.287  80.114 115.894  0.00  0.00    -0.276 OA
ATOM     17  H   LIG d   1      -4.649  79.621 118.994  0.00  0.00     0.149 HD
ENDBRANCH   6  13
BRANCH   5  18
ATOM     18  N   LIG d   1      -6.764  82.152 118.598  0.00  0.00     0.381 N 
ATOM     19  H   LIG d   1      -6.040  82.379 119.250  0.00  0.00    -0.090 HD
ATOM     20  H   LIG d   1      -7.559  82.734 118.793  0.00  0.00    -0.090 HD
ATOM     21  H   LIG d   1      -6.445  82.314 117.668  0.00  0.00    -0.090 HD
ENDBRANCH   5  18
BRANCH   3  22
ATOM     22  C   LIG d   1     -10.445  79.101 118.877  0.00  0.00     0.382 C 
ATOM     23  O   LIG d   1     -11.014  79.909 119.651  0.00  0.00    -0.241 OA
ATOM     24  O   LIG d   1     -11.052  78.079 118.504  0.00  0.00    -0.241 OA
ENDBRANCH   3  22
TORSDOF 7
ENDMDL
MODEL 4
REMARK VINA RESULT:      -5.4     13.971     16.463
REMARK  7 active torsions:
REMARK  status: ('A' for Active; 'I' for Inactive)
REMARK    1  A    between atoms: C_2  and  C_3 
REMARK    2  A    between atoms: C_3  and  O_6 
REMARK    3  A    between atoms: C_3  and  C_4 
REMARK    4  A    between atoms: C_7  and  O_6 
REMARK    5  A    between atoms: C_9  and  C_10 
REMARK    6  A    between atoms: N_15  and  C_14 
REMARK    7  A    between atoms: N_20  and  C_19 
REMARK       I    between atoms: C_22  and  N_20 
ROOT
ATOM      1  C   LIG d   1      -5.217  90.958 118.960  0.00  0.00     0.161 C 
ATOM      2  C   LIG d   1      -5.631  90.116 117.915  0.00  0.00     0.016 C 
ATOM      3  C   LIG d   1      -6.480  90.537 116.866  0.00  0.00     0.038 C 
ATOM      4  C   LIG d   1      -6.855  91.879 116.709  0.00  0.00     0.028 C 
ATOM      5  C   LIG d   1      -6.874  92.660 118.018  0.00  0.00    -0.047 C 
ATOM      6  C   LIG d   1      -5.525  92.455 118.745  0.00  0.00     0.091 C 
ENDROOT
BRANCH   1   7
ATOM      7  O   LIG d   1      -3.811  90.768 119.214  0.00  0.00    -0.368 OA
BRANCH   7   8
ATOM      8  C   LIG d   1      -2.941  90.830 118.058  0.00  0.00     0.119 C 
BRANCH   8   9
ATOM      9  C   LIG d   1      -1.972  89.635 118.143  0.00  0.00     0.028 C 
ATOM     10  C   LIG d   1      -2.472  88.541 119.102  0.00  0.00     0.006 C 
ENDBRANCH   8   9
BRANCH   8  11
ATOM     11  C   LIG d   1      -2.051  92.076 118.097  0.00  0.00     0.028 C 
ATOM     12  C   LIG d   1      -1.740  92.542 119.529  0.00  0.00     0.006 C 
ENDBRANCH   8  11
ENDBRANCH   7   8
ENDBRANCH   1   7
BRANCH   6  13
ATOM     13  N   LIG d   1      -5.492  93.117 120.075  0.00  0.00    -0.311 N 
ATOM     14  C   LIG d   1      -4.965  94.323 120.281  0.00  0.00     0.210 C 
ATOM     15  C   LIG d   1      -5.016  94.812 121.732  0.00  0.00     0.109 C 
ATOM     16  O   LIG d   1      -4.490  95.048 119.394  0.00  0.00    -0.276 OA
ATOM     17  H   LIG d   1      -5.884  92.612 120.846  0.00  0.00     0.149 HD
ENDBRANCH   6  13
BRANCH   5  18
ATOM     18  N   LIG d   1      -7.145  94.073 117.691  0.00  0.00     0.381 N 
ATOM     19  H   LIG d   1      -7.131  94.623 118.526  0.00  0.00    -0.090 HD
ATOM     20  H   LIG d   1      -8.061  94.142 117.284  0.00  0.00    -0.090 HD
ATOM     21  H   LIG d   1      -6.462  94.411 117.049  0.00  0.00    -0.090 HD
ENDBRANCH   5  18
BRANCH   3  22
ATOM     22  C   LIG d   1      -6.997  89.601 115.983  0.00  0.00     0.382 C 
ATOM     23  O   LIG d   1      -7.563  88.571 116.421  0.00  0.00    -0.241 OA
ATOM     24  O   LIG d   1      -6.865  89.752 114.754  0.00  0.00    -0.241 OA
ENDBRANCH   3  22
TORSDOF 7
ENDMDL
MODEL 5
REMARK VINA RESULT:      -5.4     13.970     17.276
REMARK  7 active torsions:
REMARK  status: ('A' for Active; 'I' for Inactive)
REMARK    1  A    between atoms: C_2  and  C_3 
REMARK    2  A    between atoms: C_3  and  O_6 
REMARK    3  A    between atoms: C_3  and  C_4 
REMARK    4  A    between atoms: C_7  and  O_6 
REMARK    5  A    between atoms: C_9  and  C_10 
REMARK    6  A    between atoms: N_15  and  C_14 
REMARK    7  A    between atoms: N_20  and  C_19 
REMARK       I    between atoms: C_22  and  N_20 
ROOT
ATOM      1  C   LIG d   1      -6.336  92.725 118.315  0.00  0.00     0.161 C 
ATOM      2  C   LIG d   1      -6.932  91.605 117.712  0.00  0.00     0.016 C 
ATOM      3  C   LIG d   1      -6.236  90.405 117.441  0.00  0.00     0.038 C 
ATOM      4  C   LIG d   1      -4.927  90.188 117.894  0.00  0.00     0.028 C 
ATOM      5  C   LIG d   1      -4.123  91.473 118.060  0.00  0.00    -0.047 C 
ATOM      6  C   LIG d   1      -4.939  92.468 118.917  0.00  0.00     0.091 C 
ENDROOT
BRANCH   1   7
ATOM      7  O   LIG d   1      -7.220  93.271 119.315  0.00  0.00    -0.368 OA
BRANCH   7   8
ATOM      8  C   LIG d   1      -8.357  94.020 118.820  0.00  0.00     0.119 C 
BRANCH   8   9
ATOM      9  C   LIG d   1      -7.831  95.376 118.309  0.00  0.00     0.028 C 
ATOM     10  C   LIG d   1      -7.123  96.183 119.411  0.00  0.00     0.006 C 
ENDBRANCH   8   9
BRANCH   8  11
ATOM     11  C   LIG d   1      -9.332  94.363 119.949  0.00  0.00     0.028 C 
ATOM     12  C   LIG d   1      -9.570  93.186 120.909  0.00  0.00     0.006 C 
ENDBRANCH   8  11
ENDBRANCH   7   8
ENDBRANCH   1   7
BRANCH   6  13
ATOM     13  N   LIG d   1      -4.261  93.783 119.058  0.00  0.00    -0.311 N 
ATOM     14  C   LIG d   1      -3.479  94.099 120.089  0.00  0.00     0.210 C 
ATOM     15  C   LIG d   1      -2.895  95.514 120.048  0.00  0.00     0.109 C 
ATOM     16  O   LIG d   1      -3.188  93.329 121.017  0.00  0.00    -0.276 OA
ATOM     17  H   LIG d   1      -4.417  94.457 118.333  0.00  0.00     0.149 HD
ENDBRANCH   6  13
BRANCH   5  18
ATOM     18  N   LIG d   1      -2.828  91.114 118.667  0.00  0.00     0.381 N 
ATOM     19  H   LIG d   1      -2.616  90.156 118.472  0.00  0.00    -0.090 HD
ATOM     20  H   LIG d   1      -2.894  91.226 119.664  0.00  0.00    -0.090 HD
ATOM     21  H   LIG d   1      -2.107  91.700 118.307  0.00  0.00    -0.090 HD
ENDBRANCH   5  18
BRANCH   3  22
ATOM     22  C   LIG d   1      -6.839  89.420 116.673  0.00  0.00     0.382 C 
ATOM     23  O   LIG d   1      -6.219  88.909 115.709  0.00  0.00    -0.241 OA
ATOM     24  O   LIG d   1      -8.011  89.066 116.905  0.00  0.00    -0.241 OA
ENDBRANCH   3  22
TORSDOF 7
ENDMDL
MODEL 6
REMARK VINA RESULT:      -4.9      1.930      4.959
REMARK  7 active torsions:
REMARK  status: ('A' for Active; 'I' for Inactive)
REMARK    1  A    between atoms: C_2  and  C_3 
REMARK    2  A    between atoms: C_3  and  O_6 
REMARK    3  A    between atoms: C_3  and  C_4 
REMARK    4  A    between atoms: C_7  and  O_6 
REMARK    5  A    between atoms: C_9  and  C_10 
REMARK    6  A    between atoms: N_15  and  C_14 
REMARK    7  A    between atoms: N_20  and  C_19 
REMARK       I    between atoms: C_22  and  N_20 
ROOT
ATOM      1  C   LIG d   1      -8.180  76.555 117.352  0.00  0.00     0.161 C 
ATOM      2  C   LIG d   1      -9.171  75.561 117.400  0.00  0.00     0.016 C 
ATOM      3  C   LIG d   1      -8.910  74.190 117.171  0.00  0.00     0.038 C 
ATOM      4  C   LIG d   1      -7.605  73.698 117.026  0.00  0.00     0.028 C 
ATOM      5  C   LIG d   1      -6.628  74.728 116.468  0.00  0.00    -0.047 C 
ATOM      6  C   LIG d   1      -6.732  76.024 117.305  0.00  0.00     0.091 C 
ENDROOT
BRANCH   1   7
ATOM      7  O   LIG d   1      -8.345  77.463 118.459  0.00  0.00    -0.368 OA
BRANCH   7   8
ATOM      8  C   LIG d   1      -9.399  78.448 118.324  0.00  0.00     0.119 C 
BRANCH   8   9
ATOM      9  C   LIG d   1      -8.734  79.838 118.309  0.00  0.00     0.028 C 
ATOM     10  C   LIG d   1      -7.272  79.795 118.782  0.00  0.00     0.006 C 
ENDBRANCH   8   9
BRANCH   8  11
ATOM     11  C   LIG d   1     -10.318  78.452 119.550  0.00  0.00     0.028 C 
ATOM     12  C   LIG d   1     -10.837  79.855 119.901  0.00  0.00     0.006 C 
ENDBRANCH   8  11
ENDBRANCH   7   8
ENDBRANCH   1   7
BRANCH   6  13
ATOM     13  N   LIG d   1      -5.870  77.112 116.775  0.00  0.00    -0.311 N 
ATOM     14  C   LIG d   1      -4.644  77.363 117.229  0.00  0.00     0.210 C 
ATOM     15  C   LIG d   1      -3.935  78.543 116.558  0.00  0.00     0.109 C 
ATOM     16  O   LIG d   1      -4.064  76.700 118.102  0.00  0.00    -0.276 OA
ATOM     17  H   LIG d   1      -6.251  77.679 116.043  0.00  0.00     0.149 HD
ENDBRANCH   6  13
BRANCH   5  18
ATOM     18  N   LIG d   1      -5.281  74.127 116.498  0.00  0.00     0.381 N 
ATOM     19  H   LIG d   1      -5.323  73.222 116.924  0.00  0.00    -0.090 HD
ATOM     20  H   LIG d   1      -4.678  74.709 117.053  0.00  0.00    -0.090 HD
ATOM     21  H   LIG d   1      -4.921  74.050 115.573  0.00  0.00    -0.090 HD
ENDBRANCH   5  18
BRANCH   3  22
ATOM     22  C   LIG d   1      -9.967  73.301 117.045  0.00  0.00     0.382 C 
ATOM     23  O   LIG d   1     -11.103  73.720 116.718  0.00  0.00    -0.241 OA
ATOM     24  O   LIG d   1      -9.808  72.092 117.297  0.00  0.00    -0.241 OA
ENDBRANCH   3  22
TORSDOF 7
ENDMDL
MODEL 7
REMARK VINA RESULT:      -4.8      2.331      5.777
REMARK  7 active torsions:
REMARK  status: ('A' for Active; 'I' for Inactive)
REMARK    1  A    between atoms: C_2  and  C_3 
REMARK    2  A    between atoms: C_3  and  O_6 
REMARK    3  A    between atoms: C_3  and  C_4 
REMARK    4  A    between atoms: C_7  and  O_6 
REMARK    5  A    between atoms: C_9  and  C_10 
REMARK    6  A    between atoms: N_15  and  C_14 
REMARK    7  A    between atoms: N_20  and  C_19 
REMARK       I    between atoms: C_22  and  N_20 
ROOT
ATOM      1  C   LIG d   1      -5.915  77.019 117.178  0.00  0.00     0.161 C 
ATOM      2  C   LIG d   1      -6.391  75.719 116.940  0.00  0.00     0.016 C 
ATOM      3  C   LIG d   1      -7.724  75.320 117.192  0.00  0.00     0.038 C 
ATOM      4  C   LIG d   1      -8.716  76.241 117.559  0.00  0.00     0.028 C 
ATOM      5  C   LIG d   1      -8.170  77.459 118.296  0.00  0.00    -0.047 C 
ATOM      6  C   LIG d   1      -7.010  78.065 117.473  0.00  0.00     0.091 C 
ENDROOT
BRANCH   1   7
ATOM      7  O   LIG d   1      -5.096  77.450 116.072  0.00  0.00    -0.368 OA
BRANCH   7   8
ATOM      8  C   LIG d   1      -3.675  77.198 116.196  0.00  0.00     0.119 C 
BRANCH   8   9
ATOM      9  C   LIG d   1      -3.025  78.478 116.757  0.00  0.00     0.028 C 
ATOM     10  C   LIG d   1      -3.472  79.742 116.003  0.00  0.00     0.006 C 
ENDBRANCH   8   9
BRANCH   8  11
ATOM     11  C   LIG d   1      -3.026  76.981 114.825  0.00  0.00     0.028 C 
ATOM     12  C   LIG d   1      -1.597  76.425 114.924  0.00  0.00     0.006 C 
ENDBRANCH   8  11
ENDBRANCH   7   8
ENDBRANCH   1   7
BRANCH   6  13
ATOM     13  N   LIG d   1      -6.363  79.211 118.163  0.00  0.00    -0.311 N 
ATOM     14  C   LIG d   1      -6.712  80.481 117.961  0.00  0.00     0.210 C 
ATOM     15  C   LIG d   1      -5.904  81.509 118.759  0.00  0.00     0.109 C 
ATOM     16  O   LIG d   1      -7.635  80.851 117.220  0.00  0.00    -0.276 OA
ATOM     17  H   LIG d   1      -5.625  78.999 118.805  0.00  0.00     0.149 HD
ENDBRANCH   6  13
BRANCH   5  18
ATOM     18  N   LIG d   1      -9.289  78.399 118.496  0.00  0.00     0.381 N 
ATOM     19  H   LIG d   1      -9.717  78.232 119.385  0.00  0.00    -0.090 HD
ATOM     20  H   LIG d   1      -9.977  78.242 117.781  0.00  0.00    -0.090 HD
ATOM     21  H   LIG d   1      -8.959  79.338 118.449  0.00  0.00    -0.090 HD
ENDBRANCH   5  18
BRANCH   3  22
ATOM     22  C   LIG d   1      -8.066  73.979 117.116  0.00  0.00     0.382 C 
ATOM     23  O   LIG d   1      -7.205  73.131 116.779  0.00  0.00    -0.241 OA
ATOM     24  O   LIG d   1      -9.236  73.612 117.336  0.00  0.00    -0.241 OA
ENDBRANCH   3  22
TORSDOF 7
ENDMDL
MODEL 8
REMARK VINA RESULT:      -4.8     14.349     16.535
REMARK  7 active torsions:
REMARK  status: ('A' for Active; 'I' for Inactive)
REMARK    1  A    between atoms: C_2  and  C_3 
REMARK    2  A    between atoms: C_3  and  O_6 
REMARK    3  A    between atoms: C_3  and  C_4 
REMARK    4  A    between atoms: C_7  and  O_6 
REMARK    5  A    between atoms: C_9  and  C_10 
REMARK    6  A    between atoms: N_15  and  C_14 
REMARK    7  A    between atoms: N_20  and  C_19 
REMARK       I    between atoms: C_22  and  N_20 
ROOT
ATOM      1  C   LIG d   1      -4.315  92.359 118.923  0.00  0.00     0.161 C 
ATOM      2  C   LIG d   1      -5.439  93.198 119.004  0.00  0.00     0.016 C 
ATOM      3  C   LIG d   1      -6.620  92.992 118.254  0.00  0.00     0.038 C 
ATOM      4  C   LIG d   1      -6.814  91.839 117.480  0.00  0.00     0.028 C 
ATOM      5  C   LIG d   1      -5.514  91.223 116.974  0.00  0.00    -0.047 C 
ATOM      6  C   LIG d   1      -4.550  91.035 118.168  0.00  0.00     0.091 C 
ENDROOT
BRANCH   1   7
ATOM      7  O   LIG d   1      -3.804  92.098 120.245  0.00  0.00    -0.368 OA
BRANCH   7   8
ATOM      8  C   LIG d   1      -4.693  92.411 121.346  0.00  0.00     0.119 C 
BRANCH   8   9
ATOM      9  C   LIG d   1      -3.882  93.211 122.383  0.00  0.00     0.028 C 
ATOM     10  C   LIG d   1      -3.645  94.666 121.947  0.00  0.00     0.006 C 
ENDBRANCH   8   9
BRANCH   8  11
ATOM     11  C   LIG d   1      -5.145  91.142 122.075  0.00  0.00     0.028 C 
ATOM     12  C   LIG d   1      -6.555  91.269 122.674  0.00  0.00     0.006 C 
ENDBRANCH   8  11
ENDBRANCH   7   8
ENDBRANCH   1   7
BRANCH   6  13
ATOM     13  N   LIG d   1      -3.223  90.515 117.748  0.00  0.00    -0.311 N 
ATOM     14  C   LIG d   1      -2.742  89.334 118.135  0.00  0.00     0.210 C 
ATOM     15  C   LIG d   1      -1.345  88.999 117.603  0.00  0.00     0.109 C 
ATOM     16  O   LIG d   1      -3.353  88.519 118.841  0.00  0.00    -0.276 OA
ATOM     17  H   LIG d   1      -2.673  91.099 117.149  0.00  0.00     0.149 HD
ENDBRANCH   6  13
BRANCH   5  18
ATOM     18  N   LIG d   1      -5.854  89.955 116.300  0.00  0.00     0.381 N 
ATOM     19  H   LIG d   1      -6.461  89.414 116.883  0.00  0.00    -0.090 HD
ATOM     20  H   LIG d   1      -5.011  89.430 116.150  0.00  0.00    -0.090 HD
ATOM     21  H   LIG d   1      -6.298  90.141 115.428  0.00  0.00    -0.090 HD
ENDBRANCH   5  18
BRANCH   3  22
ATOM     22  C   LIG d   1      -7.606  93.967 118.244  0.00  0.00     0.382 C 
ATOM     23  O   LIG d   1      -8.815  93.635 118.282  0.00  0.00    -0.241 OA
ATOM     24  O   LIG d   1      -7.303  95.171 118.152  0.00  0.00    -0.241 OA
ENDBRANCH   3  22
TORSDOF 7
ENDMDL
MODEL 9
REMARK VINA RESULT:      -4.7      2.521      5.106
REMARK  7 active torsions:
REMARK  status: ('A' for Active; 'I' for Inactive)
REMARK    1  A    between atoms: C_2  and  C_3 
REMARK    2  A    between atoms: C_3  and  O_6 
REMARK    3  A    between atoms: C_3  and  C_4 
REMARK    4  A    between atoms: C_7  and  O_6 
REMARK    5  A    between atoms: C_9  and  C_10 
REMARK    6  A    between atoms: N_15  and  C_14 
REMARK    7  A    between atoms: N_20  and  C_19 
REMARK       I    between atoms: C_22  and  N_20 
ROOT
ATOM      1  C   LIG d   1      -6.270  77.800 117.406  0.00  0.00     0.161 C 
ATOM      2  C   LIG d   1      -5.033  78.124 116.824  0.00  0.00     0.016 C 
ATOM      3  C   LIG d   1      -4.486  79.428 116.835  0.00  0.00     0.038 C 
ATOM      4  C   LIG d   1      -5.073  80.472 117.566  0.00  0.00     0.028 C 
ATOM      5  C   LIG d   1      -6.578  80.313 117.748  0.00  0.00    -0.047 C 
ATOM      6  C   LIG d   1      -6.871  78.901 118.304  0.00  0.00     0.091 C 
ENDROOT
BRANCH   1   7
ATOM      7  O   LIG d   1      -6.156  76.563 118.138  0.00  0.00    -0.368 OA
BRANCH   7   8
ATOM      8  C   LIG d   1      -6.724  75.392 117.502  0.00  0.00     0.119 C 
BRANCH   8   9
ATOM      9  C   LIG d   1      -5.592  74.690 116.726  0.00  0.00     0.028 C 
ATOM     10  C   LIG d   1      -5.937  74.488 115.241  0.00  0.00     0.006 C 
ENDBRANCH   8   9
BRANCH   8  11
ATOM     11  C   LIG d   1      -7.761  75.780 116.444  0.00  0.00     0.028 C 
ATOM     12  C   LIG d   1      -9.195  75.404 116.850  0.00  0.00     0.006 C 
ENDBRANCH   8  11
ENDBRANCH   7   8
ENDBRANCH   1   7
BRANCH   6  13
ATOM     13  N   LIG d   1      -8.327  78.632 118.432  0.00  0.00    -0.311 N 
ATOM     14  C   LIG d   1      -9.024  78.881 119.540  0.00  0.00     0.210 C 
ATOM     15  C   LIG d   1     -10.508  78.511 119.466  0.00  0.00     0.109 C 
ATOM     16  O   LIG d   1      -8.560  79.403 120.565  0.00  0.00    -0.276 OA
ATOM     17  H   LIG d   1      -8.790  78.238 117.637  0.00  0.00     0.149 HD
ENDBRANCH   6  13
BRANCH   5  18
ATOM     18  N   LIG d   1      -7.036  81.393 118.642  0.00  0.00     0.381 N 
ATOM     19  H   LIG d   1      -7.639  81.017 119.346  0.00  0.00    -0.090 HD
ATOM     20  H   LIG d   1      -7.558  82.062 118.104  0.00  0.00    -0.090 HD
ATOM     21  H   LIG d   1      -6.253  81.838 119.068  0.00  0.00    -0.090 HD
ENDBRANCH   5  18
BRANCH   3  22
ATOM     22  C   LIG d   1      -3.361  79.708 116.075  0.00  0.00     0.382 C 
ATOM     23  O   LIG d   1      -3.472  79.922 114.844  0.00  0.00    -0.241 OA
ATOM     24  O   LIG d   1      -2.230  79.705 116.597  0.00  0.00    -0.241 OA
ENDBRANCH   3  22
TORSDOF 7
ENDMDL
