MODEL 1
REMARK VINA RESULT:      -6.0      0.000      0.000
REMARK  7 active torsions:
REMARK  status: ('A' for Active; 'I' for Inactive)
REMARK    1  A    between atoms: C_2  and  C_3 
REMARK    2  A    between atoms: C_3  and  O_6 
REMARK    3  A    between atoms: C_3  and  C_4 
REMARK    4  A    between atoms: C_7  and  O_6 
REMARK    5  A    between atoms: C_9  and  C_10 
REMARK    6  A    between atoms: N_15  and  C_14 
REMARK    7  A    between atoms: N_20  and  C_19 
REMARK       I    between atoms: C_22  and  N_20 
ROOT
ATOM      1  C   LIG d   1      -7.967  76.016 117.856  0.00  0.00     0.161 C 
ATOM      2  C   LIG d   1      -9.058  76.785 118.293  0.00  0.00     0.016 C 
ATOM      3  C   LIG d   1      -9.027  78.196 118.390  0.00  0.00     0.038 C 
ATOM      4  C   LIG d   1      -7.945  78.948 117.908  0.00  0.00     0.028 C 
ATOM      5  C   LIG d   1      -6.623  78.187 117.927  0.00  0.00    -0.047 C 
ATOM      6  C   LIG d   1      -6.817  76.826 117.221  0.00  0.00     0.091 C 
ENDROOT
BRANCH   1   7
ATOM      7  O   LIG d   1      -8.423  74.995 116.945  0.00  0.00    -0.368 OA
BRANCH   7   8
ATOM      8  C   LIG d   1      -8.502  73.652 117.482  0.00  0.00     0.119 C 
BRANCH   8   9
ATOM      9  C   LIG d   1      -7.411  72.812 116.789  0.00  0.00     0.028 C 
ATOM     10  C   LIG d   1      -7.842  71.352 116.573  0.00  0.00     0.006 C 
ENDBRANCH   8   9
BRANCH   8  11
ATOM     11  C   LIG d   1      -9.827  72.980 117.110  0.00  0.00     0.028 C 
ATOM     12  C   LIG d   1     -10.836  73.957 116.487  0.00  0.00     0.006 C 
ENDBRANCH   8  11
ENDBRANCH   7   8
ENDBRANCH   1   7
BRANCH   6  13
ATOM     13  N   LIG d   1      -5.594  75.983 117.269  0.00  0.00    -0.311 N 
ATOM     14  C   LIG d   1      -4.904  75.631 116.185  0.00  0.00     0.210 C 
ATOM     15  C   LIG d   1      -3.686  74.742 116.455  0.00  0.00     0.109 C 
ATOM     16  O   LIG d   1      -5.166  75.996 115.030  0.00  0.00    -0.276 OA
ATOM     17  H   LIG d   1      -5.292  75.668 118.170  0.00  0.00     0.149 HD
ENDBRANCH   6  13
BRANCH   5  18
ATOM     18  N   LIG d   1      -5.611  79.038 117.272  0.00  0.00     0.381 N 
ATOM     19  H   LIG d   1      -6.062  79.777 116.772  0.00  0.00    -0.090 HD
ATOM     20  H   LIG d   1      -5.094  78.481 116.614  0.00  0.00    -0.090 HD
ATOM     21  H   LIG d   1      -4.992  79.418 117.955  0.00  0.00    -0.090 HD
ENDBRANCH   5  18
BRANCH   3  22
ATOM     22  C   LIG d   1     -10.070  78.865 119.010  0.00  0.00     0.382 C 
ATOM     23  O   LIG d   1     -11.210  78.344 119.056  0.00  0.00    -0.241 OA
ATOM     24  O   LIG d   1      -9.897  80.004 119.485  0.00  0.00    -0.241 OA
ENDBRANCH   3  22
TORSDOF 7
ENDMDL
MODEL 2
REMARK VINA RESULT:      -5.8     13.471     15.862
REMARK  7 active torsions:
REMARK  status: ('A' for Active; 'I' for Inactive)
REMARK    1  A    between atoms: C_2  and  C_3 
REMARK    2  A    between atoms: C_3  and  O_6 
REMARK    3  A    between atoms: C_3  and  C_4 
REMARK    4  A    between atoms: C_7  and  O_6 
REMARK    5  A    between atoms: C_9  and  C_10 
REMARK    6  A    between atoms: N_15  and  C_14 
REMARK    7  A    between atoms: N_20  and  C_19 
REMARK       I    between atoms: C_22  and  N_20 
ROOT
ATOM      1  C   LIG d   1       2.959  86.072 111.409  0.00  0.00     0.161 C 
ATOM      2  C   LIG d   1       4.025  86.687 112.085  0.00  0.00     0.016 C 
ATOM      3  C   LIG d   1       3.855  87.738 113.014  0.00  0.00     0.038 C 
ATOM      4  C   LIG d   1       2.584  88.147 113.447  0.00  0.00     0.028 C 
ATOM      5  C   LIG d   1       1.486  87.900 112.418  0.00  0.00    -0.047 C 
ATOM      6  C   LIG d   1       1.558  86.428 111.950  0.00  0.00     0.091 C 
ENDROOT
BRANCH   1   7
ATOM      7  O   LIG d   1       3.144  84.642 111.402  0.00  0.00    -0.368 OA
BRANCH   7   8
ATOM      8  C   LIG d   1       2.893  83.973 110.141  0.00  0.00     0.119 C 
BRANCH   8   9
ATOM      9  C   LIG d   1       2.081  82.700 110.447  0.00  0.00     0.028 C 
ATOM     10  C   LIG d   1       0.782  82.621 109.627  0.00  0.00     0.006 C 
ENDBRANCH   8   9
BRANCH   8  11
ATOM     11  C   LIG d   1       4.195  83.481 109.503  0.00  0.00     0.028 C 
ATOM     12  C   LIG d   1       4.225  81.957 109.310  0.00  0.00     0.006 C 
ENDBRANCH   8  11
ENDBRANCH   7   8
ENDBRANCH   1   7
BRANCH   6  13
ATOM     13  N   LIG d   1       0.572  86.124 110.881  0.00  0.00    -0.311 N 
ATOM     14  C   LIG d   1      -0.658  85.675 111.124  0.00  0.00     0.210 C 
ATOM     15  C   LIG d   1      -1.507  85.406 109.877  0.00  0.00     0.109 C 
ATOM     16  O   LIG d   1      -1.137  85.503 112.255  0.00  0.00    -0.276 OA
ATOM     17  H   LIG d   1       0.867  86.265 109.934  0.00  0.00     0.149 HD
ENDBRANCH   6  13
BRANCH   5  18
ATOM     18  N   LIG d   1       0.198  88.243 113.050  0.00  0.00     0.381 N 
ATOM     19  H   LIG d   1      -0.149  87.456 113.561  0.00  0.00    -0.090 HD
ATOM     20  H   LIG d   1      -0.467  88.470 112.331  0.00  0.00    -0.090 HD
ATOM     21  H   LIG d   1       0.314  89.020 113.662  0.00  0.00    -0.090 HD
ENDBRANCH   5  18
BRANCH   3  22
ATOM     22  C   LIG d   1       4.963  88.420 113.492  0.00  0.00     0.382 C 
ATOM     23  O   LIG d   1       5.220  88.418 114.720  0.00  0.00    -0.241 OA
ATOM     24  O   LIG d   1       5.685  89.075 112.716  0.00  0.00    -0.241 OA
ENDBRANCH   3  22
TORSDOF 7
ENDMDL
MODEL 3
REMARK VINA RESULT:      -5.6      2.100      2.834
REMARK  7 active torsions:
REMARK  status: ('A' for Active; 'I' for Inactive)
REMARK    1  A    between atoms: C_2  and  C_3 
REMARK    2  A    between atoms: C_3  and  O_6 
REMARK    3  A    between atoms: C_3  and  C_4 
REMARK    4  A    between atoms: C_7  and  O_6 
REMARK    5  A    between atoms: C_9  and  C_10 
REMARK    6  A    between atoms: N_15  and  C_14 
REMARK    7  A    between atoms: N_20  and  C_19 
REMARK       I    between atoms: C_22  and  N_20 
ROOT
ATOM      1  C   LIG d   1      -6.879  78.040 117.833  0.00  0.00     0.161 C 
ATOM      2  C   LIG d   1      -8.259  78.034 118.095  0.00  0.00     0.016 C 
ATOM      3  C   LIG d   1      -9.001  79.202 118.384  0.00  0.00     0.038 C 
ATOM      4  C   LIG d   1      -8.438  80.483 118.280  0.00  0.00     0.028 C 
ATOM      5  C   LIG d   1      -6.931  80.502 118.513  0.00  0.00    -0.047 C 
ATOM      6  C   LIG d   1      -6.270  79.439 117.606  0.00  0.00     0.091 C 
ENDROOT
BRANCH   1   7
ATOM      7  O   LIG d   1      -6.591  77.180 116.712  0.00  0.00    -0.368 OA
BRANCH   7   8
ATOM      8  C   LIG d   1      -6.922  75.780 116.881  0.00  0.00     0.119 C 
BRANCH   8   9
ATOM      9  C   LIG d   1      -5.731  74.956 116.356  0.00  0.00     0.028 C 
ATOM     10  C   LIG d   1      -5.859  74.628 114.859  0.00  0.00     0.006 C 
ENDBRANCH   8   9
BRANCH   8  11
ATOM     11  C   LIG d   1      -8.111  75.378 116.003  0.00  0.00     0.028 C 
ATOM     12  C   LIG d   1      -9.249  74.724 116.803  0.00  0.00     0.006 C 
ENDBRANCH   8  11
ENDBRANCH   7   8
ENDBRANCH   1   7
BRANCH   6  13
ATOM     13  N   LIG d   1      -4.805  79.333 117.832  0.00  0.00    -0.311 N 
ATOM     14  C   LIG d   1      -3.897  79.603 116.895  0.00  0.00     0.210 C 
ATOM     15  C   LIG d   1      -2.441  79.411 117.331  0.00  0.00     0.109 C 
ATOM     16  O   LIG d   1      -4.159  80.015 115.755  0.00  0.00    -0.276 OA
ATOM     17  H   LIG d   1      -4.503  79.036 118.739  0.00  0.00     0.149 HD
ENDBRANCH   6  13
BRANCH   5  18
ATOM     18  N   LIG d   1      -6.456  81.872 118.239  0.00  0.00     0.381 N 
ATOM     19  H   LIG d   1      -6.472  82.046 117.254  0.00  0.00    -0.090 HD
ATOM     20  H   LIG d   1      -5.507  81.956 118.559  0.00  0.00    -0.090 HD
ATOM     21  H   LIG d   1      -7.032  82.533 118.711  0.00  0.00    -0.090 HD
ENDBRANCH   5  18
BRANCH   3  22
ATOM     22  C   LIG d   1     -10.313  79.093 118.820  0.00  0.00     0.382 C 
ATOM     23  O   LIG d   1     -10.995  78.087 118.509  0.00  0.00    -0.241 OA
ATOM     24  O   LIG d   1     -10.837  80.008 119.483  0.00  0.00    -0.241 OA
ENDBRANCH   3  22
TORSDOF 7
ENDMDL
MODEL 4
REMARK VINA RESULT:      -5.4     15.419     17.617
REMARK  7 active torsions:
REMARK  status: ('A' for Active; 'I' for Inactive)
REMARK    1  A    between atoms: C_2  and  C_3 
REMARK    2  A    between atoms: C_3  and  O_6 
REMARK    3  A    between atoms: C_3  and  C_4 
REMARK    4  A    between atoms: C_7  and  O_6 
REMARK    5  A    between atoms: C_9  and  C_10 
REMARK    6  A    between atoms: N_15  and  C_14 
REMARK    7  A    between atoms: N_20  and  C_19 
REMARK       I    between atoms: C_22  and  N_20 
ROOT
ATOM      1  C   LIG d   1       2.828  89.012 115.641  0.00  0.00     0.161 C 
ATOM      2  C   LIG d   1       2.083  88.233 114.740  0.00  0.00     0.016 C 
ATOM      3  C   LIG d   1       2.541  87.887 113.448  0.00  0.00     0.038 C 
ATOM      4  C   LIG d   1       3.848  88.172 113.023  0.00  0.00     0.028 C 
ATOM      5  C   LIG d   1       4.454  89.393 113.707  0.00  0.00    -0.047 C 
ATOM      6  C   LIG d   1       4.300  89.239 115.237  0.00  0.00     0.091 C 
ENDROOT
BRANCH   1   7
ATOM      7  O   LIG d   1       2.753  88.438 116.961  0.00  0.00    -0.368 OA
BRANCH   7   8
ATOM      8  C   LIG d   1       1.963  89.169 117.931  0.00  0.00     0.119 C 
BRANCH   8   9
ATOM      9  C   LIG d   1       0.663  88.376 118.162  0.00  0.00     0.028 C 
ATOM     10  C   LIG d   1      -0.524  88.951 117.369  0.00  0.00     0.006 C 
ENDBRANCH   8   9
BRANCH   8  11
ATOM     11  C   LIG d   1       1.518  90.526 117.377  0.00  0.00     0.028 C 
ATOM     12  C   LIG d   1       2.136  91.711 118.136  0.00  0.00     0.006 C 
ENDBRANCH   8  11
ENDBRANCH   7   8
ENDBRANCH   1   7
BRANCH   6  13
ATOM     13  N   LIG d   1       4.791  90.429 115.980  0.00  0.00    -0.311 N 
ATOM     14  C   LIG d   1       5.565  90.350 117.061  0.00  0.00     0.210 C 
ATOM     15  C   LIG d   1       5.942  91.697 117.685  0.00  0.00     0.109 C 
ATOM     16  O   LIG d   1       6.001  89.294 117.544  0.00  0.00    -0.276 OA
ATOM     17  H   LIG d   1       4.511  91.327 115.638  0.00  0.00     0.149 HD
ENDBRANCH   6  13
BRANCH   5  18
ATOM     18  N   LIG d   1       5.861  89.493 113.275  0.00  0.00     0.381 N 
ATOM     19  H   LIG d   1       6.205  88.587 113.029  0.00  0.00    -0.090 HD
ATOM     20  H   LIG d   1       6.411  89.844 114.039  0.00  0.00    -0.090 HD
ATOM     21  H   LIG d   1       5.934  90.107 112.494  0.00  0.00    -0.090 HD
ENDBRANCH   5  18
BRANCH   3  22
ATOM     22  C   LIG d   1       1.674  87.282 112.550  0.00  0.00     0.382 C 
ATOM     23  O   LIG d   1       0.570  86.838 112.948  0.00  0.00    -0.241 OA
ATOM     24  O   LIG d   1       2.001  87.137 111.357  0.00  0.00    -0.241 OA
ENDBRANCH   3  22
TORSDOF 7
ENDMDL
MODEL 5
REMARK VINA RESULT:      -5.4     12.008     14.870
REMARK  7 active torsions:
REMARK  status: ('A' for Active; 'I' for Inactive)
REMARK    1  A    between atoms: C_2  and  C_3 
REMARK    2  A    between atoms: C_3  and  O_6 
REMARK    3  A    between atoms: C_3  and  C_4 
REMARK    4  A    between atoms: C_7  and  O_6 
REMARK    5  A    between atoms: C_9  and  C_10 
REMARK    6  A    between atoms: N_15  and  C_14 
REMARK    7  A    between atoms: N_20  and  C_19 
REMARK       I    between atoms: C_22  and  N_20 
ROOT
ATOM      1  C   LIG d   1     -16.913  65.448 114.359  0.00  0.00     0.161 C 
ATOM      2  C   LIG d   1     -16.305  66.218 113.354  0.00  0.00     0.016 C 
ATOM      3  C   LIG d   1     -15.831  67.534 113.561  0.00  0.00     0.038 C 
ATOM      4  C   LIG d   1     -15.796  68.117 114.837  0.00  0.00     0.028 C 
ATOM      5  C   LIG d   1     -16.860  67.569 115.783  0.00  0.00    -0.047 C 
ATOM      6  C   LIG d   1     -16.783  66.025 115.784  0.00  0.00     0.091 C 
ENDROOT
BRANCH   1   7
ATOM      7  O   LIG d   1     -16.405  64.100 114.317  0.00  0.00    -0.368 OA
BRANCH   7   8
ATOM      8  C   LIG d   1     -17.303  63.096 113.783  0.00  0.00     0.119 C 
BRANCH   8   9
ATOM      9  C   LIG d   1     -18.702  63.733 113.684  0.00  0.00     0.028 C 
ATOM     10  C   LIG d   1     -19.314  63.590 112.280  0.00  0.00     0.006 C 
ENDBRANCH   8   9
BRANCH   8  11
ATOM     11  C   LIG d   1     -17.461  61.919 114.750  0.00  0.00     0.028 C 
ATOM     12  C   LIG d   1     -17.946  60.637 114.055  0.00  0.00     0.006 C 
ENDBRANCH   8  11
ENDBRANCH   7   8
ENDBRANCH   1   7
BRANCH   6  13
ATOM     13  N   LIG d   1     -17.845  65.406 116.619  0.00  0.00    -0.311 N 
ATOM     14  C   LIG d   1     -17.610  64.443 117.509  0.00  0.00     0.210 C 
ATOM     15  C   LIG d   1     -18.849  63.930 118.249  0.00  0.00     0.109 C 
ATOM     16  O   LIG d   1     -16.488  63.987 117.777  0.00  0.00    -0.276 OA
ATOM     17  H   LIG d   1     -18.780  65.738 116.488  0.00  0.00     0.149 HD
ENDBRANCH   6  13
BRANCH   5  18
ATOM     18  N   LIG d   1     -16.622  68.161 117.112  0.00  0.00     0.381 N 
ATOM     19  H   LIG d   1     -16.575  69.158 117.036  0.00  0.00    -0.090 HD
ATOM     20  H   LIG d   1     -15.740  67.830 117.462  0.00  0.00    -0.090 HD
ATOM     21  H   LIG d   1     -17.353  67.903 117.737  0.00  0.00    -0.090 HD
ENDBRANCH   5  18
BRANCH   3  22
ATOM     22  C   LIG d   1     -15.422  68.296 112.478  0.00  0.00     0.382 C 
ATOM     23  O   LIG d   1     -15.858  68.038 111.330  0.00  0.00    -0.241 OA
ATOM     24  O   LIG d   1     -14.588  69.209 112.626  0.00  0.00    -0.241 OA
ENDBRANCH   3  22
TORSDOF 7
ENDMDL
MODEL 6
REMARK VINA RESULT:      -5.3     13.470     15.746
REMARK  7 active torsions:
REMARK  status: ('A' for Active; 'I' for Inactive)
REMARK    1  A    between atoms: C_2  and  C_3 
REMARK    2  A    between atoms: C_3  and  O_6 
REMARK    3  A    between atoms: C_3  and  C_4 
REMARK    4  A    between atoms: C_7  and  O_6 
REMARK    5  A    between atoms: C_9  and  C_10 
REMARK    6  A    between atoms: N_15  and  C_14 
REMARK    7  A    between atoms: N_20  and  C_19 
REMARK       I    between atoms: C_22  and  N_20 
ROOT
ATOM      1  C   LIG d   1       3.362  85.957 113.859  0.00  0.00     0.161 C 
ATOM      2  C   LIG d   1       3.639  87.304 113.572  0.00  0.00     0.016 C 
ATOM      3  C   LIG d   1       4.129  88.219 114.532  0.00  0.00     0.038 C 
ATOM      4  C   LIG d   1       4.520  87.810 115.815  0.00  0.00     0.028 C 
ATOM      5  C   LIG d   1       3.785  86.566 116.304  0.00  0.00    -0.047 C 
ATOM      6  C   LIG d   1       3.887  85.465 115.224  0.00  0.00     0.091 C 
ENDROOT
BRANCH   1   7
ATOM      7  O   LIG d   1       3.861  85.119 112.798  0.00  0.00    -0.368 OA
BRANCH   7   8
ATOM      8  C   LIG d   1       2.862  84.491 111.958  0.00  0.00     0.119 C 
BRANCH   8   9
ATOM      9  C   LIG d   1       3.221  82.996 111.850  0.00  0.00     0.028 C 
ATOM     10  C   LIG d   1       3.967  82.665 110.546  0.00  0.00     0.006 C 
ENDBRANCH   8   9
BRANCH   8  11
ATOM     11  C   LIG d   1       2.922  85.027 110.524  0.00  0.00     0.028 C 
ATOM     12  C   LIG d   1       1.564  85.544 110.024  0.00  0.00     0.006 C 
ENDBRANCH   8  11
ENDBRANCH   7   8
ENDBRANCH   1   7
BRANCH   6  13
ATOM     13  N   LIG d   1       3.123  84.243 115.586  0.00  0.00    -0.311 N 
ATOM     14  C   LIG d   1       3.689  83.050 115.759  0.00  0.00     0.210 C 
ATOM     15  C   LIG d   1       2.717  81.919 116.109  0.00  0.00     0.109 C 
ATOM     16  O   LIG d   1       4.906  82.827 115.688  0.00  0.00    -0.276 OA
ATOM     17  H   LIG d   1       2.132  84.340 115.694  0.00  0.00     0.149 HD
ENDBRANCH   6  13
BRANCH   5  18
ATOM     18  N   LIG d   1       4.386  86.170 117.592  0.00  0.00     0.381 N 
ATOM     19  H   LIG d   1       3.689  86.184 118.309  0.00  0.00    -0.090 HD
ATOM     20  H   LIG d   1       5.101  86.833 117.834  0.00  0.00    -0.090 HD
ATOM     21  H   LIG d   1       4.780  85.258 117.518  0.00  0.00    -0.090 HD
ENDBRANCH   5  18
BRANCH   3  22
ATOM     22  C   LIG d   1       4.194  89.570 114.223  0.00  0.00     0.382 C 
ATOM     23  O   LIG d   1       4.240  90.421 115.144  0.00  0.00    -0.241 OA
ATOM     24  O   LIG d   1       4.162  89.949 113.038  0.00  0.00    -0.241 OA
ENDBRANCH   3  22
TORSDOF 7
ENDMDL
MODEL 7
REMARK VINA RESULT:      -5.2      4.758      7.016
REMARK  7 active torsions:
REMARK  status: ('A' for Active; 'I' for Inactive)
REMARK    1  A    between atoms: C_2  and  C_3 
REMARK    2  A    between atoms: C_3  and  O_6 
REMARK    3  A    between atoms: C_3  and  C_4 
REMARK    4  A    between atoms: C_7  and  O_6 
REMARK    5  A    between atoms: C_9  and  C_10 
REMARK    6  A    between atoms: N_15  and  C_14 
REMARK    7  A    between atoms: N_20  and  C_19 
REMARK       I    between atoms: C_22  and  N_20 
ROOT
ATOM      1  C   LIG d   1      -3.123  78.485 115.370  0.00  0.00     0.161 C 
ATOM      2  C   LIG d   1      -3.273  79.681 114.650  0.00  0.00     0.016 C 
ATOM      3  C   LIG d   1      -2.800  79.859 113.329  0.00  0.00     0.038 C 
ATOM      4  C   LIG d   1      -2.276  78.795 112.580  0.00  0.00     0.028 C 
ATOM      5  C   LIG d   1      -1.646  77.703 113.437  0.00  0.00    -0.047 C 
ATOM      6  C   LIG d   1      -2.653  77.279 114.530  0.00  0.00     0.091 C 
ENDROOT
BRANCH   1   7
ATOM      7  O   LIG d   1      -4.351  78.170 116.055  0.00  0.00    -0.368 OA
BRANCH   7   8
ATOM      8  C   LIG d   1      -4.440  78.601 117.436  0.00  0.00     0.119 C 
BRANCH   8   9
ATOM      9  C   LIG d   1      -4.764  77.359 118.289  0.00  0.00     0.028 C 
ATOM     10  C   LIG d   1      -3.537  76.838 119.056  0.00  0.00     0.006 C 
ENDBRANCH   8   9
BRANCH   8  11
ATOM     11  C   LIG d   1      -5.618  79.557 117.647  0.00  0.00     0.028 C 
ATOM     12  C   LIG d   1      -5.181  81.027 117.753  0.00  0.00     0.006 C 
ENDBRANCH   8  11
ENDBRANCH   7   8
ENDBRANCH   1   7
BRANCH   6  13
ATOM     13  N   LIG d   1      -2.085  76.273 115.465  0.00  0.00    -0.311 N 
ATOM     14  C   LIG d   1      -2.713  75.149 115.803  0.00  0.00     0.210 C 
ATOM     15  C   LIG d   1      -1.959  74.260 116.797  0.00  0.00     0.109 C 
ATOM     16  O   LIG d   1      -3.809  74.787 115.349  0.00  0.00    -0.276 OA
ATOM     17  H   LIG d   1      -1.185  76.472 115.857  0.00  0.00     0.149 HD
ENDBRANCH   6  13
BRANCH   5  18
ATOM     18  N   LIG d   1      -1.265  76.596 112.540  0.00  0.00     0.381 N 
ATOM     19  H   LIG d   1      -1.182  76.933 111.602  0.00  0.00    -0.090 HD
ATOM     20  H   LIG d   1      -1.988  75.898 112.561  0.00  0.00    -0.090 HD
ATOM     21  H   LIG d   1      -0.401  76.199 112.836  0.00  0.00    -0.090 HD
ENDBRANCH   5  18
BRANCH   3  22
ATOM     22  C   LIG d   1      -2.814  81.123 112.759  0.00  0.00     0.382 C 
ATOM     23  O   LIG d   1      -3.890  81.763 112.677  0.00  0.00    -0.241 OA
ATOM     24  O   LIG d   1      -1.771  81.613 112.284  0.00  0.00    -0.241 OA
ENDBRANCH   3  22
TORSDOF 7
ENDMDL
MODEL 8
REMARK VINA RESULT:      -5.2     12.526     14.707
REMARK  7 active torsions:
REMARK  status: ('A' for Active; 'I' for Inactive)
REMARK    1  A    between atoms: C_2  and  C_3 
REMARK    2  A    between atoms: C_3  and  O_6 
REMARK    3  A    between atoms: C_3  and  C_4 
REMARK    4  A    between atoms: C_7  and  O_6 
REMARK    5  A    between atoms: C_9  and  C_10 
REMARK    6  A    between atoms: N_15  and  C_14 
REMARK    7  A    between atoms: N_20  and  C_19 
REMARK       I    between atoms: C_22  and  N_20 
ROOT
ATOM      1  C   LIG d   1     -16.144  66.081 115.883  0.00  0.00     0.161 C 
ATOM      2  C   LIG d   1     -15.875  67.104 114.958  0.00  0.00     0.016 C 
ATOM      3  C   LIG d   1     -16.149  66.994 113.575  0.00  0.00     0.038 C 
ATOM      4  C   LIG d   1     -16.854  65.904 113.043  0.00  0.00     0.028 C 
ATOM      5  C   LIG d   1     -16.696  64.625 113.857  0.00  0.00    -0.047 C 
ATOM      6  C   LIG d   1     -17.015  64.929 115.338  0.00  0.00     0.091 C 
ENDROOT
BRANCH   1   7
ATOM      7  O   LIG d   1     -16.739  66.640 117.071  0.00  0.00    -0.368 OA
BRANCH   7   8
ATOM      8  C   LIG d   1     -17.471  67.878 116.894  0.00  0.00     0.119 C 
BRANCH   8   9
ATOM      9  C   LIG d   1     -17.071  68.820 118.046  0.00  0.00     0.028 C 
ATOM     10  C   LIG d   1     -16.257  68.102 119.136  0.00  0.00     0.006 C 
ENDBRANCH   8   9
BRANCH   8  11
ATOM     11  C   LIG d   1     -18.979  67.661 117.053  0.00  0.00     0.028 C 
ATOM     12  C   LIG d   1     -19.318  66.378 117.828  0.00  0.00     0.006 C 
ENDBRANCH   8  11
ENDBRANCH   7   8
ENDBRANCH   1   7
BRANCH   6  13
ATOM     13  N   LIG d   1     -16.803  63.750 116.218  0.00  0.00    -0.311 N 
ATOM     14  C   LIG d   1     -17.779  62.916 116.574  0.00  0.00     0.210 C 
ATOM     15  C   LIG d   1     -17.348  61.777 117.503  0.00  0.00     0.109 C 
ATOM     16  O   LIG d   1     -18.953  62.993 116.182  0.00  0.00    -0.276 OA
ATOM     17  H   LIG d   1     -15.874  63.595 116.556  0.00  0.00     0.149 HD
ENDBRANCH   6  13
BRANCH   5  18
ATOM     18  N   LIG d   1     -17.590  63.609 113.269  0.00  0.00     0.381 N 
ATOM     19  H   LIG d   1     -18.229  63.277 113.965  0.00  0.00    -0.090 HD
ATOM     20  H   LIG d   1     -17.037  62.833 112.953  0.00  0.00    -0.090 HD
ATOM     21  H   LIG d   1     -18.095  64.001 112.505  0.00  0.00    -0.090 HD
ENDBRANCH   5  18
BRANCH   3  22
ATOM     22  C   LIG d   1     -15.679  67.964 112.703  0.00  0.00     0.382 C 
ATOM     23  O   LIG d   1     -15.774  67.792 111.464  0.00  0.00    -0.241 OA
ATOM     24  O   LIG d   1     -15.122  68.990 113.139  0.00  0.00    -0.241 OA
ENDBRANCH   3  22
TORSDOF 7
ENDMDL
MODEL 9
REMARK VINA RESULT:      -5.1     12.417     14.219
REMARK  7 active torsions:
REMARK  status: ('A' for Active; 'I' for Inactive)
REMARK    1  A    between atoms: C_2  and  C_3 
REMARK    2  A    between atoms: C_3  and  O_6 
REMARK    3  A    between atoms: C_3  and  C_4 
REMARK    4  A    between atoms: C_7  and  O_6 
REMARK    5  A    between atoms: C_9  and  C_10 
REMARK    6  A    between atoms: N_15  and  C_14 
REMARK    7  A    between atoms: N_20  and  C_19 
REMARK       I    between atoms: C_22  and  N_20 
ROOT
ATOM      1  C   LIG d   1     -16.375  66.914 115.602  0.00  0.00     0.161 C 
ATOM      2  C   LIG d   1     -15.926  67.798 114.608  0.00  0.00     0.016 C 
ATOM      3  C   LIG d   1     -15.976  67.505 113.225  0.00  0.00     0.038 C 
ATOM      4  C   LIG d   1     -16.622  66.362 112.733  0.00  0.00     0.028 C 
ATOM      5  C   LIG d   1     -16.641  65.203 113.723  0.00  0.00    -0.047 C 
ATOM      6  C   LIG d   1     -17.185  65.709 115.078  0.00  0.00     0.091 C 
ENDROOT
BRANCH   1   7
ATOM      7  O   LIG d   1     -17.135  67.636 116.592  0.00  0.00    -0.368 OA
BRANCH   7   8
ATOM      8  C   LIG d   1     -16.440  67.952 117.823  0.00  0.00     0.119 C 
BRANCH   8   9
ATOM      9  C   LIG d   1     -15.351  66.881 118.028  0.00  0.00     0.028 C 
ATOM     10  C   LIG d   1     -15.583  66.043 119.296  0.00  0.00     0.006 C 
ENDBRANCH   8   9
BRANCH   8  11
ATOM     11  C   LIG d   1     -17.367  67.825 119.035  0.00  0.00     0.028 C 
ATOM     12  C   LIG d   1     -18.851  67.991 118.670  0.00  0.00     0.006 C 
ENDBRANCH   8  11
ENDBRANCH   7   8
ENDBRANCH   1   7
BRANCH   6  13
ATOM     13  N   LIG d   1     -17.157  64.658 116.129  0.00  0.00    -0.311 N 
ATOM     14  C   LIG d   1     -18.181  64.408 116.943  0.00  0.00     0.210 C 
ATOM     15  C   LIG d   1     -17.937  63.296 117.967  0.00  0.00     0.109 C 
ATOM     16  O   LIG d   1     -19.281  64.980 116.893  0.00  0.00    -0.276 OA
ATOM     17  H   LIG d   1     -16.315  64.124 116.218  0.00  0.00     0.149 HD
ENDBRANCH   6  13
BRANCH   5  18
ATOM     18  N   LIG d   1     -17.463  64.128 113.136  0.00  0.00     0.381 N 
ATOM     19  H   LIG d   1     -18.051  64.504 112.420  0.00  0.00    -0.090 HD
ATOM     20  H   LIG d   1     -18.048  63.737 113.853  0.00  0.00    -0.090 HD
ATOM     21  H   LIG d   1     -16.875  63.419 112.754  0.00  0.00    -0.090 HD
ENDBRANCH   5  18
BRANCH   3  22
ATOM     22  C   LIG d   1     -15.340  68.343 112.322  0.00  0.00     0.382 C 
ATOM     23  O   LIG d   1     -15.599  68.257 111.097  0.00  0.00    -0.241 OA
ATOM     24  O   LIG d   1     -14.477  69.153 112.711  0.00  0.00    -0.241 OA
ENDBRANCH   3  22
TORSDOF 7
ENDMDL
