MODEL 1
REMARK VINA RESULT:      -6.5      0.000      0.000
REMARK  7 active torsions:
REMARK  status: ('A' for Active; 'I' for Inactive)
REMARK    1  A    between atoms: C_2  and  C_3 
REMARK    2  A    between atoms: C_3  and  O_6 
REMARK    3  A    between atoms: C_3  and  C_4 
REMARK    4  A    between atoms: C_7  and  O_6 
REMARK    5  A    between atoms: C_9  and  C_10 
REMARK    6  A    between atoms: N_15  and  C_14 
REMARK    7  A    between atoms: N_20  and  C_19 
REMARK       I    between atoms: C_22  and  N_20 
ROOT
ATOM      1  C   LIG d   1      -7.292  75.509 117.095  0.00  0.00     0.161 C 
ATOM      2  C   LIG d   1      -6.441  76.333 116.340  0.00  0.00     0.016 C 
ATOM      3  C   LIG d   1      -5.449  75.834 115.465  0.00  0.00     0.038 C 
ATOM      4  C   LIG d   1      -5.341  74.466 115.170  0.00  0.00     0.028 C 
ATOM      5  C   LIG d   1      -5.844  73.563 116.291  0.00  0.00    -0.047 C 
ATOM      6  C   LIG d   1      -7.263  74.017 116.703  0.00  0.00     0.091 C 
ENDROOT
BRANCH   1   7
ATOM      7  O   LIG d   1      -8.640  76.016 117.039  0.00  0.00    -0.368 OA
BRANCH   7   8
ATOM      8  C   LIG d   1      -9.095  76.749 118.203  0.00  0.00     0.119 C 
BRANCH   8   9
ATOM      9  C   LIG d   1      -8.800  78.241 117.955  0.00  0.00     0.028 C 
ATOM     10  C   LIG d   1      -9.800  79.164 118.671  0.00  0.00     0.006 C 
ENDBRANCH   8   9
BRANCH   8  11
ATOM     11  C   LIG d   1      -8.283  76.377 119.448  0.00  0.00     0.028 C 
ATOM     12  C   LIG d   1      -9.154  76.238 120.707  0.00  0.00     0.006 C 
ENDBRANCH   8  11
ENDBRANCH   7   8
ENDBRANCH   1   7
BRANCH   6  13
ATOM     13  N   LIG d   1      -7.796  73.239 117.851  0.00  0.00    -0.311 N 
ATOM     14  C   LIG d   1      -8.472  72.099 117.714  0.00  0.00     0.210 C 
ATOM     15  C   LIG d   1      -8.949  71.469 119.026  0.00  0.00     0.109 C 
ATOM     16  O   LIG d   1      -8.693  71.534 116.633  0.00  0.00    -0.276 OA
ATOM     17  H   LIG d   1      -7.635  73.609 118.767  0.00  0.00     0.149 HD
ENDBRANCH   6  13
BRANCH   5  18
ATOM     18  N   LIG d   1      -5.801  72.174 115.797  0.00  0.00     0.381 N 
ATOM     19  H   LIG d   1      -6.153  71.554 116.499  0.00  0.00    -0.090 HD
ATOM     20  H   LIG d   1      -4.846  71.926 115.606  0.00  0.00    -0.090 HD
ATOM     21  H   LIG d   1      -6.346  72.090 114.967  0.00  0.00    -0.090 HD
ENDBRANCH   5  18
BRANCH   3  22
ATOM     22  C   LIG d   1      -4.525  76.703 114.906  0.00  0.00     0.382 C 
ATOM     23  O   LIG d   1      -4.067  77.653 115.586  0.00  0.00    -0.241 OA
ATOM     24  O   LIG d   1      -4.178  76.577 113.716  0.00  0.00    -0.241 OA
ENDBRANCH   3  22
TORSDOF 7
ENDMDL
MODEL 2
REMARK VINA RESULT:      -6.1      1.582      4.724
REMARK  7 active torsions:
REMARK  status: ('A' for Active; 'I' for Inactive)
REMARK    1  A    between atoms: C_2  and  C_3 
REMARK    2  A    between atoms: C_3  and  O_6 
REMARK    3  A    between atoms: C_3  and  C_4 
REMARK    4  A    between atoms: C_7  and  O_6 
REMARK    5  A    between atoms: C_9  and  C_10 
REMARK    6  A    between atoms: N_15  and  C_14 
REMARK    7  A    between atoms: N_20  and  C_19 
REMARK       I    between atoms: C_22  and  N_20 
ROOT
ATOM      1  C   LIG d   1      -7.782  74.457 117.106  0.00  0.00     0.161 C 
ATOM      2  C   LIG d   1      -8.512  73.433 117.734  0.00  0.00     0.016 C 
ATOM      3  C   LIG d   1      -8.137  72.071 117.691  0.00  0.00     0.038 C 
ATOM      4  C   LIG d   1      -6.916  71.655 117.140  0.00  0.00     0.028 C 
ATOM      5  C   LIG d   1      -6.393  72.589 116.053  0.00  0.00    -0.047 C 
ATOM      6  C   LIG d   1      -6.389  74.037 116.595  0.00  0.00     0.091 C 
ENDROOT
BRANCH   1   7
ATOM      7  O   LIG d   1      -7.671  75.590 117.990  0.00  0.00    -0.368 OA
BRANCH   7   8
ATOM      8  C   LIG d   1      -8.450  76.758 117.629  0.00  0.00     0.119 C 
BRANCH   8   9
ATOM      9  C   LIG d   1      -7.471  77.938 117.478  0.00  0.00     0.028 C 
ATOM     10  C   LIG d   1      -8.117  79.286 117.839  0.00  0.00     0.006 C 
ENDBRANCH   8   9
BRANCH   8  11
ATOM     11  C   LIG d   1      -9.402  77.163 118.759  0.00  0.00     0.028 C 
ATOM     12  C   LIG d   1      -9.170  76.361 120.050  0.00  0.00     0.006 C 
ENDBRANCH   8  11
ENDBRANCH   7   8
ENDBRANCH   1   7
BRANCH   6  13
ATOM     13  N   LIG d   1      -5.970  75.025 115.567  0.00  0.00    -0.311 N 
ATOM     14  C   LIG d   1      -4.725  75.486 115.457  0.00  0.00     0.210 C 
ATOM     15  C   LIG d   1      -4.513  76.514 114.342  0.00  0.00     0.109 C 
ATOM     16  O   LIG d   1      -3.770  75.116 116.156  0.00  0.00    -0.276 OA
ATOM     17  H   LIG d   1      -6.675  75.355 114.938  0.00  0.00     0.149 HD
ENDBRANCH   6  13
BRANCH   5  18
ATOM     18  N   LIG d   1      -5.052  72.113 115.664  0.00  0.00     0.381 N 
ATOM     19  H   LIG d   1      -5.128  71.238 115.185  0.00  0.00    -0.090 HD
ATOM     20  H   LIG d   1      -4.504  71.971 116.495  0.00  0.00    -0.090 HD
ATOM     21  H   LIG d   1      -4.609  72.784 115.076  0.00  0.00    -0.090 HD
ENDBRANCH   5  18
BRANCH   3  22
ATOM     22  C   LIG d   1      -9.008  71.103 118.168  0.00  0.00     0.382 C 
ATOM     23  O   LIG d   1      -9.165  70.956 119.404  0.00  0.00    -0.241 OA
ATOM     24  O   LIG d   1      -9.603  70.345 117.379  0.00  0.00    -0.241 OA
ENDBRANCH   3  22
TORSDOF 7
ENDMDL
MODEL 3
REMARK VINA RESULT:      -6.0      2.481      5.963
REMARK  7 active torsions:
REMARK  status: ('A' for Active; 'I' for Inactive)
REMARK    1  A    between atoms: C_2  and  C_3 
REMARK    2  A    between atoms: C_3  and  O_6 
REMARK    3  A    between atoms: C_3  and  C_4 
REMARK    4  A    between atoms: C_7  and  O_6 
REMARK    5  A    between atoms: C_9  and  C_10 
REMARK    6  A    between atoms: N_15  and  C_14 
REMARK    7  A    between atoms: N_20  and  C_19 
REMARK       I    between atoms: C_22  and  N_20 
ROOT
ATOM      1  C   LIG d   1      -7.842  75.331 118.342  0.00  0.00     0.161 C 
ATOM      2  C   LIG d   1      -8.768  75.667 119.344  0.00  0.00     0.016 C 
ATOM      3  C   LIG d   1      -9.144  76.997 119.642  0.00  0.00     0.038 C 
ATOM      4  C   LIG d   1      -8.731  78.079 118.851  0.00  0.00     0.028 C 
ATOM      5  C   LIG d   1      -7.401  77.840 118.145  0.00  0.00    -0.047 C 
ATOM      6  C   LIG d   1      -7.466  76.490 117.395  0.00  0.00     0.091 C 
ENDROOT
BRANCH   1   7
ATOM      7  O   LIG d   1      -8.329  74.204 117.586  0.00  0.00    -0.368 OA
BRANCH   7   8
ATOM      8  C   LIG d   1      -7.747  72.918 117.914  0.00  0.00     0.119 C 
BRANCH   8   9
ATOM      9  C   LIG d   1      -7.428  72.203 116.587  0.00  0.00     0.028 C 
ATOM     10  C   LIG d   1      -6.014  72.521 116.073  0.00  0.00     0.006 C 
ENDBRANCH   8   9
BRANCH   8  11
ATOM     11  C   LIG d   1      -8.756  72.016 118.629  0.00  0.00     0.028 C 
ATOM     12  C   LIG d   1      -9.079  70.738 117.838  0.00  0.00     0.006 C 
ENDBRANCH   8  11
ENDBRANCH   7   8
ENDBRANCH   1   7
BRANCH   6  13
ATOM     13  N   LIG d   1      -6.176  76.139 116.746  0.00  0.00    -0.311 N 
ATOM     14  C   LIG d   1      -6.007  76.099 115.425  0.00  0.00     0.210 C 
ATOM     15  C   LIG d   1      -4.603  75.695 114.965  0.00  0.00     0.109 C 
ATOM     16  O   LIG d   1      -6.877  76.392 114.592  0.00  0.00    -0.276 OA
ATOM     17  H   LIG d   1      -5.407  75.918 117.348  0.00  0.00     0.149 HD
ENDBRANCH   6  13
BRANCH   5  18
ATOM     18  N   LIG d   1      -7.159  78.987 117.250  0.00  0.00     0.381 N 
ATOM     19  H   LIG d   1      -7.119  79.832 117.784  0.00  0.00    -0.090 HD
ATOM     20  H   LIG d   1      -7.923  79.061 116.601  0.00  0.00    -0.090 HD
ATOM     21  H   LIG d   1      -6.304  78.859 116.754  0.00  0.00    -0.090 HD
ENDBRANCH   5  18
BRANCH   3  22
ATOM     22  C   LIG d   1      -9.911  77.258 120.768  0.00  0.00     0.382 C 
ATOM     23  O   LIG d   1     -11.056  76.758 120.876  0.00  0.00    -0.241 OA
ATOM     24  O   LIG d   1      -9.489  78.024 121.655  0.00  0.00    -0.241 OA
ENDBRANCH   3  22
TORSDOF 7
ENDMDL
MODEL 4
REMARK VINA RESULT:      -5.9      2.753      5.970
REMARK  7 active torsions:
REMARK  status: ('A' for Active; 'I' for Inactive)
REMARK    1  A    between atoms: C_2  and  C_3 
REMARK    2  A    between atoms: C_3  and  O_6 
REMARK    3  A    between atoms: C_3  and  C_4 
REMARK    4  A    between atoms: C_7  and  O_6 
REMARK    5  A    between atoms: C_9  and  C_10 
REMARK    6  A    between atoms: N_15  and  C_14 
REMARK    7  A    between atoms: N_20  and  C_19 
REMARK       I    between atoms: C_22  and  N_20 
ROOT
ATOM      1  C   LIG d   1      -7.061  76.761 117.584  0.00  0.00     0.161 C 
ATOM      2  C   LIG d   1      -8.336  77.279 117.868  0.00  0.00     0.016 C 
ATOM      3  C   LIG d   1      -8.612  78.662 117.957  0.00  0.00     0.038 C 
ATOM      4  C   LIG d   1      -7.658  79.632 117.615  0.00  0.00     0.028 C 
ATOM      5  C   LIG d   1      -6.220  79.163 117.812  0.00  0.00    -0.047 C 
ATOM      6  C   LIG d   1      -6.033  77.805 117.099  0.00  0.00     0.091 C 
ENDROOT
BRANCH   1   7
ATOM      7  O   LIG d   1      -7.172  75.686 116.630  0.00  0.00    -0.368 OA
BRANCH   7   8
ATOM      8  C   LIG d   1      -7.041  74.345 117.163  0.00  0.00     0.119 C 
BRANCH   8   9
ATOM      9  C   LIG d   1      -6.206  73.527 116.159  0.00  0.00     0.028 C 
ATOM     10  C   LIG d   1      -5.391  74.420 115.209  0.00  0.00     0.006 C 
ENDBRANCH   8   9
BRANCH   8  11
ATOM     11  C   LIG d   1      -8.398  73.639 117.233  0.00  0.00     0.028 C 
ATOM     12  C   LIG d   1      -8.536  72.733 118.467  0.00  0.00     0.006 C 
ENDBRANCH   8  11
ENDBRANCH   7   8
ENDBRANCH   1   7
BRANCH   6  13
ATOM     13  N   LIG d   1      -4.678  77.234 117.313  0.00  0.00    -0.311 N 
ATOM     14  C   LIG d   1      -3.660  77.429 116.476  0.00  0.00     0.210 C 
ATOM     15  C   LIG d   1      -2.354  76.734 116.874  0.00  0.00     0.109 C 
ATOM     16  O   LIG d   1      -3.706  78.138 115.459  0.00  0.00    -0.276 OA
ATOM     17  H   LIG d   1      -4.544  76.672 118.130  0.00  0.00     0.149 HD
ENDBRANCH   6  13
BRANCH   5  18
ATOM     18  N   LIG d   1      -5.332  80.218 117.289  0.00  0.00     0.381 N 
ATOM     19  H   LIG d   1      -4.442  79.826 117.054  0.00  0.00    -0.090 HD
ATOM     20  H   LIG d   1      -5.192  80.910 118.004  0.00  0.00    -0.090 HD
ATOM     21  H   LIG d   1      -5.740  80.640 116.483  0.00  0.00    -0.090 HD
ENDBRANCH   5  18
BRANCH   3  22
ATOM     22  C   LIG d   1      -9.844  79.089 118.430  0.00  0.00     0.382 C 
ATOM     23  O   LIG d   1     -10.184  80.289 118.300  0.00  0.00    -0.241 OA
ATOM     24  O   LIG d   1     -10.601  78.297 119.023  0.00  0.00    -0.241 OA
ENDBRANCH   3  22
TORSDOF 7
ENDMDL
MODEL 5
REMARK VINA RESULT:      -5.9     15.703     18.435
REMARK  7 active torsions:
REMARK  status: ('A' for Active; 'I' for Inactive)
REMARK    1  A    between atoms: C_2  and  C_3 
REMARK    2  A    between atoms: C_3  and  O_6 
REMARK    3  A    between atoms: C_3  and  C_4 
REMARK    4  A    between atoms: C_7  and  O_6 
REMARK    5  A    between atoms: C_9  and  C_10 
REMARK    6  A    between atoms: N_15  and  C_14 
REMARK    7  A    between atoms: N_20  and  C_19 
REMARK       I    between atoms: C_22  and  N_20 
ROOT
ATOM      1  C   LIG d   1      -4.445  92.153 118.038  0.00  0.00     0.161 C 
ATOM      2  C   LIG d   1      -5.018  91.411 116.992  0.00  0.00     0.016 C 
ATOM      3  C   LIG d   1      -6.284  91.704 116.433  0.00  0.00     0.038 C 
ATOM      4  C   LIG d   1      -7.000  92.858 116.783  0.00  0.00     0.028 C 
ATOM      5  C   LIG d   1      -6.694  93.356 118.192  0.00  0.00    -0.047 C 
ATOM      6  C   LIG d   1      -5.162  93.481 118.358  0.00  0.00     0.091 C 
ENDROOT
BRANCH   1   7
ATOM      7  O   LIG d   1      -3.050  92.390 117.763  0.00  0.00    -0.368 OA
BRANCH   7   8
ATOM      8  C   LIG d   1      -2.106  91.606 118.533  0.00  0.00     0.119 C 
BRANCH   8   9
ATOM      9  C   LIG d   1      -0.906  92.517 118.859  0.00  0.00     0.028 C 
ATOM     10  C   LIG d   1      -0.025  92.789 117.628  0.00  0.00     0.006 C 
ENDBRANCH   8   9
BRANCH   8  11
ATOM     11  C   LIG d   1      -1.529  90.456 117.703  0.00  0.00     0.028 C 
ATOM     12  C   LIG d   1      -2.213  89.110 117.993  0.00  0.00     0.006 C 
ENDBRANCH   8  11
ENDBRANCH   7   8
ENDBRANCH   1   7
BRANCH   6  13
ATOM     13  N   LIG d   1      -4.772  93.883 119.735  0.00  0.00    -0.311 N 
ATOM     14  C   LIG d   1      -4.574  95.148 120.101  0.00  0.00     0.210 C 
ATOM     15  C   LIG d   1      -4.158  95.341 121.562  0.00  0.00     0.109 C 
ATOM     16  O   LIG d   1      -4.735  96.131 119.362  0.00  0.00    -0.276 OA
ATOM     17  H   LIG d   1      -4.651  93.150 120.406  0.00  0.00     0.149 HD
ENDBRANCH   6  13
BRANCH   5  18
ATOM     18  N   LIG d   1      -7.402  94.638 118.374  0.00  0.00     0.381 N 
ATOM     19  H   LIG d   1      -8.275  94.615 117.886  0.00  0.00    -0.090 HD
ATOM     20  H   LIG d   1      -6.842  95.376 117.986  0.00  0.00    -0.090 HD
ATOM     21  H   LIG d   1      -7.559  94.805 119.344  0.00  0.00    -0.090 HD
ENDBRANCH   5  18
BRANCH   3  22
ATOM     22  C   LIG d   1      -6.863  90.814 115.540  0.00  0.00     0.382 C 
ATOM     23  O   LIG d   1      -6.209  89.828 115.125  0.00  0.00    -0.241 OA
ATOM     24  O   LIG d   1      -8.016  91.011 115.111  0.00  0.00    -0.241 OA
ENDBRANCH   3  22
TORSDOF 7
ENDMDL
MODEL 6
REMARK VINA RESULT:      -5.7      2.535      4.699
REMARK  7 active torsions:
REMARK  status: ('A' for Active; 'I' for Inactive)
REMARK    1  A    between atoms: C_2  and  C_3 
REMARK    2  A    between atoms: C_3  and  O_6 
REMARK    3  A    between atoms: C_3  and  C_4 
REMARK    4  A    between atoms: C_7  and  O_6 
REMARK    5  A    between atoms: C_9  and  C_10 
REMARK    6  A    between atoms: N_15  and  C_14 
REMARK    7  A    between atoms: N_20  and  C_19 
REMARK       I    between atoms: C_22  and  N_20 
ROOT
ATOM      1  C   LIG d   1      -8.277  75.841 118.226  0.00  0.00     0.161 C 
ATOM      2  C   LIG d   1      -8.326  74.441 118.119  0.00  0.00     0.016 C 
ATOM      3  C   LIG d   1      -7.568  73.706 117.178  0.00  0.00     0.038 C 
ATOM      4  C   LIG d   1      -6.590  74.313 116.377  0.00  0.00     0.028 C 
ATOM      5  C   LIG d   1      -6.866  75.786 116.096  0.00  0.00    -0.047 C 
ATOM      6  C   LIG d   1      -7.133  76.510 117.436  0.00  0.00     0.091 C 
ENDROOT
BRANCH   1   7
ATOM      7  O   LIG d   1      -8.217  76.223 119.615  0.00  0.00    -0.368 OA
BRANCH   7   8
ATOM      8  C   LIG d   1      -9.489  76.466 120.264  0.00  0.00     0.119 C 
BRANCH   8   9
ATOM      9  C   LIG d   1     -10.199  77.591 119.485  0.00  0.00     0.028 C 
ATOM     10  C   LIG d   1     -10.030  78.965 120.154  0.00  0.00     0.006 C 
ENDBRANCH   8   9
BRANCH   8  11
ATOM     11  C   LIG d   1      -9.295  77.015 121.681  0.00  0.00     0.028 C 
ATOM     12  C   LIG d   1      -7.936  76.631 122.288  0.00  0.00     0.006 C 
ENDBRANCH   8  11
ENDBRANCH   7   8
ENDBRANCH   1   7
BRANCH   6  13
ATOM     13  N   LIG d   1      -7.495  77.939 117.245  0.00  0.00    -0.311 N 
ATOM     14  C   LIG d   1      -6.966  78.931 117.960  0.00  0.00     0.210 C 
ATOM     15  C   LIG d   1      -7.493  80.328 117.616  0.00  0.00     0.109 C 
ATOM     16  O   LIG d   1      -6.088  78.790 118.824  0.00  0.00    -0.276 OA
ATOM     17  H   LIG d   1      -8.178  78.147 116.543  0.00  0.00     0.149 HD
ENDBRANCH   6  13
BRANCH   5  18
ATOM     18  N   LIG d   1      -5.702  76.327 115.369  0.00  0.00     0.381 N 
ATOM     19  H   LIG d   1      -5.951  77.187 114.923  0.00  0.00    -0.090 HD
ATOM     20  H   LIG d   1      -5.429  75.671 114.659  0.00  0.00    -0.090 HD
ATOM     21  H   LIG d   1      -4.946  76.478 116.000  0.00  0.00    -0.090 HD
ENDBRANCH   5  18
BRANCH   3  22
ATOM     22  C   LIG d   1      -7.815  72.352 117.005  0.00  0.00     0.382 C 
ATOM     23  O   LIG d   1      -8.989  71.946 116.832  0.00  0.00    -0.241 OA
ATOM     24  O   LIG d   1      -6.883  71.528 117.064  0.00  0.00    -0.241 OA
ENDBRANCH   3  22
TORSDOF 7
ENDMDL
MODEL 7
REMARK VINA RESULT:      -5.6      2.480      3.804
REMARK  7 active torsions:
REMARK  status: ('A' for Active; 'I' for Inactive)
REMARK    1  A    between atoms: C_2  and  C_3 
REMARK    2  A    between atoms: C_3  and  O_6 
REMARK    3  A    between atoms: C_3  and  C_4 
REMARK    4  A    between atoms: C_7  and  O_6 
REMARK    5  A    between atoms: C_9  and  C_10 
REMARK    6  A    between atoms: N_15  and  C_14 
REMARK    7  A    between atoms: N_20  and  C_19 
REMARK       I    between atoms: C_22  and  N_20 
ROOT
ATOM      1  C   LIG d   1      -7.068  77.737 117.446  0.00  0.00     0.161 C 
ATOM      2  C   LIG d   1      -6.141  77.496 116.418  0.00  0.00     0.016 C 
ATOM      3  C   LIG d   1      -5.968  76.232 115.808  0.00  0.00     0.038 C 
ATOM      4  C   LIG d   1      -6.822  75.153 116.081  0.00  0.00     0.028 C 
ATOM      5  C   LIG d   1      -7.442  75.210 117.473  0.00  0.00    -0.047 C 
ATOM      6  C   LIG d   1      -8.084  76.600 117.681  0.00  0.00     0.091 C 
ENDROOT
BRANCH   1   7
ATOM      7  O   LIG d   1      -7.754  78.981 117.203  0.00  0.00    -0.368 OA
BRANCH   7   8
ATOM      8  C   LIG d   1      -7.579  80.012 118.205  0.00  0.00     0.119 C 
BRANCH   8   9
ATOM      9  C   LIG d   1      -8.837  80.902 118.178  0.00  0.00     0.028 C 
ATOM     10  C   LIG d   1      -8.719  82.055 117.168  0.00  0.00     0.006 C 
ENDBRANCH   8   9
BRANCH   8  11
ATOM     11  C   LIG d   1      -6.417  80.944 117.849  0.00  0.00     0.028 C 
ATOM     12  C   LIG d   1      -5.425  81.127 119.009  0.00  0.00     0.006 C 
ENDBRANCH   8  11
ENDBRANCH   7   8
ENDBRANCH   1   7
BRANCH   6  13
ATOM     13  N   LIG d   1      -8.641  76.770 119.049  0.00  0.00    -0.311 N 
ATOM     14  C   LIG d   1      -9.836  77.303 119.293  0.00  0.00     0.210 C 
ATOM     15  C   LIG d   1     -10.209  77.404 120.775  0.00  0.00     0.109 C 
ATOM     16  O   LIG d   1     -10.637  77.674 118.421  0.00  0.00    -0.276 OA
ATOM     17  H   LIG d   1      -8.070  76.467 119.814  0.00  0.00     0.149 HD
ENDBRANCH   6  13
BRANCH   5  18
ATOM     18  N   LIG d   1      -8.413  74.104 117.574  0.00  0.00     0.381 N 
ATOM     19  H   LIG d   1      -8.132  73.471 118.296  0.00  0.00    -0.090 HD
ATOM     20  H   LIG d   1      -8.426  73.603 116.703  0.00  0.00    -0.090 HD
ATOM     21  H   LIG d   1      -9.320  74.464 117.773  0.00  0.00    -0.090 HD
ENDBRANCH   5  18
BRANCH   3  22
ATOM     22  C   LIG d   1      -4.906  76.028 114.940  0.00  0.00     0.382 C 
ATOM     23  O   LIG d   1      -4.995  76.391 113.743  0.00  0.00    -0.241 OA
ATOM     24  O   LIG d   1      -3.876  75.445 115.330  0.00  0.00    -0.241 OA
ENDBRANCH   3  22
TORSDOF 7
ENDMDL
MODEL 8
REMARK VINA RESULT:      -5.6      3.817      5.531
REMARK  7 active torsions:
REMARK  status: ('A' for Active; 'I' for Inactive)
REMARK    1  A    between atoms: C_2  and  C_3 
REMARK    2  A    between atoms: C_3  and  O_6 
REMARK    3  A    between atoms: C_3  and  C_4 
REMARK    4  A    between atoms: C_7  and  O_6 
REMARK    5  A    between atoms: C_9  and  C_10 
REMARK    6  A    between atoms: N_15  and  C_14 
REMARK    7  A    between atoms: N_20  and  C_19 
REMARK       I    between atoms: C_22  and  N_20 
ROOT
ATOM      1  C   LIG d   1      -3.181  76.519 116.826  0.00  0.00     0.161 C 
ATOM      2  C   LIG d   1      -3.329  77.144 115.577  0.00  0.00     0.016 C 
ATOM      3  C   LIG d   1      -2.256  77.357 114.681  0.00  0.00     0.038 C 
ATOM      4  C   LIG d   1      -0.980  76.819 114.911  0.00  0.00     0.028 C 
ATOM      5  C   LIG d   1      -0.665  76.618 116.390  0.00  0.00    -0.047 C 
ATOM      6  C   LIG d   1      -1.820  75.826 117.045  0.00  0.00     0.091 C 
ENDROOT
BRANCH   1   7
ATOM      7  O   LIG d   1      -4.258  75.584 117.034  0.00  0.00    -0.368 OA
BRANCH   7   8
ATOM      8  C   LIG d   1      -5.390  75.705 116.138  0.00  0.00     0.119 C 
BRANCH   8   9
ATOM      9  C   LIG d   1      -6.668  75.673 116.998  0.00  0.00     0.028 C 
ATOM     10  C   LIG d   1      -7.894  76.221 116.249  0.00  0.00     0.006 C 
ENDBRANCH   8   9
BRANCH   8  11
ATOM     11  C   LIG d   1      -5.497  74.492 115.208  0.00  0.00     0.028 C 
ATOM     12  C   LIG d   1      -5.819  73.191 115.961  0.00  0.00     0.006 C 
ENDBRANCH   8  11
ENDBRANCH   7   8
ENDBRANCH   1   7
BRANCH   6  13
ATOM     13  N   LIG d   1      -1.631  75.659 118.510  0.00  0.00    -0.311 N 
ATOM     14  C   LIG d   1      -1.060  74.588 119.058  0.00  0.00     0.210 C 
ATOM     15  C   LIG d   1      -0.983  74.607 120.588  0.00  0.00     0.109 C 
ATOM     16  O   LIG d   1      -0.580  73.638 118.420  0.00  0.00    -0.276 OA
ATOM     17  H   LIG d   1      -1.964  76.396 119.100  0.00  0.00     0.149 HD
ENDBRANCH   6  13
BRANCH   5  18
ATOM     18  N   LIG d   1       0.634  75.926 116.478  0.00  0.00     0.381 N 
ATOM     19  H   LIG d   1       1.245  76.259 115.759  0.00  0.00    -0.090 HD
ATOM     20  H   LIG d   1       0.488  74.942 116.338  0.00  0.00    -0.090 HD
ATOM     21  H   LIG d   1       1.045  76.084 117.372  0.00  0.00    -0.090 HD
ENDBRANCH   5  18
BRANCH   3  22
ATOM     22  C   LIG d   1      -2.444  78.150 113.559  0.00  0.00     0.382 C 
ATOM     23  O   LIG d   1      -2.853  79.329 113.686  0.00  0.00    -0.241 OA
ATOM     24  O   LIG d   1      -2.252  77.687 112.419  0.00  0.00    -0.241 OA
ENDBRANCH   3  22
TORSDOF 7
ENDMDL
MODEL 9
REMARK VINA RESULT:      -5.5      2.866      5.276
REMARK  7 active torsions:
REMARK  status: ('A' for Active; 'I' for Inactive)
REMARK    1  A    between atoms: C_2  and  C_3 
REMARK    2  A    between atoms: C_3  and  O_6 
REMARK    3  A    between atoms: C_3  and  C_4 
REMARK    4  A    between atoms: C_7  and  O_6 
REMARK    5  A    between atoms: C_9  and  C_10 
REMARK    6  A    between atoms: N_15  and  C_14 
REMARK    7  A    between atoms: N_20  and  C_19 
REMARK       I    between atoms: C_22  and  N_20 
ROOT
ATOM      1  C   LIG d   1      -6.686  77.675 117.284  0.00  0.00     0.161 C 
ATOM      2  C   LIG d   1      -6.642  79.077 117.367  0.00  0.00     0.016 C 
ATOM      3  C   LIG d   1      -7.702  79.860 117.880  0.00  0.00     0.038 C 
ATOM      4  C   LIG d   1      -8.824  79.280 118.489  0.00  0.00     0.028 C 
ATOM      5  C   LIG d   1      -9.138  77.880 117.973  0.00  0.00    -0.047 C 
ATOM      6  C   LIG d   1      -7.856  77.019 118.046  0.00  0.00     0.091 C 
ENDROOT
BRANCH   1   7
ATOM      7  O   LIG d   1      -5.430  77.120 117.722  0.00  0.00    -0.368 OA
BRANCH   7   8
ATOM      8  C   LIG d   1      -4.499  76.748 116.676  0.00  0.00     0.119 C 
BRANCH   8   9
ATOM      9  C   LIG d   1      -4.841  75.310 116.242  0.00  0.00     0.028 C 
ATOM     10  C   LIG d   1      -5.340  75.239 114.789  0.00  0.00     0.006 C 
ENDBRANCH   8   9
BRANCH   8  11
ATOM     11  C   LIG d   1      -3.063  76.681 117.206  0.00  0.00     0.028 C 
ATOM     12  C   LIG d   1      -2.593  75.242 117.474  0.00  0.00     0.006 C 
ENDBRANCH   8  11
ENDBRANCH   7   8
ENDBRANCH   1   7
BRANCH   6  13
ATOM     13  N   LIG d   1      -8.054  75.658 117.482  0.00  0.00    -0.311 N 
ATOM     14  C   LIG d   1      -8.367  74.596 118.222  0.00  0.00     0.210 C 
ATOM     15  C   LIG d   1      -8.506  73.284 117.443  0.00  0.00     0.109 C 
ATOM     16  O   LIG d   1      -8.575  74.622 119.444  0.00  0.00    -0.276 OA
ATOM     17  H   LIG d   1      -7.935  75.553 116.493  0.00  0.00     0.149 HD
ENDBRANCH   6  13
BRANCH   5  18
ATOM     18  N   LIG d   1     -10.244  77.342 118.788  0.00  0.00     0.381 N 
ATOM     19  H   LIG d   1     -11.121  77.622 118.396  0.00  0.00    -0.090 HD
ATOM     20  H   LIG d   1     -10.177  77.720 119.716  0.00  0.00    -0.090 HD
ATOM     21  H   LIG d   1     -10.190  76.347 118.822  0.00  0.00    -0.090 HD
ENDBRANCH   5  18
BRANCH   3  22
ATOM     22  C   LIG d   1      -7.662  81.240 117.749  0.00  0.00     0.382 C 
ATOM     23  O   LIG d   1      -7.062  81.761 116.779  0.00  0.00    -0.241 OA
ATOM     24  O   LIG d   1      -8.181  81.971 118.614  0.00  0.00    -0.241 OA
ENDBRANCH   3  22
TORSDOF 7
ENDMDL
