MODEL 1
REMARK VINA RESULT:      -6.3      0.000      0.000
REMARK  7 active torsions:
REMARK  status: ('A' for Active; 'I' for Inactive)
REMARK    1  A    between atoms: C_2  and  C_3 
REMARK    2  A    between atoms: C_3  and  O_6 
REMARK    3  A    between atoms: C_3  and  C_4 
REMARK    4  A    between atoms: C_7  and  O_6 
REMARK    5  A    between atoms: C_9  and  C_10 
REMARK    6  A    between atoms: N_15  and  C_14 
REMARK    7  A    between atoms: N_20  and  C_19 
REMARK       I    between atoms: C_22  and  N_20 
ROOT
ATOM      1  C   LIG d   1      -7.586  76.609 117.562  0.00  0.00     0.161 C 
ATOM      2  C   LIG d   1      -8.857  77.078 117.934  0.00  0.00     0.016 C 
ATOM      3  C   LIG d   1      -9.125  78.428 118.256  0.00  0.00     0.038 C 
ATOM      4  C   LIG d   1      -8.167  79.437 118.079  0.00  0.00     0.028 C 
ATOM      5  C   LIG d   1      -6.731  78.934 118.189  0.00  0.00    -0.047 C 
ATOM      6  C   LIG d   1      -6.553  77.715 117.256  0.00  0.00     0.091 C 
ENDROOT
BRANCH   1   7
ATOM      7  O   LIG d   1      -7.705  75.711 116.440  0.00  0.00    -0.368 OA
BRANCH   7   8
ATOM      8  C   LIG d   1      -7.812  74.303 116.761  0.00  0.00     0.119 C 
BRANCH   8   9
ATOM      9  C   LIG d   1      -6.845  73.542 115.833  0.00  0.00     0.028 C 
ATOM     10  C   LIG d   1      -6.028  74.487 114.936  0.00  0.00     0.006 C 
ENDBRANCH   8   9
BRANCH   8  11
ATOM     11  C   LIG d   1      -9.205  73.760 116.428  0.00  0.00     0.028 C 
ATOM     12  C   LIG d   1      -9.373  72.280 116.807  0.00  0.00     0.006 C 
ENDBRANCH   8  11
ENDBRANCH   7   8
ENDBRANCH   1   7
BRANCH   6  13
ATOM     13  N   LIG d   1      -5.200  77.110 117.365  0.00  0.00    -0.311 N 
ATOM     14  C   LIG d   1      -4.166  77.485 116.614  0.00  0.00     0.210 C 
ATOM     15  C   LIG d   1      -2.866  76.718 116.874  0.00  0.00     0.109 C 
ATOM     16  O   LIG d   1      -4.194  78.402 115.780  0.00  0.00    -0.276 OA
ATOM     17  H   LIG d   1      -5.081  76.379 118.039  0.00  0.00     0.149 HD
ENDBRANCH   6  13
BRANCH   5  18
ATOM     18  N   LIG d   1      -5.838  80.058 117.848  0.00  0.00     0.381 N 
ATOM     19  H   LIG d   1      -4.891  79.738 117.808  0.00  0.00    -0.090 HD
ATOM     20  H   LIG d   1      -5.905  80.756 118.568  0.00  0.00    -0.090 HD
ATOM     21  H   LIG d   1      -6.102  80.449 116.970  0.00  0.00    -0.090 HD
ENDBRANCH   5  18
BRANCH   3  22
ATOM     22  C   LIG d   1     -10.353  78.774 118.798  0.00  0.00     0.382 C 
ATOM     23  O   LIG d   1     -11.218  77.889 119.007  0.00  0.00    -0.241 OA
ATOM     24  O   LIG d   1     -10.624  79.966 119.041  0.00  0.00    -0.241 OA
ENDBRANCH   3  22
TORSDOF 7
ENDMDL
MODEL 2
REMARK VINA RESULT:      -5.8      1.939      4.895
REMARK  7 active torsions:
REMARK  status: ('A' for Active; 'I' for Inactive)
REMARK    1  A    between atoms: C_2  and  C_3 
REMARK    2  A    between atoms: C_3  and  O_6 
REMARK    3  A    between atoms: C_3  and  C_4 
REMARK    4  A    between atoms: C_7  and  O_6 
REMARK    5  A    between atoms: C_9  and  C_10 
REMARK    6  A    between atoms: N_15  and  C_14 
REMARK    7  A    between atoms: N_20  and  C_19 
REMARK       I    between atoms: C_22  and  N_20 
ROOT
ATOM      1  C   LIG d   1      -7.085  76.910 116.656  0.00  0.00     0.161 C 
ATOM      2  C   LIG d   1      -6.113  76.197 115.933  0.00  0.00     0.016 C 
ATOM      3  C   LIG d   1      -4.742  76.539 115.927  0.00  0.00     0.038 C 
ATOM      4  C   LIG d   1      -4.221  77.533 116.769  0.00  0.00     0.028 C 
ATOM      5  C   LIG d   1      -5.238  78.609 117.135  0.00  0.00    -0.047 C 
ATOM      6  C   LIG d   1      -6.519  77.929 117.668  0.00  0.00     0.091 C 
ENDROOT
BRANCH   1   7
ATOM      7  O   LIG d   1      -7.975  75.989 117.317  0.00  0.00    -0.368 OA
BRANCH   7   8
ATOM      8  C   LIG d   1      -8.730  75.103 116.454  0.00  0.00     0.119 C 
BRANCH   8   9
ATOM      9  C   LIG d   1     -10.201  75.155 116.911  0.00  0.00     0.028 C 
ATOM     10  C   LIG d   1     -10.458  76.272 117.936  0.00  0.00     0.006 C 
ENDBRANCH   8   9
BRANCH   8  11
ATOM     11  C   LIG d   1      -8.299  73.645 116.640  0.00  0.00     0.028 C 
ATOM     12  C   LIG d   1      -9.460  72.653 116.460  0.00  0.00     0.006 C 
ENDBRANCH   8  11
ENDBRANCH   7   8
ENDBRANCH   1   7
BRANCH   6  13
ATOM     13  N   LIG d   1      -7.597  78.907 117.971  0.00  0.00    -0.311 N 
ATOM     14  C   LIG d   1      -7.751  79.481 119.162  0.00  0.00     0.210 C 
ATOM     15  C   LIG d   1      -8.938  80.444 119.266  0.00  0.00     0.109 C 
ATOM     16  O   LIG d   1      -6.999  79.309 120.133  0.00  0.00    -0.276 OA
ATOM     17  H   LIG d   1      -8.233  79.128 117.230  0.00  0.00     0.149 HD
ENDBRANCH   6  13
BRANCH   5  18
ATOM     18  N   LIG d   1      -4.604  79.503 118.124  0.00  0.00     0.381 N 
ATOM     19  H   LIG d   1      -3.631  79.284 118.203  0.00  0.00    -0.090 HD
ATOM     20  H   LIG d   1      -5.035  79.354 119.019  0.00  0.00    -0.090 HD
ATOM     21  H   LIG d   1      -4.717  80.453 117.846  0.00  0.00    -0.090 HD
ENDBRANCH   5  18
BRANCH   3  22
ATOM     22  C   LIG d   1      -3.880  75.910 115.041  0.00  0.00     0.382 C 
ATOM     23  O   LIG d   1      -2.819  76.478 114.687  0.00  0.00    -0.241 OA
ATOM     24  O   LIG d   1      -4.173  74.800 114.556  0.00  0.00    -0.241 OA
ENDBRANCH   3  22
TORSDOF 7
ENDMDL
MODEL 3
REMARK VINA RESULT:      -5.6      1.591      2.245
REMARK  7 active torsions:
REMARK  status: ('A' for Active; 'I' for Inactive)
REMARK    1  A    between atoms: C_2  and  C_3 
REMARK    2  A    between atoms: C_3  and  O_6 
REMARK    3  A    between atoms: C_3  and  C_4 
REMARK    4  A    between atoms: C_7  and  O_6 
REMARK    5  A    between atoms: C_9  and  C_10 
REMARK    6  A    between atoms: N_15  and  C_14 
REMARK    7  A    between atoms: N_20  and  C_19 
REMARK       I    between atoms: C_22  and  N_20 
ROOT
ATOM      1  C   LIG d   1      -6.774  77.173 117.326  0.00  0.00     0.161 C 
ATOM      2  C   LIG d   1      -8.137  76.845 117.427  0.00  0.00     0.016 C 
ATOM      3  C   LIG d   1      -9.086  77.660 118.085  0.00  0.00     0.038 C 
ATOM      4  C   LIG d   1      -8.763  78.940 118.560  0.00  0.00     0.028 C 
ATOM      5  C   LIG d   1      -7.291  79.096 118.927  0.00  0.00    -0.047 C 
ATOM      6  C   LIG d   1      -6.424  78.617 117.740  0.00  0.00     0.091 C 
ENDROOT
BRANCH   1   7
ATOM      7  O   LIG d   1      -6.306  76.907 115.989  0.00  0.00    -0.368 OA
BRANCH   7   8
ATOM      8  C   LIG d   1      -5.518  75.704 115.816  0.00  0.00     0.119 C 
BRANCH   8   9
ATOM      9  C   LIG d   1      -4.286  76.074 114.969  0.00  0.00     0.028 C 
ATOM     10  C   LIG d   1      -2.971  75.585 115.600  0.00  0.00     0.006 C 
ENDBRANCH   8   9
BRANCH   8  11
ATOM     11  C   LIG d   1      -6.275  74.655 114.995  0.00  0.00     0.028 C 
ATOM     12  C   LIG d   1      -6.422  73.314 115.731  0.00  0.00     0.006 C 
ENDBRANCH   8  11
ENDBRANCH   7   8
ENDBRANCH   1   7
BRANCH   6  13
ATOM     13  N   LIG d   1      -4.971  78.657 118.047  0.00  0.00    -0.311 N 
ATOM     14  C   LIG d   1      -4.053  79.110 117.195  0.00  0.00     0.210 C 
ATOM     15  C   LIG d   1      -2.610  79.045 117.703  0.00  0.00     0.109 C 
ATOM     16  O   LIG d   1      -4.301  79.590 116.078  0.00  0.00    -0.276 OA
ATOM     17  H   LIG d   1      -4.685  78.316 118.944  0.00  0.00     0.149 HD
ENDBRANCH   6  13
BRANCH   5  18
ATOM     18  N   LIG d   1      -7.066  80.512 119.274  0.00  0.00     0.381 N 
ATOM     19  H   LIG d   1      -7.262  80.658 120.244  0.00  0.00    -0.090 HD
ATOM     20  H   LIG d   1      -7.695  81.082 118.736  0.00  0.00    -0.090 HD
ATOM     21  H   LIG d   1      -6.124  80.766 119.075  0.00  0.00    -0.090 HD
ENDBRANCH   5  18
BRANCH   3  22
ATOM     22  C   LIG d   1     -10.367  77.178 118.310  0.00  0.00     0.382 C 
ATOM     23  O   LIG d   1     -11.178  77.849 118.993  0.00  0.00    -0.241 OA
ATOM     24  O   LIG d   1     -10.707  76.061 117.876  0.00  0.00    -0.241 OA
ENDBRANCH   3  22
TORSDOF 7
ENDMDL
MODEL 4
REMARK VINA RESULT:      -5.6     14.206     16.619
REMARK  7 active torsions:
REMARK  status: ('A' for Active; 'I' for Inactive)
REMARK    1  A    between atoms: C_2  and  C_3 
REMARK    2  A    between atoms: C_3  and  O_6 
REMARK    3  A    between atoms: C_3  and  C_4 
REMARK    4  A    between atoms: C_7  and  O_6 
REMARK    5  A    between atoms: C_9  and  C_10 
REMARK    6  A    between atoms: N_15  and  C_14 
REMARK    7  A    between atoms: N_20  and  C_19 
REMARK       I    between atoms: C_22  and  N_20 
ROOT
ATOM      1  C   LIG d   1      -5.262  92.217 118.138  0.00  0.00     0.161 C 
ATOM      2  C   LIG d   1      -5.552  91.455 116.994  0.00  0.00     0.016 C 
ATOM      3  C   LIG d   1      -6.682  91.683 116.174  0.00  0.00     0.038 C 
ATOM      4  C   LIG d   1      -7.521  92.791 116.359  0.00  0.00     0.028 C 
ATOM      5  C   LIG d   1      -7.556  93.291 117.799  0.00  0.00    -0.047 C 
ATOM      6  C   LIG d   1      -6.106  93.499 118.293  0.00  0.00     0.091 C 
ENDROOT
BRANCH   1   7
ATOM      7  O   LIG d   1      -3.857  92.534 118.170  0.00  0.00    -0.368 OA
BRANCH   7   8
ATOM      8  C   LIG d   1      -3.097  91.957 119.260  0.00  0.00     0.119 C 
BRANCH   8   9
ATOM      9  C   LIG d   1      -2.275  93.090 119.904  0.00  0.00     0.028 C 
ATOM     10  C   LIG d   1      -2.410  94.419 119.141  0.00  0.00     0.006 C 
ENDBRANCH   8   9
BRANCH   8  11
ATOM     11  C   LIG d   1      -2.065  90.948 118.747  0.00  0.00     0.028 C 
ATOM     12  C   LIG d   1      -2.673  89.566 118.461  0.00  0.00     0.006 C 
ENDBRANCH   8  11
ENDBRANCH   7   8
ENDBRANCH   1   7
BRANCH   6  13
ATOM     13  N   LIG d   1      -6.046  93.908 119.720  0.00  0.00    -0.311 N 
ATOM     14  C   LIG d   1      -5.988  95.177 120.118  0.00  0.00     0.210 C 
ATOM     15  C   LIG d   1      -5.912  95.377 121.635  0.00  0.00     0.109 C 
ATOM     16  O   LIG d   1      -6.024  96.158 119.360  0.00  0.00    -0.276 OA
ATOM     17  H   LIG d   1      -6.044  93.176 120.404  0.00  0.00     0.149 HD
ENDBRANCH   6  13
BRANCH   5  18
ATOM     18  N   LIG d   1      -8.358  94.528 117.822  0.00  0.00     0.381 N 
ATOM     19  H   LIG d   1      -7.859  95.247 118.309  0.00  0.00    -0.090 HD
ATOM     20  H   LIG d   1      -9.215  94.351 118.315  0.00  0.00    -0.090 HD
ATOM     21  H   LIG d   1      -8.556  94.824 116.892  0.00  0.00    -0.090 HD
ENDBRANCH   5  18
BRANCH   3  22
ATOM     22  C   LIG d   1      -7.003  90.772 115.179  0.00  0.00     0.382 C 
ATOM     23  O   LIG d   1      -8.086  90.880 114.556  0.00  0.00    -0.241 OA
ATOM     24  O   LIG d   1      -6.243  89.818 114.927  0.00  0.00    -0.241 OA
ENDBRANCH   3  22
TORSDOF 7
ENDMDL
MODEL 5
REMARK VINA RESULT:      -5.6      2.504      5.804
REMARK  7 active torsions:
REMARK  status: ('A' for Active; 'I' for Inactive)
REMARK    1  A    between atoms: C_2  and  C_3 
REMARK    2  A    between atoms: C_3  and  O_6 
REMARK    3  A    between atoms: C_3  and  C_4 
REMARK    4  A    between atoms: C_7  and  O_6 
REMARK    5  A    between atoms: C_9  and  C_10 
REMARK    6  A    between atoms: N_15  and  C_14 
REMARK    7  A    between atoms: N_20  and  C_19 
REMARK       I    between atoms: C_22  and  N_20 
ROOT
ATOM      1  C   LIG d   1      -8.021  77.383 117.899  0.00  0.00     0.161 C 
ATOM      2  C   LIG d   1      -7.893  76.180 117.186  0.00  0.00     0.016 C 
ATOM      3  C   LIG d   1      -8.972  75.298 116.948  0.00  0.00     0.038 C 
ATOM      4  C   LIG d   1     -10.293  75.636 117.280  0.00  0.00     0.028 C 
ATOM      5  C   LIG d   1     -10.393  76.610 118.449  0.00  0.00    -0.047 C 
ATOM      6  C   LIG d   1      -9.475  77.822 118.172  0.00  0.00     0.091 C 
ENDROOT
BRANCH   1   7
ATOM      7  O   LIG d   1      -7.300  78.432 117.222  0.00  0.00    -0.368 OA
BRANCH   7   8
ATOM      8  C   LIG d   1      -5.931  78.643 117.648  0.00  0.00     0.119 C 
BRANCH   8   9
ATOM      9  C   LIG d   1      -5.845  78.254 119.137  0.00  0.00     0.028 C 
ATOM     10  C   LIG d   1      -4.428  78.429 119.708  0.00  0.00     0.006 C 
ENDBRANCH   8   9
BRANCH   8  11
ATOM     11  C   LIG d   1      -5.553  80.126 117.594  0.00  0.00     0.028 C 
ATOM     12  C   LIG d   1      -6.724  81.053 117.956  0.00  0.00     0.006 C 
ENDBRANCH   8  11
ENDBRANCH   7   8
ENDBRANCH   1   7
BRANCH   6  13
ATOM     13  N   LIG d   1      -9.449  78.784 119.305  0.00  0.00    -0.311 N 
ATOM     14  C   LIG d   1      -9.929  80.024 119.225  0.00  0.00     0.210 C 
ATOM     15  C   LIG d   1      -9.785  80.857 120.503  0.00  0.00     0.109 C 
ATOM     16  O   LIG d   1     -10.489  80.502 118.228  0.00  0.00    -0.276 OA
ATOM     17  H   LIG d   1      -9.040  78.468 120.163  0.00  0.00     0.149 HD
ENDBRANCH   6  13
BRANCH   5  18
ATOM     18  N   LIG d   1     -11.813  76.983 118.598  0.00  0.00     0.381 N 
ATOM     19  H   LIG d   1     -11.902  77.715 119.274  0.00  0.00    -0.090 HD
ATOM     20  H   LIG d   1     -12.326  76.184 118.928  0.00  0.00    -0.090 HD
ATOM     21  H   LIG d   1     -12.180  77.283 117.722  0.00  0.00    -0.090 HD
ENDBRANCH   5  18
BRANCH   3  22
ATOM     22  C   LIG d   1      -8.729  74.045 116.408  0.00  0.00     0.382 C 
ATOM     23  O   LIG d   1      -9.568  73.124 116.557  0.00  0.00    -0.241 OA
ATOM     24  O   LIG d   1      -7.662  73.810 115.811  0.00  0.00    -0.241 OA
ENDBRANCH   3  22
TORSDOF 7
ENDMDL
MODEL 6
REMARK VINA RESULT:      -5.4     14.730     17.458
REMARK  7 active torsions:
REMARK  status: ('A' for Active; 'I' for Inactive)
REMARK    1  A    between atoms: C_2  and  C_3 
REMARK    2  A    between atoms: C_3  and  O_6 
REMARK    3  A    between atoms: C_3  and  C_4 
REMARK    4  A    between atoms: C_7  and  O_6 
REMARK    5  A    between atoms: C_9  and  C_10 
REMARK    6  A    between atoms: N_15  and  C_14 
REMARK    7  A    between atoms: N_20  and  C_19 
REMARK       I    between atoms: C_22  and  N_20 
ROOT
ATOM      1  C   LIG d   1      -6.583  93.802 118.376  0.00  0.00     0.161 C 
ATOM      2  C   LIG d   1      -7.170  93.076 117.327  0.00  0.00     0.016 C 
ATOM      3  C   LIG d   1      -6.551  91.967 116.706  0.00  0.00     0.038 C 
ATOM      4  C   LIG d   1      -5.360  91.412 117.198  0.00  0.00     0.028 C 
ATOM      5  C   LIG d   1      -4.481  92.417 117.934  0.00  0.00    -0.047 C 
ATOM      6  C   LIG d   1      -5.334  93.143 118.999  0.00  0.00     0.091 C 
ENDROOT
BRANCH   1   7
ATOM      7  O   LIG d   1      -7.567  94.073 119.394  0.00  0.00    -0.368 OA
BRANCH   7   8
ATOM      8  C   LIG d   1      -8.323  95.298 119.239  0.00  0.00     0.119 C 
BRANCH   8   9
ATOM      9  C   LIG d   1      -7.312  96.453 119.101  0.00  0.00     0.028 C 
ATOM     10  C   LIG d   1      -7.588  97.331 117.870  0.00  0.00     0.006 C 
ENDBRANCH   8   9
BRANCH   8  11
ATOM     11  C   LIG d   1      -9.132  95.617 120.500  0.00  0.00     0.028 C 
ATOM     12  C   LIG d   1     -10.463  94.851 120.563  0.00  0.00     0.006 C 
ENDBRANCH   8  11
ENDBRANCH   7   8
ENDBRANCH   1   7
BRANCH   6  13
ATOM     13  N   LIG d   1      -4.572  94.204 119.709  0.00  0.00    -0.311 N 
ATOM     14  C   LIG d   1      -3.940  94.005 120.864  0.00  0.00     0.210 C 
ATOM     15  C   LIG d   1      -3.232  95.237 121.435  0.00  0.00     0.109 C 
ATOM     16  O   LIG d   1      -3.871  92.916 121.453  0.00  0.00    -0.276 OA
ATOM     17  H   LIG d   1      -4.550  95.111 119.285  0.00  0.00     0.149 HD
ENDBRANCH   6  13
BRANCH   5  18
ATOM     18  N   LIG d   1      -3.343  91.677 118.511  0.00  0.00     0.381 N 
ATOM     19  H   LIG d   1      -3.047  90.962 117.876  0.00  0.00    -0.090 HD
ATOM     20  H   LIG d   1      -3.640  91.238 119.364  0.00  0.00    -0.090 HD
ATOM     21  H   LIG d   1      -2.588  92.301 118.694  0.00  0.00    -0.090 HD
ENDBRANCH   5  18
BRANCH   3  22
ATOM     22  C   LIG d   1      -7.104  91.426 115.556  0.00  0.00     0.382 C 
ATOM     23  O   LIG d   1      -7.620  92.178 114.695  0.00  0.00    -0.241 OA
ATOM     24  O   LIG d   1      -7.133  90.192 115.389  0.00  0.00    -0.241 OA
ENDBRANCH   3  22
TORSDOF 7
ENDMDL
MODEL 7
REMARK VINA RESULT:      -5.4      2.463      5.861
REMARK  7 active torsions:
REMARK  status: ('A' for Active; 'I' for Inactive)
REMARK    1  A    between atoms: C_2  and  C_3 
REMARK    2  A    between atoms: C_3  and  O_6 
REMARK    3  A    between atoms: C_3  and  C_4 
REMARK    4  A    between atoms: C_7  and  O_6 
REMARK    5  A    between atoms: C_9  and  C_10 
REMARK    6  A    between atoms: N_15  and  C_14 
REMARK    7  A    between atoms: N_20  and  C_19 
REMARK       I    between atoms: C_22  and  N_20 
ROOT
ATOM      1  C   LIG d   1      -4.226  76.929 115.473  0.00  0.00     0.161 C 
ATOM      2  C   LIG d   1      -3.301  75.914 115.177  0.00  0.00     0.016 C 
ATOM      3  C   LIG d   1      -2.267  75.522 116.059  0.00  0.00     0.038 C 
ATOM      4  C   LIG d   1      -2.182  76.018 117.368  0.00  0.00     0.028 C 
ATOM      5  C   LIG d   1      -2.788  77.408 117.530  0.00  0.00    -0.047 C 
ATOM      6  C   LIG d   1      -4.217  77.404 116.941  0.00  0.00     0.091 C 
ENDROOT
BRANCH   1   7
ATOM      7  O   LIG d   1      -5.551  76.509 115.091  0.00  0.00    -0.368 OA
BRANCH   7   8
ATOM      8  C   LIG d   1      -6.203  75.570 115.980  0.00  0.00     0.119 C 
BRANCH   8   9
ATOM      9  C   LIG d   1      -6.121  74.178 115.325  0.00  0.00     0.028 C 
ATOM     10  C   LIG d   1      -6.920  73.116 116.099  0.00  0.00     0.006 C 
ENDBRANCH   8   9
BRANCH   8  11
ATOM     11  C   LIG d   1      -7.700  75.870 116.107  0.00  0.00     0.028 C 
ATOM     12  C   LIG d   1      -8.078  76.443 117.482  0.00  0.00     0.006 C 
ENDBRANCH   8  11
ENDBRANCH   7   8
ENDBRANCH   1   7
BRANCH   6  13
ATOM     13  N   LIG d   1      -4.851  78.748 116.983  0.00  0.00    -0.311 N 
ATOM     14  C   LIG d   1      -5.594  79.177 118.001  0.00  0.00     0.210 C 
ATOM     15  C   LIG d   1      -6.170  80.586 117.833  0.00  0.00     0.109 C 
ATOM     16  O   LIG d   1      -5.805  78.536 119.042  0.00  0.00    -0.276 OA
ATOM     17  H   LIG d   1      -4.706  79.345 116.193  0.00  0.00     0.149 HD
ENDBRANCH   6  13
BRANCH   5  18
ATOM     18  N   LIG d   1      -2.755  77.744 118.966  0.00  0.00     0.381 N 
ATOM     19  H   LIG d   1      -2.085  78.468 119.130  0.00  0.00    -0.090 HD
ATOM     20  H   LIG d   1      -2.473  76.930 119.484  0.00  0.00    -0.090 HD
ATOM     21  H   LIG d   1      -3.657  78.041 119.267  0.00  0.00    -0.090 HD
ENDBRANCH   5  18
BRANCH   3  22
ATOM     22  C   LIG d   1      -1.281  74.652 115.618  0.00  0.00     0.382 C 
ATOM     23  O   LIG d   1      -0.656  74.899 114.559  0.00  0.00    -0.241 OA
ATOM     24  O   LIG d   1      -1.040  73.602 116.244  0.00  0.00    -0.241 OA
ENDBRANCH   3  22
TORSDOF 7
ENDMDL
MODEL 8
REMARK VINA RESULT:      -5.3      2.073      4.659
REMARK  7 active torsions:
REMARK  status: ('A' for Active; 'I' for Inactive)
REMARK    1  A    between atoms: C_2  and  C_3 
REMARK    2  A    between atoms: C_3  and  O_6 
REMARK    3  A    between atoms: C_3  and  C_4 
REMARK    4  A    between atoms: C_7  and  O_6 
REMARK    5  A    between atoms: C_9  and  C_10 
REMARK    6  A    between atoms: N_15  and  C_14 
REMARK    7  A    between atoms: N_20  and  C_19 
REMARK       I    between atoms: C_22  and  N_20 
ROOT
ATOM      1  C   LIG d   1      -6.106  76.612 116.817  0.00  0.00     0.161 C 
ATOM      2  C   LIG d   1      -6.817  75.461 116.437  0.00  0.00     0.016 C 
ATOM      3  C   LIG d   1      -8.204  75.297 116.656  0.00  0.00     0.038 C 
ATOM      4  C   LIG d   1      -9.008  76.341 117.137  0.00  0.00     0.028 C 
ATOM      5  C   LIG d   1      -8.249  77.341 118.002  0.00  0.00    -0.047 C 
ATOM      6  C   LIG d   1      -6.986  77.806 117.241  0.00  0.00     0.091 C 
ENDROOT
BRANCH   1   7
ATOM      7  O   LIG d   1      -5.208  77.002 115.759  0.00  0.00    -0.368 OA
BRANCH   7   8
ATOM      8  C   LIG d   1      -3.795  76.825 116.024  0.00  0.00     0.119 C 
BRANCH   8   9
ATOM      9  C   LIG d   1      -3.048  77.994 115.353  0.00  0.00     0.028 C 
ATOM     10  C   LIG d   1      -2.791  79.160 116.323  0.00  0.00     0.006 C 
ENDBRANCH   8   9
BRANCH   8  11
ATOM     11  C   LIG d   1      -3.255  75.560 115.351  0.00  0.00     0.028 C 
ATOM     12  C   LIG d   1      -1.942  75.065 115.978  0.00  0.00     0.006 C 
ENDBRANCH   8  11
ENDBRANCH   7   8
ENDBRANCH   1   7
BRANCH   6  13
ATOM     13  N   LIG d   1      -6.141  78.722 118.051  0.00  0.00    -0.311 N 
ATOM     14  C   LIG d   1      -6.284  80.046 118.047  0.00  0.00     0.210 C 
ATOM     15  C   LIG d   1      -5.296  80.806 118.938  0.00  0.00     0.109 C 
ATOM     16  O   LIG d   1      -7.156  80.662 117.415  0.00  0.00    -0.276 OA
ATOM     17  H   LIG d   1      -5.429  78.305 118.617  0.00  0.00     0.149 HD
ENDBRANCH   6  13
BRANCH   5  18
ATOM     18  N   LIG d   1      -9.172  78.447 118.320  0.00  0.00     0.381 N 
ATOM     19  H   LIG d   1      -9.378  78.965 117.490  0.00  0.00    -0.090 HD
ATOM     20  H   LIG d   1      -8.726  79.065 118.975  0.00  0.00    -0.090 HD
ATOM     21  H   LIG d   1     -10.013  78.086 118.713  0.00  0.00    -0.090 HD
ENDBRANCH   5  18
BRANCH   3  22
ATOM     22  C   LIG d   1      -8.793  74.062 116.431  0.00  0.00     0.382 C 
ATOM     23  O   LIG d   1      -8.105  73.109 115.994  0.00  0.00    -0.241 OA
ATOM     24  O   LIG d   1     -10.015  73.902 116.617  0.00  0.00    -0.241 OA
ENDBRANCH   3  22
TORSDOF 7
ENDMDL
MODEL 9
REMARK VINA RESULT:      -5.0      2.233      4.729
REMARK  7 active torsions:
REMARK  status: ('A' for Active; 'I' for Inactive)
REMARK    1  A    between atoms: C_2  and  C_3 
REMARK    2  A    between atoms: C_3  and  O_6 
REMARK    3  A    between atoms: C_3  and  C_4 
REMARK    4  A    between atoms: C_7  and  O_6 
REMARK    5  A    between atoms: C_9  and  C_10 
REMARK    6  A    between atoms: N_15  and  C_14 
REMARK    7  A    between atoms: N_20  and  C_19 
REMARK       I    between atoms: C_22  and  N_20 
ROOT
ATOM      1  C   LIG d   1      -7.238  77.638 117.576  0.00  0.00     0.161 C 
ATOM      2  C   LIG d   1      -8.222  78.315 118.316  0.00  0.00     0.016 C 
ATOM      3  C   LIG d   1      -9.549  77.849 118.456  0.00  0.00     0.038 C 
ATOM      4  C   LIG d   1      -9.945  76.587 117.988  0.00  0.00     0.028 C 
ATOM      5  C   LIG d   1      -9.123  76.096 116.801  0.00  0.00    -0.047 C 
ATOM      6  C   LIG d   1      -7.621  76.204 117.152  0.00  0.00     0.091 C 
ENDROOT
BRANCH   1   7
ATOM      7  O   LIG d   1      -5.996  77.629 118.308  0.00  0.00    -0.368 OA
BRANCH   7   8
ATOM      8  C   LIG d   1      -5.816  78.696 119.271  0.00  0.00     0.119 C 
BRANCH   8   9
ATOM      9  C   LIG d   1      -5.222  79.902 118.519  0.00  0.00     0.028 C 
ATOM     10  C   LIG d   1      -5.988  81.206 118.801  0.00  0.00     0.006 C 
ENDBRANCH   8   9
BRANCH   8  11
ATOM     11  C   LIG d   1      -4.773  78.323 120.328  0.00  0.00     0.028 C 
ATOM     12  C   LIG d   1      -3.339  78.678 119.902  0.00  0.00     0.006 C 
ENDBRANCH   8  11
ENDBRANCH   7   8
ENDBRANCH   1   7
BRANCH   6  13
ATOM     13  N   LIG d   1      -6.744  75.823 116.014  0.00  0.00    -0.311 N 
ATOM     14  C   LIG d   1      -6.367  74.570 115.767  0.00  0.00     0.210 C 
ATOM     15  C   LIG d   1      -5.446  74.399 114.555  0.00  0.00     0.109 C 
ATOM     16  O   LIG d   1      -6.734  73.580 116.418  0.00  0.00    -0.276 OA
ATOM     17  H   LIG d   1      -6.426  76.561 115.416  0.00  0.00     0.149 HD
ENDBRANCH   6  13
BRANCH   5  18
ATOM     18  N   LIG d   1      -9.549  74.715 116.505  0.00  0.00     0.381 N 
ATOM     19  H   LIG d   1      -8.797  74.214 116.075  0.00  0.00    -0.090 HD
ATOM     20  H   LIG d   1     -10.318  74.744 115.859  0.00  0.00    -0.090 HD
ATOM     21  H   LIG d   1      -9.827  74.256 117.344  0.00  0.00    -0.090 HD
ENDBRANCH   5  18
BRANCH   3  22
ATOM     22  C   LIG d   1     -10.507  78.666 119.036  0.00  0.00     0.382 C 
ATOM     23  O   LIG d   1     -10.550  79.886 118.745  0.00  0.00    -0.241 OA
ATOM     24  O   LIG d   1     -11.300  78.209 119.881  0.00  0.00    -0.241 OA
ENDBRANCH   3  22
TORSDOF 7
ENDMDL
