MODEL 1
REMARK VINA RESULT:      -5.6      0.000      0.000
REMARK  7 active torsions:
REMARK  status: ('A' for Active; 'I' for Inactive)
REMARK    1  A    between atoms: C_2  and  C_3 
REMARK    2  A    between atoms: C_3  and  O_6 
REMARK    3  A    between atoms: C_3  and  C_4 
REMARK    4  A    between atoms: C_7  and  O_6 
REMARK    5  A    between atoms: C_9  and  C_10 
REMARK    6  A    between atoms: N_15  and  C_14 
REMARK    7  A    between atoms: N_20  and  C_19 
REMARK       I    between atoms: C_22  and  N_20 
ROOT
ATOM      1  C   LIG d   1      -7.487  75.680 117.760  0.00  0.00     0.161 C 
ATOM      2  C   LIG d   1      -8.848  75.816 118.081  0.00  0.00     0.016 C 
ATOM      3  C   LIG d   1      -9.450  77.053 118.405  0.00  0.00     0.038 C 
ATOM      4  C   LIG d   1      -8.761  78.269 118.282  0.00  0.00     0.028 C 
ATOM      5  C   LIG d   1      -7.252  78.129 118.450  0.00  0.00    -0.047 C 
ATOM      6  C   LIG d   1      -6.744  77.009 117.513  0.00  0.00     0.091 C 
ENDROOT
BRANCH   1   7
ATOM      7  O   LIG d   1      -7.338  74.804 116.625  0.00  0.00    -0.368 OA
BRANCH   7   8
ATOM      8  C   LIG d   1      -7.032  73.420 116.924  0.00  0.00     0.119 C 
BRANCH   8   9
ATOM      9  C   LIG d   1      -6.205  72.864 115.748  0.00  0.00     0.028 C 
ATOM     10  C   LIG d   1      -5.521  73.975 114.935  0.00  0.00     0.006 C 
ENDBRANCH   8   9
BRANCH   8  11
ATOM     11  C   LIG d   1      -8.302  72.565 116.966  0.00  0.00     0.028 C 
ATOM     12  C   LIG d   1      -8.014  71.062 116.830  0.00  0.00     0.006 C 
ENDBRANCH   8  11
ENDBRANCH   7   8
ENDBRANCH   1   7
BRANCH   6  13
ATOM     13  N   LIG d   1      -5.290  76.750 117.676  0.00  0.00    -0.311 N 
ATOM     14  C   LIG d   1      -4.396  76.954 116.710  0.00  0.00     0.210 C 
ATOM     15  C   LIG d   1      -2.952  76.603 117.080  0.00  0.00     0.109 C 
ATOM     16  O   LIG d   1      -4.658  77.423 115.592  0.00  0.00    -0.276 OA
ATOM     17  H   LIG d   1      -4.986  76.397 118.562  0.00  0.00     0.149 HD
ENDBRANCH   6  13
BRANCH   5  18
ATOM     18  N   LIG d   1      -6.647  79.443 118.162  0.00  0.00     0.381 N 
ATOM     19  H   LIG d   1      -7.287  80.172 118.410  0.00  0.00    -0.090 HD
ATOM     20  H   LIG d   1      -6.463  79.507 117.176  0.00  0.00    -0.090 HD
ATOM     21  H   LIG d   1      -5.799  79.548 118.673  0.00  0.00    -0.090 HD
ENDBRANCH   5  18
BRANCH   3  22
ATOM     22  C   LIG d   1     -10.747  77.078 118.897  0.00  0.00     0.382 C 
ATOM     23  O   LIG d   1     -10.989  77.628 119.998  0.00  0.00    -0.241 OA
ATOM     24  O   LIG d   1     -11.669  76.519 118.274  0.00  0.00    -0.241 OA
ENDBRANCH   3  22
TORSDOF 7
ENDMDL
MODEL 2
REMARK VINA RESULT:      -5.3     15.392     17.402
REMARK  7 active torsions:
REMARK  status: ('A' for Active; 'I' for Inactive)
REMARK    1  A    between atoms: C_2  and  C_3 
REMARK    2  A    between atoms: C_3  and  O_6 
REMARK    3  A    between atoms: C_3  and  C_4 
REMARK    4  A    between atoms: C_7  and  O_6 
REMARK    5  A    between atoms: C_9  and  C_10 
REMARK    6  A    between atoms: N_15  and  C_14 
REMARK    7  A    between atoms: N_20  and  C_19 
REMARK       I    between atoms: C_22  and  N_20 
ROOT
ATOM      1  C   LIG d   1      -3.864  92.073 117.600  0.00  0.00     0.161 C 
ATOM      2  C   LIG d   1      -4.507  91.489 116.496  0.00  0.00     0.016 C 
ATOM      3  C   LIG d   1      -5.874  91.688 116.197  0.00  0.00     0.038 C 
ATOM      4  C   LIG d   1      -6.661  92.611 116.902  0.00  0.00     0.028 C 
ATOM      5  C   LIG d   1      -6.188  92.841 118.334  0.00  0.00    -0.047 C 
ATOM      6  C   LIG d   1      -4.678  93.171 118.316  0.00  0.00     0.091 C 
ENDROOT
BRANCH   1   7
ATOM      7  O   LIG d   1      -2.576  92.583 117.202  0.00  0.00    -0.368 OA
BRANCH   7   8
ATOM      8  C   LIG d   1      -1.433  92.064 117.926  0.00  0.00     0.119 C 
BRANCH   8   9
ATOM      9  C   LIG d   1      -0.487  93.247 118.208  0.00  0.00     0.028 C 
ATOM     10  C   LIG d   1      -0.701  94.415 117.231  0.00  0.00     0.006 C 
ENDBRANCH   8   9
BRANCH   8  11
ATOM     11  C   LIG d   1      -0.622  91.092 117.064  0.00  0.00     0.028 C 
ATOM     12  C   LIG d   1      -0.739  89.635 117.538  0.00  0.00     0.006 C 
ENDBRANCH   8  11
ENDBRANCH   7   8
ENDBRANCH   1   7
BRANCH   6  13
ATOM     13  N   LIG d   1      -4.116  93.328 119.683  0.00  0.00    -0.311 N 
ATOM     14  C   LIG d   1      -3.491  94.428 120.097  0.00  0.00     0.210 C 
ATOM     15  C   LIG d   1      -2.971  94.374 121.537  0.00  0.00     0.109 C 
ATOM     16  O   LIG d   1      -3.346  95.457 119.419  0.00  0.00    -0.276 OA
ATOM     17  H   LIG d   1      -4.217  92.553 120.310  0.00  0.00     0.149 HD
ENDBRANCH   6  13
BRANCH   5  18
ATOM     18  N   LIG d   1      -7.010  93.924 118.906  0.00  0.00     0.381 N 
ATOM     19  H   LIG d   1      -6.852  94.773 118.399  0.00  0.00    -0.090 HD
ATOM     20  H   LIG d   1      -6.734  94.071 119.861  0.00  0.00    -0.090 HD
ATOM     21  H   LIG d   1      -7.974  93.679 118.864  0.00  0.00    -0.090 HD
ENDBRANCH   5  18
BRANCH   3  22
ATOM     22  C   LIG d   1      -6.479  90.928 115.208  0.00  0.00     0.382 C 
ATOM     23  O   LIG d   1      -5.967  89.839 114.852  0.00  0.00    -0.241 OA
ATOM     24  O   LIG d   1      -7.506  91.338 114.635  0.00  0.00    -0.241 OA
ENDBRANCH   3  22
TORSDOF 7
ENDMDL
MODEL 3
REMARK VINA RESULT:      -5.3     15.604     18.147
REMARK  7 active torsions:
REMARK  status: ('A' for Active; 'I' for Inactive)
REMARK    1  A    between atoms: C_2  and  C_3 
REMARK    2  A    between atoms: C_3  and  O_6 
REMARK    3  A    between atoms: C_3  and  C_4 
REMARK    4  A    between atoms: C_7  and  O_6 
REMARK    5  A    between atoms: C_9  and  C_10 
REMARK    6  A    between atoms: N_15  and  C_14 
REMARK    7  A    between atoms: N_20  and  C_19 
REMARK       I    between atoms: C_22  and  N_20 
ROOT
ATOM      1  C   LIG d   1      -5.706  93.370 118.305  0.00  0.00     0.161 C 
ATOM      2  C   LIG d   1      -6.464  92.680 117.344  0.00  0.00     0.016 C 
ATOM      3  C   LIG d   1      -5.912  91.736 116.448  0.00  0.00     0.038 C 
ATOM      4  C   LIG d   1      -4.581  91.305 116.553  0.00  0.00     0.028 C 
ATOM      5  C   LIG d   1      -3.655  92.342 117.179  0.00  0.00    -0.047 C 
ATOM      6  C   LIG d   1      -4.274  92.830 118.508  0.00  0.00     0.091 C 
ENDROOT
BRANCH   1   7
ATOM      7  O   LIG d   1      -6.414  93.396 119.560  0.00  0.00    -0.368 OA
BRANCH   7   8
ATOM      8  C   LIG d   1      -7.004  94.666 119.932  0.00  0.00     0.119 C 
BRANCH   8   9
ATOM      9  C   LIG d   1      -8.499  94.607 119.565  0.00  0.00     0.028 C 
ATOM     10  C   LIG d   1      -8.828  95.431 118.309  0.00  0.00     0.006 C 
ENDBRANCH   8   9
BRANCH   8  11
ATOM     11  C   LIG d   1      -6.427  95.814 119.099  0.00  0.00     0.028 C 
ATOM     12  C   LIG d   1      -5.542  96.762 119.923  0.00  0.00     0.006 C 
ENDBRANCH   8  11
ENDBRANCH   7   8
ENDBRANCH   1   7
BRANCH   6  13
ATOM     13  N   LIG d   1      -3.473  93.908 119.144  0.00  0.00    -0.311 N 
ATOM     14  C   LIG d   1      -2.537  93.681 120.064  0.00  0.00     0.210 C 
ATOM     15  C   LIG d   1      -1.844  94.935 120.605  0.00  0.00     0.109 C 
ATOM     16  O   LIG d   1      -2.192  92.557 120.459  0.00  0.00    -0.276 OA
ATOM     17  H   LIG d   1      -3.666  94.848 118.859  0.00  0.00     0.149 HD
ENDBRANCH   6  13
BRANCH   5  18
ATOM     18  N   LIG d   1      -2.333  91.711 117.354  0.00  0.00     0.381 N 
ATOM     19  H   LIG d   1      -1.648  92.208 116.820  0.00  0.00    -0.090 HD
ATOM     20  H   LIG d   1      -2.375  90.767 117.013  0.00  0.00    -0.090 HD
ATOM     21  H   LIG d   1      -2.079  91.713 118.317  0.00  0.00    -0.090 HD
ENDBRANCH   5  18
BRANCH   3  22
ATOM     22  C   LIG d   1      -6.684  91.244 115.406  0.00  0.00     0.382 C 
ATOM     23  O   LIG d   1      -7.205  92.035 114.584  0.00  0.00    -0.241 OA
ATOM     24  O   LIG d   1      -6.902  90.022 115.305  0.00  0.00    -0.241 OA
ENDBRANCH   3  22
TORSDOF 7
ENDMDL
MODEL 4
REMARK VINA RESULT:      -5.3      2.087      5.058
REMARK  7 active torsions:
REMARK  status: ('A' for Active; 'I' for Inactive)
REMARK    1  A    between atoms: C_2  and  C_3 
REMARK    2  A    between atoms: C_3  and  O_6 
REMARK    3  A    between atoms: C_3  and  C_4 
REMARK    4  A    between atoms: C_7  and  O_6 
REMARK    5  A    between atoms: C_9  and  C_10 
REMARK    6  A    between atoms: N_15  and  C_14 
REMARK    7  A    between atoms: N_20  and  C_19 
REMARK       I    between atoms: C_22  and  N_20 
ROOT
ATOM      1  C   LIG d   1      -7.414  75.296 117.539  0.00  0.00     0.161 C 
ATOM      2  C   LIG d   1      -7.713  73.956 117.239  0.00  0.00     0.016 C 
ATOM      3  C   LIG d   1      -6.883  73.132 116.445  0.00  0.00     0.038 C 
ATOM      4  C   LIG d   1      -5.613  73.550 116.019  0.00  0.00     0.028 C 
ATOM      5  C   LIG d   1      -5.491  75.063 115.872  0.00  0.00    -0.047 C 
ATOM      6  C   LIG d   1      -5.980  75.735 117.176  0.00  0.00     0.091 C 
ENDROOT
BRANCH   1   7
ATOM      7  O   LIG d   1      -7.680  75.556 118.931  0.00  0.00    -0.368 OA
BRANCH   7   8
ATOM      8  C   LIG d   1      -8.893  76.293 119.222  0.00  0.00     0.119 C 
BRANCH   8   9
ATOM      9  C   LIG d   1      -9.612  76.547 117.882  0.00  0.00     0.028 C 
ATOM     10  C   LIG d   1     -11.028  75.948 117.853  0.00  0.00     0.006 C 
ENDBRANCH   8   9
BRANCH   8  11
ATOM     11  C   LIG d   1      -8.581  77.682 119.784  0.00  0.00     0.028 C 
ATOM     12  C   LIG d   1      -8.903  78.813 118.794  0.00  0.00     0.006 C 
ENDBRANCH   8  11
ENDBRANCH   7   8
ENDBRANCH   1   7
BRANCH   6  13
ATOM     13  N   LIG d   1      -5.973  77.218 117.086  0.00  0.00    -0.311 N 
ATOM     14  C   LIG d   1      -5.324  78.002 117.946  0.00  0.00     0.210 C 
ATOM     15  C   LIG d   1      -5.464  79.504 117.684  0.00  0.00     0.109 C 
ATOM     16  O   LIG d   1      -4.620  77.594 118.882  0.00  0.00    -0.276 OA
ATOM     17  H   LIG d   1      -6.493  77.632 116.338  0.00  0.00     0.149 HD
ENDBRANCH   6  13
BRANCH   5  18
ATOM     18  N   LIG d   1      -4.082  75.368 115.558  0.00  0.00     0.381 N 
ATOM     19  H   LIG d   1      -3.870  76.307 115.829  0.00  0.00    -0.090 HD
ATOM     20  H   LIG d   1      -3.946  75.288 114.566  0.00  0.00    -0.090 HD
ATOM     21  H   LIG d   1      -3.481  74.733 116.035  0.00  0.00    -0.090 HD
ENDBRANCH   5  18
BRANCH   3  22
ATOM     22  C   LIG d   1      -7.339  71.888 116.036  0.00  0.00     0.382 C 
ATOM     23  O   LIG d   1      -8.450  71.466 116.435  0.00  0.00    -0.241 OA
ATOM     24  O   LIG d   1      -6.632  71.165 115.308  0.00  0.00    -0.241 OA
ENDBRANCH   3  22
TORSDOF 7
ENDMDL
MODEL 5
REMARK VINA RESULT:      -5.2     15.483     18.055
REMARK  7 active torsions:
REMARK  status: ('A' for Active; 'I' for Inactive)
REMARK    1  A    between atoms: C_2  and  C_3 
REMARK    2  A    between atoms: C_3  and  O_6 
REMARK    3  A    between atoms: C_3  and  C_4 
REMARK    4  A    between atoms: C_7  and  O_6 
REMARK    5  A    between atoms: C_9  and  C_10 
REMARK    6  A    between atoms: N_15  and  C_14 
REMARK    7  A    between atoms: N_20  and  C_19 
REMARK       I    between atoms: C_22  and  N_20 
ROOT
ATOM      1  C   LIG d   1      -6.018  93.340 118.050  0.00  0.00     0.161 C 
ATOM      2  C   LIG d   1      -6.586  92.530 117.052  0.00  0.00     0.016 C 
ATOM      3  C   LIG d   1      -5.844  91.595 116.293  0.00  0.00     0.038 C 
ATOM      4  C   LIG d   1      -4.505  91.297 116.587  0.00  0.00     0.028 C 
ATOM      5  C   LIG d   1      -3.760  92.451 117.250  0.00  0.00    -0.047 C 
ATOM      6  C   LIG d   1      -4.582  92.950 118.460  0.00  0.00     0.091 C 
ENDROOT
BRANCH   1   7
ATOM      7  O   LIG d   1      -6.879  93.367 119.205  0.00  0.00    -0.368 OA
BRANCH   7   8
ATOM      8  C   LIG d   1      -8.045  94.221 119.111  0.00  0.00     0.119 C 
BRANCH   8   9
ATOM      9  C   LIG d   1      -7.553  95.642 118.772  0.00  0.00     0.028 C 
ATOM     10  C   LIG d   1      -6.770  96.283 119.930  0.00  0.00     0.006 C 
ENDBRANCH   8   9
BRANCH   8  11
ATOM     11  C   LIG d   1      -8.754  94.349 120.463  0.00  0.00     0.028 C 
ATOM     12  C   LIG d   1     -10.178  94.912 120.338  0.00  0.00     0.006 C 
ENDBRANCH   8  11
ENDBRANCH   7   8
ENDBRANCH   1   7
BRANCH   6  13
ATOM     13  N   LIG d   1      -3.965  94.133 119.115  0.00  0.00    -0.311 N 
ATOM     14  C   LIG d   1      -3.127  94.045 120.147  0.00  0.00     0.210 C 
ATOM     15  C   LIG d   1      -2.622  95.387 120.685  0.00  0.00     0.109 C 
ATOM     16  O   LIG d   1      -2.730  92.982 120.647  0.00  0.00    -0.276 OA
ATOM     17  H   LIG d   1      -4.208  95.034 118.753  0.00  0.00     0.149 HD
ENDBRANCH   6  13
BRANCH   5  18
ATOM     18  N   LIG d   1      -2.420  91.959 117.625  0.00  0.00     0.381 N 
ATOM     19  H   LIG d   1      -2.459  90.975 117.805  0.00  0.00    -0.090 HD
ATOM     20  H   LIG d   1      -2.128  92.423 118.466  0.00  0.00    -0.090 HD
ATOM     21  H   LIG d   1      -1.772  92.144 116.892  0.00  0.00    -0.090 HD
ENDBRANCH   5  18
BRANCH   3  22
ATOM     22  C   LIG d   1      -6.433  90.975 115.201  0.00  0.00     0.382 C 
ATOM     23  O   LIG d   1      -7.333  91.565 114.556  0.00  0.00    -0.241 OA
ATOM     24  O   LIG d   1      -6.106  89.817 114.881  0.00  0.00    -0.241 OA
ENDBRANCH   3  22
TORSDOF 7
ENDMDL
MODEL 6
REMARK VINA RESULT:      -5.0      1.613      2.662
REMARK  7 active torsions:
REMARK  status: ('A' for Active; 'I' for Inactive)
REMARK    1  A    between atoms: C_2  and  C_3 
REMARK    2  A    between atoms: C_3  and  O_6 
REMARK    3  A    between atoms: C_3  and  C_4 
REMARK    4  A    between atoms: C_7  and  O_6 
REMARK    5  A    between atoms: C_9  and  C_10 
REMARK    6  A    between atoms: N_15  and  C_14 
REMARK    7  A    between atoms: N_20  and  C_19 
REMARK       I    between atoms: C_22  and  N_20 
ROOT
ATOM      1  C   LIG d   1      -6.825  76.887 117.188  0.00  0.00     0.161 C 
ATOM      2  C   LIG d   1      -8.136  76.385 117.135  0.00  0.00     0.016 C 
ATOM      3  C   LIG d   1      -9.226  76.981 117.811  0.00  0.00     0.038 C 
ATOM      4  C   LIG d   1      -9.106  78.214 118.468  0.00  0.00     0.028 C 
ATOM      5  C   LIG d   1      -7.694  78.497 118.971  0.00  0.00    -0.047 C 
ATOM      6  C   LIG d   1      -6.696  78.293 117.809  0.00  0.00     0.091 C 
ENDROOT
BRANCH   1   7
ATOM      7  O   LIG d   1      -6.240  76.864 115.871  0.00  0.00    -0.368 OA
BRANCH   7   8
ATOM      8  C   LIG d   1      -5.132  75.950 115.681  0.00  0.00     0.119 C 
BRANCH   8   9
ATOM      9  C   LIG d   1      -5.632  74.797 114.790  0.00  0.00     0.028 C 
ATOM     10  C   LIG d   1      -5.966  73.532 115.598  0.00  0.00     0.006 C 
ENDBRANCH   8   9
BRANCH   8  11
ATOM     11  C   LIG d   1      -4.720  75.292 117.002  0.00  0.00     0.028 C 
ATOM     12  C   LIG d   1      -3.256  75.573 117.376  0.00  0.00     0.006 C 
ENDBRANCH   8  11
ENDBRANCH   7   8
ENDBRANCH   1   7
BRANCH   6  13
ATOM     13  N   LIG d   1      -5.284  78.468 118.237  0.00  0.00    -0.311 N 
ATOM     14  C   LIG d   1      -4.474  79.396 117.730  0.00  0.00     0.210 C 
ATOM     15  C   LIG d   1      -3.050  79.391 118.297  0.00  0.00     0.109 C 
ATOM     16  O   LIG d   1      -4.808  80.243 116.887  0.00  0.00    -0.276 OA
ATOM     17  H   LIG d   1      -4.939  77.843 118.939  0.00  0.00     0.149 HD
ENDBRANCH   6  13
BRANCH   5  18
ATOM     18  N   LIG d   1      -7.681  79.870 119.511  0.00  0.00     0.381 N 
ATOM     19  H   LIG d   1      -6.784  80.286 119.356  0.00  0.00    -0.090 HD
ATOM     20  H   LIG d   1      -7.843  79.831 120.502  0.00  0.00    -0.090 HD
ATOM     21  H   LIG d   1      -8.389  80.416 119.072  0.00  0.00    -0.090 HD
ENDBRANCH   5  18
BRANCH   3  22
ATOM     22  C   LIG d   1     -10.444  76.320 117.867  0.00  0.00     0.382 C 
ATOM     23  O   LIG d   1     -10.665  75.347 117.107  0.00  0.00    -0.241 OA
ATOM     24  O   LIG d   1     -11.341  76.713 118.637  0.00  0.00    -0.241 OA
ENDBRANCH   3  22
TORSDOF 7
ENDMDL
MODEL 7
REMARK VINA RESULT:      -4.9     15.896     18.450
REMARK  7 active torsions:
REMARK  status: ('A' for Active; 'I' for Inactive)
REMARK    1  A    between atoms: C_2  and  C_3 
REMARK    2  A    between atoms: C_3  and  O_6 
REMARK    3  A    between atoms: C_3  and  C_4 
REMARK    4  A    between atoms: C_7  and  O_6 
REMARK    5  A    between atoms: C_9  and  C_10 
REMARK    6  A    between atoms: N_15  and  C_14 
REMARK    7  A    between atoms: N_20  and  C_19 
REMARK       I    between atoms: C_22  and  N_20 
ROOT
ATOM      1  C   LIG d   1      -2.869  93.339 119.301  0.00  0.00     0.161 C 
ATOM      2  C   LIG d   1      -2.714  94.675 118.895  0.00  0.00     0.016 C 
ATOM      3  C   LIG d   1      -1.837  95.078 117.862  0.00  0.00     0.038 C 
ATOM      4  C   LIG d   1      -1.163  94.147 117.057  0.00  0.00     0.028 C 
ATOM      5  C   LIG d   1      -0.900  92.819 117.757  0.00  0.00    -0.047 C 
ATOM      6  C   LIG d   1      -2.225  92.299 118.361  0.00  0.00     0.091 C 
ENDROOT
BRANCH   1   7
ATOM      7  O   LIG d   1      -4.267  93.046 119.491  0.00  0.00    -0.368 OA
BRANCH   7   8
ATOM      8  C   LIG d   1      -5.158  93.469 118.429  0.00  0.00     0.119 C 
BRANCH   8   9
ATOM      9  C   LIG d   1      -6.277  94.311 119.072  0.00  0.00     0.028 C 
ATOM     10  C   LIG d   1      -7.398  94.654 118.076  0.00  0.00     0.006 C 
ENDBRANCH   8   9
BRANCH   8  11
ATOM     11  C   LIG d   1      -5.867  92.273 117.788  0.00  0.00     0.028 C 
ATOM     12  C   LIG d   1      -5.414  92.016 116.342  0.00  0.00     0.006 C 
ENDBRANCH   8  11
ENDBRANCH   7   8
ENDBRANCH   1   7
BRANCH   6  13
ATOM     13  N   LIG d   1      -2.042  91.045 119.136  0.00  0.00    -0.311 N 
ATOM     14  C   LIG d   1      -2.639  89.896 118.825  0.00  0.00     0.210 C 
ATOM     15  C   LIG d   1      -2.328  88.729 119.768  0.00  0.00     0.109 C 
ATOM     16  O   LIG d   1      -3.370  89.724 117.838  0.00  0.00    -0.276 OA
ATOM     17  H   LIG d   1      -1.439  91.086 119.935  0.00  0.00     0.149 HD
ENDBRANCH   6  13
BRANCH   5  18
ATOM     18  N   LIG d   1      -0.317  91.898 116.763  0.00  0.00     0.381 N 
ATOM     19  H   LIG d   1      -1.028  91.290 116.407  0.00  0.00    -0.090 HD
ATOM     20  H   LIG d   1       0.383  91.336 117.213  0.00  0.00    -0.090 HD
ATOM     21  H   LIG d   1       0.091  92.416 116.017  0.00  0.00    -0.090 HD
ENDBRANCH   5  18
BRANCH   3  22
ATOM     22  C   LIG d   1      -1.597  96.427 117.651  0.00  0.00     0.382 C 
ATOM     23  O   LIG d   1      -2.503  97.267 117.871  0.00  0.00    -0.241 OA
ATOM     24  O   LIG d   1      -0.501  96.811 117.201  0.00  0.00    -0.241 OA
ENDBRANCH   3  22
TORSDOF 7
ENDMDL
MODEL 8
REMARK VINA RESULT:      -4.8     15.942     17.985
REMARK  7 active torsions:
REMARK  status: ('A' for Active; 'I' for Inactive)
REMARK    1  A    between atoms: C_2  and  C_3 
REMARK    2  A    between atoms: C_3  and  O_6 
REMARK    3  A    between atoms: C_3  and  C_4 
REMARK    4  A    between atoms: C_7  and  O_6 
REMARK    5  A    between atoms: C_9  and  C_10 
REMARK    6  A    between atoms: N_15  and  C_14 
REMARK    7  A    between atoms: N_20  and  C_19 
REMARK       I    between atoms: C_22  and  N_20 
ROOT
ATOM      1  C   LIG d   1      -4.227  93.590 118.769  0.00  0.00     0.161 C 
ATOM      2  C   LIG d   1      -5.371  93.164 118.074  0.00  0.00     0.016 C 
ATOM      3  C   LIG d   1      -5.350  92.157 117.082  0.00  0.00     0.038 C 
ATOM      4  C   LIG d   1      -4.200  91.396 116.823  0.00  0.00     0.028 C 
ATOM      5  C   LIG d   1      -2.902  92.132 117.140  0.00  0.00    -0.047 C 
ATOM      6  C   LIG d   1      -2.984  92.695 118.578  0.00  0.00     0.091 C 
ENDROOT
BRANCH   1   7
ATOM      7  O   LIG d   1      -4.530  93.733 120.170  0.00  0.00    -0.368 OA
BRANCH   7   8
ATOM      8  C   LIG d   1      -5.899  94.084 120.493  0.00  0.00     0.119 C 
BRANCH   8   9
ATOM      9  C   LIG d   1      -5.919  95.581 120.859  0.00  0.00     0.028 C 
ATOM     10  C   LIG d   1      -6.312  96.470 119.667  0.00  0.00     0.006 C 
ENDBRANCH   8   9
BRANCH   8  11
ATOM     11  C   LIG d   1      -6.379  93.353 121.750  0.00  0.00     0.028 C 
ATOM     12  C   LIG d   1      -5.224  92.759 122.572  0.00  0.00     0.006 C 
ENDBRANCH   8  11
ENDBRANCH   7   8
ENDBRANCH   1   7
BRANCH   6  13
ATOM     13  N   LIG d   1      -1.789  93.502 118.939  0.00  0.00    -0.311 N 
ATOM     14  C   LIG d   1      -0.722  92.996 119.555  0.00  0.00     0.210 C 
ATOM     15  C   LIG d   1       0.391  94.005 119.853  0.00  0.00     0.109 C 
ATOM     16  O   LIG d   1      -0.578  91.800 119.853  0.00  0.00    -0.276 OA
ATOM     17  H   LIG d   1      -1.808  94.475 118.706  0.00  0.00     0.149 HD
ENDBRANCH   6  13
BRANCH   5  18
ATOM     18  N   LIG d   1      -1.792  91.179 116.955  0.00  0.00     0.381 N 
ATOM     19  H   LIG d   1      -1.214  91.476 116.195  0.00  0.00    -0.090 HD
ATOM     20  H   LIG d   1      -2.173  90.277 116.728  0.00  0.00    -0.090 HD
ATOM     21  H   LIG d   1      -1.252  91.119 117.790  0.00  0.00    -0.090 HD
ENDBRANCH   5  18
BRANCH   3  22
ATOM     22  C   LIG d   1      -6.478  91.929 116.310  0.00  0.00     0.382 C 
ATOM     23  O   LIG d   1      -6.861  92.796 115.488  0.00  0.00    -0.241 OA
ATOM     24  O   LIG d   1      -7.144  90.886 116.456  0.00  0.00    -0.241 OA
ENDBRANCH   3  22
TORSDOF 7
ENDMDL
MODEL 9
REMARK VINA RESULT:      -4.8      2.426      5.255
REMARK  7 active torsions:
REMARK  status: ('A' for Active; 'I' for Inactive)
REMARK    1  A    between atoms: C_2  and  C_3 
REMARK    2  A    between atoms: C_3  and  O_6 
REMARK    3  A    between atoms: C_3  and  C_4 
REMARK    4  A    between atoms: C_7  and  O_6 
REMARK    5  A    between atoms: C_9  and  C_10 
REMARK    6  A    between atoms: N_15  and  C_14 
REMARK    7  A    between atoms: N_20  and  C_19 
REMARK       I    between atoms: C_22  and  N_20 
ROOT
ATOM      1  C   LIG d   1      -8.269  78.428 118.337  0.00  0.00     0.161 C 
ATOM      2  C   LIG d   1      -9.523  77.798 118.408  0.00  0.00     0.016 C 
ATOM      3  C   LIG d   1      -9.755  76.475 117.965  0.00  0.00     0.038 C 
ATOM      4  C   LIG d   1      -8.709  75.635 117.557  0.00  0.00     0.028 C 
ATOM      5  C   LIG d   1      -7.509  76.391 116.994  0.00  0.00    -0.047 C 
ATOM      6  C   LIG d   1      -7.092  77.489 117.999  0.00  0.00     0.091 C 
ENDROOT
BRANCH   1   7
ATOM      7  O   LIG d   1      -8.008  79.136 119.565  0.00  0.00    -0.368 OA
BRANCH   7   8
ATOM      8  C   LIG d   1      -8.050  80.582 119.488  0.00  0.00     0.119 C 
BRANCH   8   9
ATOM      9  C   LIG d   1      -9.493  81.021 119.803  0.00  0.00     0.028 C 
ATOM     10  C   LIG d   1     -10.214  81.594 118.571  0.00  0.00     0.006 C 
ENDBRANCH   8   9
BRANCH   8  11
ATOM     11  C   LIG d   1      -7.778  81.072 118.063  0.00  0.00     0.028 C 
ATOM     12  C   LIG d   1      -6.490  81.902 117.953  0.00  0.00     0.006 C 
ENDBRANCH   8  11
ENDBRANCH   7   8
ENDBRANCH   1   7
BRANCH   6  13
ATOM     13  N   LIG d   1      -5.978  78.330 117.488  0.00  0.00    -0.311 N 
ATOM     14  C   LIG d   1      -4.696  78.095 117.764  0.00  0.00     0.210 C 
ATOM     15  C   LIG d   1      -3.710  79.096 117.153  0.00  0.00     0.109 C 
ATOM     16  O   LIG d   1      -4.280  77.135 118.429  0.00  0.00    -0.276 OA
ATOM     17  H   LIG d   1      -6.224  79.113 116.915  0.00  0.00     0.149 HD
ENDBRANCH   6  13
BRANCH   5  18
ATOM     18  N   LIG d   1      -6.442  75.405 116.739  0.00  0.00     0.381 N 
ATOM     19  H   LIG d   1      -6.353  74.790 117.523  0.00  0.00    -0.090 HD
ATOM     20  H   LIG d   1      -5.571  75.892 116.620  0.00  0.00    -0.090 HD
ATOM     21  H   LIG d   1      -6.652  74.880 115.918  0.00  0.00    -0.090 HD
ENDBRANCH   5  18
BRANCH   3  22
ATOM     22  C   LIG d   1     -11.054  75.995 117.889  0.00  0.00     0.382 C 
ATOM     23  O   LIG d   1     -11.341  75.094 117.064  0.00  0.00    -0.241 OA
ATOM     24  O   LIG d   1     -11.950  76.481 118.604  0.00  0.00    -0.241 OA
ENDBRANCH   3  22
TORSDOF 7
ENDMDL
