MODEL 1
REMARK VINA RESULT:      -5.7      0.000      0.000
REMARK  7 active torsions:
REMARK  status: ('A' for Active; 'I' for Inactive)
REMARK    1  A    between atoms: C_2  and  C_3 
REMARK    2  A    between atoms: C_3  and  O_6 
REMARK    3  A    between atoms: C_3  and  C_4 
REMARK    4  A    between atoms: C_7  and  O_6 
REMARK    5  A    between atoms: C_9  and  C_10 
REMARK    6  A    between atoms: N_15  and  C_14 
REMARK    7  A    between atoms: N_20  and  C_19 
REMARK       I    between atoms: C_22  and  N_20 
ROOT
ATOM      1  C   LIG d   1      -7.326  76.770 117.544  0.00  0.00     0.161 C 
ATOM      2  C   LIG d   1      -8.489  77.498 117.847  0.00  0.00     0.016 C 
ATOM      3  C   LIG d   1      -8.529  78.909 117.912  0.00  0.00     0.038 C 
ATOM      4  C   LIG d   1      -7.436  79.701 117.528  0.00  0.00     0.028 C 
ATOM      5  C   LIG d   1      -6.092  79.002 117.702  0.00  0.00    -0.047 C 
ATOM      6  C   LIG d   1      -6.152  77.620 117.013  0.00  0.00     0.091 C 
ENDROOT
BRANCH   1   7
ATOM      7  O   LIG d   1      -7.638  75.713 116.615  0.00  0.00    -0.368 OA
BRANCH   7   8
ATOM      8  C   LIG d   1      -7.834  74.398 117.190  0.00  0.00     0.119 C 
BRANCH   8   9
ATOM      9  C   LIG d   1      -6.833  73.442 116.513  0.00  0.00     0.028 C 
ATOM     10  C   LIG d   1      -6.176  74.066 115.270  0.00  0.00     0.006 C 
ENDBRANCH   8   9
BRANCH   8  11
ATOM     11  C   LIG d   1      -9.220  73.841 116.849  0.00  0.00     0.028 C 
ATOM     12  C   LIG d   1      -9.212  72.321 116.622  0.00  0.00     0.006 C 
ENDBRANCH   8  11
ENDBRANCH   7   8
ENDBRANCH   1   7
BRANCH   6  13
ATOM     13  N   LIG d   1      -4.905  76.835 117.207  0.00  0.00    -0.311 N 
ATOM     14  C   LIG d   1      -3.905  76.818 116.328  0.00  0.00     0.210 C 
ATOM     15  C   LIG d   1      -2.720  75.927 116.713  0.00  0.00     0.109 C 
ATOM     16  O   LIG d   1      -3.873  77.481 115.280  0.00  0.00    -0.276 OA
ATOM     17  H   LIG d   1      -4.833  76.292 118.046  0.00  0.00     0.149 HD
ENDBRANCH   6  13
BRANCH   5  18
ATOM     18  N   LIG d   1      -5.054  79.886 117.136  0.00  0.00     0.381 N 
ATOM     19  H   LIG d   1      -4.923  80.678 117.732  0.00  0.00    -0.090 HD
ATOM     20  H   LIG d   1      -5.362  80.214 116.237  0.00  0.00    -0.090 HD
ATOM     21  H   LIG d   1      -4.197  79.387 117.040  0.00  0.00    -0.090 HD
ENDBRANCH   5  18
BRANCH   3  22
ATOM     22  C   LIG d   1      -9.660  79.543 118.405  0.00  0.00     0.382 C 
ATOM     23  O   LIG d   1     -10.164  79.170 119.492  0.00  0.00    -0.241 OA
ATOM     24  O   LIG d   1     -10.209  80.452 117.754  0.00  0.00    -0.241 OA
ENDBRANCH   3  22
TORSDOF 7
ENDMDL
MODEL 2
REMARK VINA RESULT:      -5.6     13.261     15.392
REMARK  7 active torsions:
REMARK  status: ('A' for Active; 'I' for Inactive)
REMARK    1  A    between atoms: C_2  and  C_3 
REMARK    2  A    between atoms: C_3  and  O_6 
REMARK    3  A    between atoms: C_3  and  C_4 
REMARK    4  A    between atoms: C_7  and  O_6 
REMARK    5  A    between atoms: C_9  and  C_10 
REMARK    6  A    between atoms: N_15  and  C_14 
REMARK    7  A    between atoms: N_20  and  C_19 
REMARK       I    between atoms: C_22  and  N_20 
ROOT
ATOM      1  C   LIG d   1      -5.373  91.599 118.788  0.00  0.00     0.161 C 
ATOM      2  C   LIG d   1      -6.514  91.117 118.125  0.00  0.00     0.016 C 
ATOM      3  C   LIG d   1      -6.459  90.336 116.948  0.00  0.00     0.038 C 
ATOM      4  C   LIG d   1      -5.246  89.852 116.435  0.00  0.00     0.028 C 
ATOM      5  C   LIG d   1      -4.049  90.731 116.782  0.00  0.00    -0.047 C 
ATOM      6  C   LIG d   1      -4.040  90.988 118.306  0.00  0.00     0.091 C 
ENDROOT
BRANCH   1   7
ATOM      7  O   LIG d   1      -5.522  91.418 120.210  0.00  0.00    -0.368 OA
BRANCH   7   8
ATOM      8  C   LIG d   1      -5.650  92.628 120.996  0.00  0.00     0.119 C 
BRANCH   8   9
ATOM      9  C   LIG d   1      -5.643  93.819 120.018  0.00  0.00     0.028 C 
ATOM     10  C   LIG d   1      -4.642  94.912 120.430  0.00  0.00     0.006 C 
ENDBRANCH   8   9
BRANCH   8  11
ATOM     11  C   LIG d   1      -4.431  92.838 121.899  0.00  0.00     0.028 C 
ATOM     12  C   LIG d   1      -3.757  91.519 122.307  0.00  0.00     0.006 C 
ENDBRANCH   8  11
ENDBRANCH   7   8
ENDBRANCH   1   7
BRANCH   6  13
ATOM     13  N   LIG d   1      -2.949  91.909 118.719  0.00  0.00    -0.311 N 
ATOM     14  C   LIG d   1      -1.765  91.490 119.164  0.00  0.00     0.210 C 
ATOM     15  C   LIG d   1      -0.790  92.605 119.556  0.00  0.00     0.109 C 
ATOM     16  O   LIG d   1      -1.419  90.301 119.241  0.00  0.00    -0.276 OA
ATOM     17  H   LIG d   1      -3.133  92.891 118.659  0.00  0.00     0.149 HD
ENDBRANCH   6  13
BRANCH   5  18
ATOM     18  N   LIG d   1      -2.836  90.040 116.305  0.00  0.00     0.381 N 
ATOM     19  H   LIG d   1      -2.887  89.068 116.537  0.00  0.00    -0.090 HD
ATOM     20  H   LIG d   1      -2.035  90.433 116.767  0.00  0.00    -0.090 HD
ATOM     21  H   LIG d   1      -2.747  90.149 115.319  0.00  0.00    -0.090 HD
ENDBRANCH   5  18
BRANCH   3  22
ATOM     22  C   LIG d   1      -7.625  90.064 116.249  0.00  0.00     0.382 C 
ATOM     23  O   LIG d   1      -7.876  90.680 115.185  0.00  0.00    -0.241 OA
ATOM     24  O   LIG d   1      -8.450  89.242 116.691  0.00  0.00    -0.241 OA
ENDBRANCH   3  22
TORSDOF 7
ENDMDL
MODEL 3
REMARK VINA RESULT:      -5.4      1.928      2.897
REMARK  7 active torsions:
REMARK  status: ('A' for Active; 'I' for Inactive)
REMARK    1  A    between atoms: C_2  and  C_3 
REMARK    2  A    between atoms: C_3  and  O_6 
REMARK    3  A    between atoms: C_3  and  C_4 
REMARK    4  A    between atoms: C_7  and  O_6 
REMARK    5  A    between atoms: C_9  and  C_10 
REMARK    6  A    between atoms: N_15  and  C_14 
REMARK    7  A    between atoms: N_20  and  C_19 
REMARK       I    between atoms: C_22  and  N_20 
ROOT
ATOM      1  C   LIG d   1      -5.654  75.114 117.908  0.00  0.00     0.161 C 
ATOM      2  C   LIG d   1      -6.875  75.794 117.767  0.00  0.00     0.016 C 
ATOM      3  C   LIG d   1      -6.973  77.197 117.626  0.00  0.00     0.038 C 
ATOM      4  C   LIG d   1      -5.840  78.007 117.464  0.00  0.00     0.028 C 
ATOM      5  C   LIG d   1      -4.584  77.426 118.105  0.00  0.00    -0.047 C 
ATOM      6  C   LIG d   1      -4.402  75.969 117.622  0.00  0.00     0.091 C 
ENDROOT
BRANCH   1   7
ATOM      7  O   LIG d   1      -5.654  73.933 117.082  0.00  0.00    -0.368 OA
BRANCH   7   8
ATOM      8  C   LIG d   1      -6.460  73.996 115.880  0.00  0.00     0.119 C 
BRANCH   8   9
ATOM      9  C   LIG d   1      -7.099  72.608 115.678  0.00  0.00     0.028 C 
ATOM     10  C   LIG d   1      -8.513  72.521 116.276  0.00  0.00     0.006 C 
ENDBRANCH   8   9
BRANCH   8  11
ATOM     11  C   LIG d   1      -5.593  74.228 114.639  0.00  0.00     0.028 C 
ATOM     12  C   LIG d   1      -5.582  75.696 114.186  0.00  0.00     0.006 C 
ENDBRANCH   8  11
ENDBRANCH   7   8
ENDBRANCH   1   7
BRANCH   6  13
ATOM     13  N   LIG d   1      -3.242  75.299 118.267  0.00  0.00    -0.311 N 
ATOM     14  C   LIG d   1      -2.277  74.685 117.584  0.00  0.00     0.210 C 
ATOM     15  C   LIG d   1      -1.186  74.042 118.444  0.00  0.00     0.109 C 
ATOM     16  O   LIG d   1      -2.205  74.641 116.347  0.00  0.00    -0.276 OA
ATOM     17  H   LIG d   1      -3.205  75.314 119.267  0.00  0.00     0.149 HD
ENDBRANCH   6  13
BRANCH   5  18
ATOM     18  N   LIG d   1      -3.453  78.301 117.742  0.00  0.00     0.381 N 
ATOM     19  H   LIG d   1      -3.579  78.651 116.813  0.00  0.00    -0.090 HD
ATOM     20  H   LIG d   1      -2.605  77.762 117.764  0.00  0.00    -0.090 HD
ATOM     21  H   LIG d   1      -3.389  79.060 118.385  0.00  0.00    -0.090 HD
ENDBRANCH   5  18
BRANCH   3  22
ATOM     22  C   LIG d   1      -8.216  77.808 117.687  0.00  0.00     0.382 C 
ATOM     23  O   LIG d   1      -8.304  79.023 117.989  0.00  0.00    -0.241 OA
ATOM     24  O   LIG d   1      -9.255  77.150 117.487  0.00  0.00    -0.241 OA
ENDBRANCH   3  22
TORSDOF 7
ENDMDL
MODEL 4
REMARK VINA RESULT:      -5.1      2.586      5.797
REMARK  7 active torsions:
REMARK  status: ('A' for Active; 'I' for Inactive)
REMARK    1  A    between atoms: C_2  and  C_3 
REMARK    2  A    between atoms: C_3  and  O_6 
REMARK    3  A    between atoms: C_3  and  C_4 
REMARK    4  A    between atoms: C_7  and  O_6 
REMARK    5  A    between atoms: C_9  and  C_10 
REMARK    6  A    between atoms: N_15  and  C_14 
REMARK    7  A    between atoms: N_20  and  C_19 
REMARK       I    between atoms: C_22  and  N_20 
ROOT
ATOM      1  C   LIG d   1      -4.612  76.218 116.591  0.00  0.00     0.161 C 
ATOM      2  C   LIG d   1      -3.583  75.475 115.987  0.00  0.00     0.016 C 
ATOM      3  C   LIG d   1      -2.460  74.986 116.692  0.00  0.00     0.038 C 
ATOM      4  C   LIG d   1      -2.363  75.079 118.089  0.00  0.00     0.028 C 
ATOM      5  C   LIG d   1      -3.130  76.261 118.672  0.00  0.00    -0.047 C 
ATOM      6  C   LIG d   1      -4.578  76.234 118.133  0.00  0.00     0.091 C 
ENDROOT
BRANCH   1   7
ATOM      7  O   LIG d   1      -5.892  75.751 116.122  0.00  0.00    -0.368 OA
BRANCH   7   8
ATOM      8  C   LIG d   1      -6.431  74.586 116.794  0.00  0.00     0.119 C 
BRANCH   8   9
ATOM      9  C   LIG d   1      -6.528  73.454 115.753  0.00  0.00     0.028 C 
ATOM     10  C   LIG d   1      -7.721  72.519 116.013  0.00  0.00     0.006 C 
ENDBRANCH   8   9
BRANCH   8  11
ATOM     11  C   LIG d   1      -7.868  74.830 117.264  0.00  0.00     0.028 C 
ATOM     12  C   LIG d   1      -8.353  76.260 116.982  0.00  0.00     0.006 C 
ENDBRANCH   8  11
ENDBRANCH   7   8
ENDBRANCH   1   7
BRANCH   6  13
ATOM     13  N   LIG d   1      -5.374  77.404 118.588  0.00  0.00    -0.311 N 
ATOM     14  C   LIG d   1      -6.127  77.396 119.687  0.00  0.00     0.210 C 
ATOM     15  C   LIG d   1      -6.882  78.700 119.963  0.00  0.00     0.109 C 
ATOM     16  O   LIG d   1      -6.217  76.443 120.476  0.00  0.00    -0.276 OA
ATOM     17  H   LIG d   1      -5.335  78.230 118.024  0.00  0.00     0.149 HD
ENDBRANCH   6  13
BRANCH   5  18
ATOM     18  N   LIG d   1      -3.057  76.158 120.142  0.00  0.00     0.381 N 
ATOM     19  H   LIG d   1      -3.182  75.206 120.421  0.00  0.00    -0.090 HD
ATOM     20  H   LIG d   1      -3.799  76.704 120.543  0.00  0.00    -0.090 HD
ATOM     21  H   LIG d   1      -2.177  76.494 120.464  0.00  0.00    -0.090 HD
ENDBRANCH   5  18
BRANCH   3  22
ATOM     22  C   LIG d   1      -1.398  74.432 115.994  0.00  0.00     0.382 C 
ATOM     23  O   LIG d   1      -1.192  74.761 114.801  0.00  0.00    -0.241 OA
ATOM     24  O   LIG d   1      -0.671  73.573 116.528  0.00  0.00    -0.241 OA
ENDBRANCH   3  22
TORSDOF 7
ENDMDL
MODEL 5
REMARK VINA RESULT:      -5.1      2.204      4.750
REMARK  7 active torsions:
REMARK  status: ('A' for Active; 'I' for Inactive)
REMARK    1  A    between atoms: C_2  and  C_3 
REMARK    2  A    between atoms: C_3  and  O_6 
REMARK    3  A    between atoms: C_3  and  C_4 
REMARK    4  A    between atoms: C_7  and  O_6 
REMARK    5  A    between atoms: C_9  and  C_10 
REMARK    6  A    between atoms: N_15  and  C_14 
REMARK    7  A    between atoms: N_20  and  C_19 
REMARK       I    between atoms: C_22  and  N_20 
ROOT
ATOM      1  C   LIG d   1      -5.273  76.201 117.925  0.00  0.00     0.161 C 
ATOM      2  C   LIG d   1      -5.829  74.938 117.662  0.00  0.00     0.016 C 
ATOM      3  C   LIG d   1      -7.199  74.736 117.378  0.00  0.00     0.038 C 
ATOM      4  C   LIG d   1      -8.084  75.808 117.188  0.00  0.00     0.028 C 
ATOM      5  C   LIG d   1      -7.676  77.070 117.941  0.00  0.00    -0.047 C 
ATOM      6  C   LIG d   1      -6.200  77.394 117.614  0.00  0.00     0.091 C 
ENDROOT
BRANCH   1   7
ATOM      7  O   LIG d   1      -4.023  76.341 117.221  0.00  0.00    -0.368 OA
BRANCH   7   8
ATOM      8  C   LIG d   1      -3.839  75.478 116.072  0.00  0.00     0.119 C 
BRANCH   8   9
ATOM      9  C   LIG d   1      -2.336  75.153 115.973  0.00  0.00     0.028 C 
ATOM     10  C   LIG d   1      -1.833  74.330 117.171  0.00  0.00     0.006 C 
ENDBRANCH   8   9
BRANCH   8  11
ATOM     11  C   LIG d   1      -4.183  76.206 114.769  0.00  0.00     0.028 C 
ATOM     12  C   LIG d   1      -5.375  75.575 114.031  0.00  0.00     0.006 C 
ENDBRANCH   8  11
ENDBRANCH   7   8
ENDBRANCH   1   7
BRANCH   6  13
ATOM     13  N   LIG d   1      -5.695  78.567 118.375  0.00  0.00    -0.311 N 
ATOM     14  C   LIG d   1      -5.749  79.816 117.917  0.00  0.00     0.210 C 
ATOM     15  C   LIG d   1      -5.155  80.874 118.852  0.00  0.00     0.109 C 
ATOM     16  O   LIG d   1      -6.261  80.153 116.839  0.00  0.00    -0.276 OA
ATOM     17  H   LIG d   1      -5.291  78.388 119.273  0.00  0.00     0.149 HD
ENDBRANCH   6  13
BRANCH   5  18
ATOM     18  N   LIG d   1      -8.605  78.145 117.546  0.00  0.00     0.381 N 
ATOM     19  H   LIG d   1      -9.490  77.752 117.293  0.00  0.00    -0.090 HD
ATOM     20  H   LIG d   1      -8.230  78.620 116.744  0.00  0.00    -0.090 HD
ATOM     21  H   LIG d   1      -8.722  78.788 118.298  0.00  0.00    -0.090 HD
ENDBRANCH   5  18
BRANCH   3  22
ATOM     22  C   LIG d   1      -7.706  73.446 117.320  0.00  0.00     0.382 C 
ATOM     23  O   LIG d   1      -8.810  73.231 116.765  0.00  0.00    -0.241 OA
ATOM     24  O   LIG d   1      -7.093  72.502 117.855  0.00  0.00    -0.241 OA
ENDBRANCH   3  22
TORSDOF 7
ENDMDL
MODEL 6
REMARK VINA RESULT:      -4.9      3.022      4.258
REMARK  7 active torsions:
REMARK  status: ('A' for Active; 'I' for Inactive)
REMARK    1  A    between atoms: C_2  and  C_3 
REMARK    2  A    between atoms: C_3  and  O_6 
REMARK    3  A    between atoms: C_3  and  C_4 
REMARK    4  A    between atoms: C_7  and  O_6 
REMARK    5  A    between atoms: C_9  and  C_10 
REMARK    6  A    between atoms: N_15  and  C_14 
REMARK    7  A    between atoms: N_20  and  C_19 
REMARK       I    between atoms: C_22  and  N_20 
ROOT
ATOM      1  C   LIG d   1      -4.244  75.700 117.806  0.00  0.00     0.161 C 
ATOM      2  C   LIG d   1      -4.951  76.835 117.375  0.00  0.00     0.016 C 
ATOM      3  C   LIG d   1      -4.329  78.059 117.041  0.00  0.00     0.038 C 
ATOM      4  C   LIG d   1      -2.934  78.187 116.969  0.00  0.00     0.028 C 
ATOM      5  C   LIG d   1      -2.190  77.218 117.882  0.00  0.00    -0.047 C 
ATOM      6  C   LIG d   1      -2.714  75.786 117.628  0.00  0.00     0.091 C 
ENDROOT
BRANCH   1   7
ATOM      7  O   LIG d   1      -4.760  74.525 117.150  0.00  0.00    -0.368 OA
BRANCH   7   8
ATOM      8  C   LIG d   1      -5.813  74.746 116.181  0.00  0.00     0.119 C 
BRANCH   8   9
ATOM      9  C   LIG d   1      -6.880  73.656 116.399  0.00  0.00     0.028 C 
ATOM     10  C   LIG d   1      -6.875  73.109 117.837  0.00  0.00     0.006 C 
ENDBRANCH   8   9
BRANCH   8  11
ATOM     11  C   LIG d   1      -5.307  74.538 114.750  0.00  0.00     0.028 C 
ATOM     12  C   LIG d   1      -5.455  75.795 113.878  0.00  0.00     0.006 C 
ENDBRANCH   8  11
ENDBRANCH   7   8
ENDBRANCH   1   7
BRANCH   6  13
ATOM     13  N   LIG d   1      -2.098  74.787 118.539  0.00  0.00    -0.311 N 
ATOM     14  C   LIG d   1      -1.304  73.803 118.120  0.00  0.00     0.210 C 
ATOM     15  C   LIG d   1      -0.792  72.871 119.223  0.00  0.00     0.109 C 
ATOM     16  O   LIG d   1      -0.950  73.633 116.944  0.00  0.00    -0.276 OA
ATOM     17  H   LIG d   1      -2.308  74.869 119.515  0.00  0.00     0.149 HD
ENDBRANCH   6  13
BRANCH   5  18
ATOM     18  N   LIG d   1      -0.748  77.363 117.606  0.00  0.00     0.381 N 
ATOM     19  H   LIG d   1      -0.261  76.543 117.908  0.00  0.00    -0.090 HD
ATOM     20  H   LIG d   1      -0.395  78.148 118.125  0.00  0.00    -0.090 HD
ATOM     21  H   LIG d   1      -0.600  77.506 116.631  0.00  0.00    -0.090 HD
ENDBRANCH   5  18
BRANCH   3  22
ATOM     22  C   LIG d   1      -5.105  79.185 116.812  0.00  0.00     0.382 C 
ATOM     23  O   LIG d   1      -4.556  80.288 116.572  0.00  0.00    -0.241 OA
ATOM     24  O   LIG d   1      -6.347  79.122 116.885  0.00  0.00    -0.241 OA
ENDBRANCH   3  22
TORSDOF 7
ENDMDL
MODEL 7
REMARK VINA RESULT:      -4.8      2.495      6.146
REMARK  7 active torsions:
REMARK  status: ('A' for Active; 'I' for Inactive)
REMARK    1  A    between atoms: C_2  and  C_3 
REMARK    2  A    between atoms: C_3  and  O_6 
REMARK    3  A    between atoms: C_3  and  C_4 
REMARK    4  A    between atoms: C_7  and  O_6 
REMARK    5  A    between atoms: C_9  and  C_10 
REMARK    6  A    between atoms: N_15  and  C_14 
REMARK    7  A    between atoms: N_20  and  C_19 
REMARK       I    between atoms: C_22  and  N_20 
ROOT
ATOM      1  C   LIG d   1      -6.008  78.366 117.402  0.00  0.00     0.161 C 
ATOM      2  C   LIG d   1      -5.964  77.025 116.985  0.00  0.00     0.016 C 
ATOM      3  C   LIG d   1      -7.102  76.187 116.939  0.00  0.00     0.038 C 
ATOM      4  C   LIG d   1      -8.396  76.680 117.164  0.00  0.00     0.028 C 
ATOM      5  C   LIG d   1      -8.428  77.902 118.077  0.00  0.00    -0.047 C 
ATOM      6  C   LIG d   1      -7.428  78.953 117.544  0.00  0.00     0.091 C 
ENDROOT
BRANCH   1   7
ATOM      7  O   LIG d   1      -5.216  79.179 116.513  0.00  0.00    -0.368 OA
BRANCH   7   8
ATOM      8  C   LIG d   1      -3.917  79.585 117.008  0.00  0.00     0.119 C 
BRANCH   8   9
ATOM      9  C   LIG d   1      -4.001  81.084 117.355  0.00  0.00     0.028 C 
ATOM     10  C   LIG d   1      -3.873  81.344 118.866  0.00  0.00     0.006 C 
ENDBRANCH   8   9
BRANCH   8  11
ATOM     11  C   LIG d   1      -2.847  79.481 115.917  0.00  0.00     0.028 C 
ATOM     12  C   LIG d   1      -2.675  80.787 115.125  0.00  0.00     0.006 C 
ENDBRANCH   8  11
ENDBRANCH   7   8
ENDBRANCH   1   7
BRANCH   6  13
ATOM     13  N   LIG d   1      -7.335  80.145 118.427  0.00  0.00    -0.311 N 
ATOM     14  C   LIG d   1      -7.686  81.371 118.042  0.00  0.00     0.210 C 
ATOM     15  C   LIG d   1      -7.492  82.461 119.101  0.00  0.00     0.109 C 
ATOM     16  O   LIG d   1      -8.171  81.653 116.936  0.00  0.00    -0.276 OA
ATOM     17  H   LIG d   1      -6.981  80.001 119.352  0.00  0.00     0.149 HD
ENDBRANCH   6  13
BRANCH   5  18
ATOM     18  N   LIG d   1      -9.818  78.393 118.115  0.00  0.00     0.381 N 
ATOM     19  H   LIG d   1     -10.063  78.787 117.228  0.00  0.00    -0.090 HD
ATOM     20  H   LIG d   1      -9.889  79.115 118.810  0.00  0.00    -0.090 HD
ATOM     21  H   LIG d   1     -10.438  77.646 118.337  0.00  0.00    -0.090 HD
ENDBRANCH   5  18
BRANCH   3  22
ATOM     22  C   LIG d   1      -6.947  74.829 116.704  0.00  0.00     0.382 C 
ATOM     23  O   LIG d   1      -5.961  74.415 116.048  0.00  0.00    -0.241 OA
ATOM     24  O   LIG d   1      -7.804  74.017 117.102  0.00  0.00    -0.241 OA
ENDBRANCH   3  22
TORSDOF 7
ENDMDL
MODEL 8
REMARK VINA RESULT:      -4.7     12.406     14.251
REMARK  7 active torsions:
REMARK  status: ('A' for Active; 'I' for Inactive)
REMARK    1  A    between atoms: C_2  and  C_3 
REMARK    2  A    between atoms: C_3  and  O_6 
REMARK    3  A    between atoms: C_3  and  C_4 
REMARK    4  A    between atoms: C_7  and  O_6 
REMARK    5  A    between atoms: C_9  and  C_10 
REMARK    6  A    between atoms: N_15  and  C_14 
REMARK    7  A    between atoms: N_20  and  C_19 
REMARK       I    between atoms: C_22  and  N_20 
ROOT
ATOM      1  C   LIG d   1     -16.256  65.599 118.173  0.00  0.00     0.161 C 
ATOM      2  C   LIG d   1     -16.473  66.974 118.359  0.00  0.00     0.016 C 
ATOM      3  C   LIG d   1     -15.588  67.813 119.074  0.00  0.00     0.038 C 
ATOM      4  C   LIG d   1     -14.340  67.359 119.526  0.00  0.00     0.028 C 
ATOM      5  C   LIG d   1     -14.304  65.859 119.802  0.00  0.00    -0.047 C 
ATOM      6  C   LIG d   1     -14.846  65.109 118.564  0.00  0.00     0.091 C 
ENDROOT
BRANCH   1   7
ATOM      7  O   LIG d   1     -16.553  65.237 116.810  0.00  0.00    -0.368 OA
BRANCH   7   8
ATOM      8  C   LIG d   1     -16.850  66.332 115.910  0.00  0.00     0.119 C 
BRANCH   8   9
ATOM      9  C   LIG d   1     -18.111  65.948 115.113  0.00  0.00     0.028 C 
ATOM     10  C   LIG d   1     -17.777  65.216 113.802  0.00  0.00     0.006 C 
ENDBRANCH   8   9
BRANCH   8  11
ATOM     11  C   LIG d   1     -15.746  66.508 114.862  0.00  0.00     0.028 C 
ATOM     12  C   LIG d   1     -15.003  67.847 114.998  0.00  0.00     0.006 C 
ENDBRANCH   8  11
ENDBRANCH   7   8
ENDBRANCH   1   7
BRANCH   6  13
ATOM     13  N   LIG d   1     -14.925  63.640 118.781  0.00  0.00    -0.311 N 
ATOM     14  C   LIG d   1     -13.987  62.788 118.371  0.00  0.00     0.210 C 
ATOM     15  C   LIG d   1     -14.274  61.315 118.679  0.00  0.00     0.109 C 
ATOM     16  O   LIG d   1     -12.930  63.114 117.811  0.00  0.00    -0.276 OA
ATOM     17  H   LIG d   1     -15.734  63.292 119.255  0.00  0.00     0.149 HD
ENDBRANCH   6  13
BRANCH   5  18
ATOM     18  N   LIG d   1     -12.913  65.500 120.133  0.00  0.00     0.381 N 
ATOM     19  H   LIG d   1     -12.423  65.238 119.300  0.00  0.00    -0.090 HD
ATOM     20  H   LIG d   1     -12.920  64.711 120.755  0.00  0.00    -0.090 HD
ATOM     21  H   LIG d   1     -12.455  66.271 120.567  0.00  0.00    -0.090 HD
ENDBRANCH   5  18
BRANCH   3  22
ATOM     22  C   LIG d   1     -15.966  69.112 119.378  0.00  0.00     0.382 C 
ATOM     23  O   LIG d   1     -16.046  69.477 120.575  0.00  0.00    -0.241 OA
ATOM     24  O   LIG d   1     -16.270  69.909 118.471  0.00  0.00    -0.241 OA
ENDBRANCH   3  22
TORSDOF 7
ENDMDL
MODEL 9
REMARK VINA RESULT:      -4.7      2.146      4.296
REMARK  7 active torsions:
REMARK  status: ('A' for Active; 'I' for Inactive)
REMARK    1  A    between atoms: C_2  and  C_3 
REMARK    2  A    between atoms: C_3  and  O_6 
REMARK    3  A    between atoms: C_3  and  C_4 
REMARK    4  A    between atoms: C_7  and  O_6 
REMARK    5  A    between atoms: C_9  and  C_10 
REMARK    6  A    between atoms: N_15  and  C_14 
REMARK    7  A    between atoms: N_20  and  C_19 
REMARK       I    between atoms: C_22  and  N_20 
ROOT
ATOM      1  C   LIG d   1      -6.321  77.064 117.137  0.00  0.00     0.161 C 
ATOM      2  C   LIG d   1      -6.533  78.398 117.522  0.00  0.00     0.016 C 
ATOM      3  C   LIG d   1      -7.809  78.928 117.822  0.00  0.00     0.038 C 
ATOM      4  C   LIG d   1      -8.949  78.115 117.904  0.00  0.00     0.028 C 
ATOM      5  C   LIG d   1      -8.867  76.866 117.033  0.00  0.00    -0.047 C 
ATOM      6  C   LIG d   1      -7.538  76.134 117.329  0.00  0.00     0.091 C 
ENDROOT
BRANCH   1   7
ATOM      7  O   LIG d   1      -5.172  76.533 117.825  0.00  0.00    -0.368 OA
BRANCH   7   8
ATOM      8  C   LIG d   1      -3.914  76.598 117.109  0.00  0.00     0.119 C 
BRANCH   8   9
ATOM      9  C   LIG d   1      -3.606  75.181 116.586  0.00  0.00     0.028 C 
ATOM     10  C   LIG d   1      -2.776  74.354 117.582  0.00  0.00     0.006 C 
ENDBRANCH   8   9
BRANCH   8  11
ATOM     11  C   LIG d   1      -2.755  76.943 118.049  0.00  0.00     0.028 C 
ATOM     12  C   LIG d   1      -3.209  77.720 119.295  0.00  0.00     0.006 C 
ENDBRANCH   8  11
ENDBRANCH   7   8
ENDBRANCH   1   7
BRANCH   6  13
ATOM     13  N   LIG d   1      -7.338  74.947 116.458  0.00  0.00    -0.311 N 
ATOM     14  C   LIG d   1      -7.038  73.736 116.926  0.00  0.00     0.210 C 
ATOM     15  C   LIG d   1      -6.855  72.656 115.855  0.00  0.00     0.109 C 
ATOM     16  O   LIG d   1      -6.937  73.448 118.127  0.00  0.00    -0.276 OA
ATOM     17  H   LIG d   1      -7.433  75.084 115.470  0.00  0.00     0.149 HD
ENDBRANCH   6  13
BRANCH   5  18
ATOM     18  N   LIG d   1     -10.057  76.043 117.319  0.00  0.00     0.381 N 
ATOM     19  H   LIG d   1     -10.555  75.861 116.471  0.00  0.00    -0.090 HD
ATOM     20  H   LIG d   1     -10.662  76.552 117.938  0.00  0.00    -0.090 HD
ATOM     21  H   LIG d   1      -9.783  75.184 117.743  0.00  0.00    -0.090 HD
ENDBRANCH   5  18
BRANCH   3  22
ATOM     22  C   LIG d   1      -7.960  80.294 118.005  0.00  0.00     0.382 C 
ATOM     23  O   LIG d   1      -7.694  81.085 117.068  0.00  0.00    -0.241 OA
ATOM     24  O   LIG d   1      -8.316  80.748 119.108  0.00  0.00    -0.241 OA
ENDBRANCH   3  22
TORSDOF 7
ENDMDL
