MODEL 1
REMARK VINA RESULT:      -6.1      0.000      0.000
REMARK  7 active torsions:
REMARK  status: ('A' for Active; 'I' for Inactive)
REMARK    1  A    between atoms: C_2  and  C_3 
REMARK    2  A    between atoms: C_3  and  O_6 
REMARK    3  A    between atoms: C_3  and  C_4 
REMARK    4  A    between atoms: C_7  and  O_6 
REMARK    5  A    between atoms: C_9  and  C_10 
REMARK    6  A    between atoms: N_15  and  C_14 
REMARK    7  A    between atoms: N_20  and  C_19 
REMARK       I    between atoms: C_22  and  N_20 
ROOT
ATOM      1  C   LIG d   1      -6.953  76.025 115.804  0.00  0.00     0.161 C 
ATOM      2  C   LIG d   1      -5.686  75.843 115.226  0.00  0.00     0.016 C 
ATOM      3  C   LIG d   1      -4.478  76.188 115.874  0.00  0.00     0.038 C 
ATOM      4  C   LIG d   1      -4.448  76.602 117.214  0.00  0.00     0.028 C 
ATOM      5  C   LIG d   1      -5.736  77.279 117.668  0.00  0.00    -0.047 C 
ATOM      6  C   LIG d   1      -6.934  76.372 117.307  0.00  0.00     0.091 C 
ENDROOT
BRANCH   1   7
ATOM      7  O   LIG d   1      -7.770  74.861 115.568  0.00  0.00    -0.368 OA
BRANCH   7   8
ATOM      8  C   LIG d   1      -7.924  73.954 116.687  0.00  0.00     0.119 C 
BRANCH   8   9
ATOM      9  C   LIG d   1      -7.039  72.723 116.410  0.00  0.00     0.028 C 
ATOM     10  C   LIG d   1      -7.813  71.587 115.721  0.00  0.00     0.006 C 
ENDBRANCH   8   9
BRANCH   8  11
ATOM     11  C   LIG d   1      -9.355  73.413 116.774  0.00  0.00     0.028 C 
ATOM     12  C   LIG d   1     -10.415  74.486 116.478  0.00  0.00     0.006 C 
ENDBRANCH   8  11
ENDBRANCH   7   8
ENDBRANCH   1   7
BRANCH   6  13
ATOM     13  N   LIG d   1      -8.240  76.998 117.641  0.00  0.00    -0.311 N 
ATOM     14  C   LIG d   1      -8.875  76.798 118.795  0.00  0.00     0.210 C 
ATOM     15  C   LIG d   1     -10.218  77.523 118.927  0.00  0.00     0.109 C 
ATOM     16  O   LIG d   1      -8.439  76.116 119.734  0.00  0.00    -0.276 OA
ATOM     17  H   LIG d   1      -8.652  77.592 116.948  0.00  0.00     0.149 HD
ENDBRANCH   6  13
BRANCH   5  18
ATOM     18  N   LIG d   1      -5.619  77.534 119.116  0.00  0.00     0.381 N 
ATOM     19  H   LIG d   1      -6.450  77.229 119.582  0.00  0.00    -0.090 HD
ATOM     20  H   LIG d   1      -5.520  78.523 119.265  0.00  0.00    -0.090 HD
ATOM     21  H   LIG d   1      -4.828  77.054 119.484  0.00  0.00    -0.090 HD
ENDBRANCH   5  18
BRANCH   3  22
ATOM     22  C   LIG d   1      -3.286  76.158 115.167  0.00  0.00     0.382 C 
ATOM     23  O   LIG d   1      -3.149  75.369 114.201  0.00  0.00    -0.241 OA
ATOM     24  O   LIG d   1      -2.329  76.878 115.510  0.00  0.00    -0.241 OA
ENDBRANCH   3  22
TORSDOF 7
ENDMDL
MODEL 2
REMARK VINA RESULT:      -6.1      8.796     12.499
REMARK  7 active torsions:
REMARK  status: ('A' for Active; 'I' for Inactive)
REMARK    1  A    between atoms: C_2  and  C_3 
REMARK    2  A    between atoms: C_3  and  O_6 
REMARK    3  A    between atoms: C_3  and  C_4 
REMARK    4  A    between atoms: C_7  and  O_6 
REMARK    5  A    between atoms: C_9  and  C_10 
REMARK    6  A    between atoms: N_15  and  C_14 
REMARK    7  A    between atoms: N_20  and  C_19 
REMARK       I    between atoms: C_22  and  N_20 
ROOT
ATOM      1  C   LIG d   1       0.521  82.517 112.156  0.00  0.00     0.161 C 
ATOM      2  C   LIG d   1      -0.730  82.152 112.680  0.00  0.00     0.016 C 
ATOM      3  C   LIG d   1      -1.436  80.995 112.275  0.00  0.00     0.038 C 
ATOM      4  C   LIG d   1      -0.865  80.039 111.423  0.00  0.00     0.028 C 
ATOM      5  C   LIG d   1       0.185  80.617 110.481  0.00  0.00    -0.047 C 
ATOM      6  C   LIG d   1       1.209  81.427 111.307  0.00  0.00     0.091 C 
ENDROOT
BRANCH   1   7
ATOM      7  O   LIG d   1       1.391  82.945 113.222  0.00  0.00    -0.368 OA
BRANCH   7   8
ATOM      8  C   LIG d   1       1.330  84.351 113.569  0.00  0.00     0.119 C 
BRANCH   8   9
ATOM      9  C   LIG d   1       2.775  84.884 113.596  0.00  0.00     0.028 C 
ATOM     10  C   LIG d   1       3.367  85.048 112.186  0.00  0.00     0.006 C 
ENDBRANCH   8   9
BRANCH   8  11
ATOM     11  C   LIG d   1       0.796  84.552 114.990  0.00  0.00     0.028 C 
ATOM     12  C   LIG d   1      -0.434  85.471 115.041  0.00  0.00     0.006 C 
ENDBRANCH   8  11
ENDBRANCH   7   8
ENDBRANCH   1   7
BRANCH   6  13
ATOM     13  N   LIG d   1       2.225  82.097 110.453  0.00  0.00    -0.311 N 
ATOM     14  C   LIG d   1       3.422  81.576 110.192  0.00  0.00     0.210 C 
ATOM     15  C   LIG d   1       4.324  82.440 109.305  0.00  0.00     0.109 C 
ATOM     16  O   LIG d   1       3.811  80.465 110.584  0.00  0.00    -0.276 OA
ATOM     17  H   LIG d   1       1.980  82.988 110.068  0.00  0.00     0.149 HD
ENDBRANCH   6  13
BRANCH   5  18
ATOM     18  N   LIG d   1       0.795  79.491 109.748  0.00  0.00     0.381 N 
ATOM     19  H   LIG d   1       0.401  79.431 108.830  0.00  0.00    -0.090 HD
ATOM     20  H   LIG d   1       0.590  78.636 110.236  0.00  0.00    -0.090 HD
ATOM     21  H   LIG d   1       1.781  79.618 109.687  0.00  0.00    -0.090 HD
ENDBRANCH   5  18
BRANCH   3  22
ATOM     22  C   LIG d   1      -2.745  80.807 112.694  0.00  0.00     0.382 C 
ATOM     23  O   LIG d   1      -3.044  79.804 113.386  0.00  0.00    -0.241 OA
ATOM     24  O   LIG d   1      -3.638  81.604 112.351  0.00  0.00    -0.241 OA
ENDBRANCH   3  22
TORSDOF 7
ENDMDL
MODEL 3
REMARK VINA RESULT:      -5.8      9.979     12.883
REMARK  7 active torsions:
REMARK  status: ('A' for Active; 'I' for Inactive)
REMARK    1  A    between atoms: C_2  and  C_3 
REMARK    2  A    between atoms: C_3  and  O_6 
REMARK    3  A    between atoms: C_3  and  C_4 
REMARK    4  A    between atoms: C_7  and  O_6 
REMARK    5  A    between atoms: C_9  and  C_10 
REMARK    6  A    between atoms: N_15  and  C_14 
REMARK    7  A    between atoms: N_20  and  C_19 
REMARK       I    between atoms: C_22  and  N_20 
ROOT
ATOM      1  C   LIG d   1       0.553  84.182 110.766  0.00  0.00     0.161 C 
ATOM      2  C   LIG d   1       1.484  85.231 110.693  0.00  0.00     0.016 C 
ATOM      3  C   LIG d   1       1.965  85.925 111.827  0.00  0.00     0.038 C 
ATOM      4  C   LIG d   1       1.660  85.512 113.133  0.00  0.00     0.028 C 
ATOM      5  C   LIG d   1       0.328  84.777 113.240  0.00  0.00    -0.047 C 
ATOM      6  C   LIG d   1       0.294  83.645 112.189  0.00  0.00     0.091 C 
ENDROOT
BRANCH   1   7
ATOM      7  O   LIG d   1       0.957  83.109 109.891  0.00  0.00    -0.368 OA
BRANCH   7   8
ATOM      8  C   LIG d   1       2.102  82.333 110.321  0.00  0.00     0.119 C 
BRANCH   8   9
ATOM      9  C   LIG d   1       3.262  82.644 109.355  0.00  0.00     0.028 C 
ATOM     10  C   LIG d   1       4.418  83.386 110.045  0.00  0.00     0.006 C 
ENDBRANCH   8   9
BRANCH   8  11
ATOM     11  C   LIG d   1       1.844  80.831 110.175  0.00  0.00     0.028 C 
ATOM     12  C   LIG d   1       0.369  80.504 109.892  0.00  0.00     0.006 C 
ENDBRANCH   8  11
ENDBRANCH   7   8
ENDBRANCH   1   7
BRANCH   6  13
ATOM     13  N   LIG d   1      -1.008  82.929 112.169  0.00  0.00    -0.311 N 
ATOM     14  C   LIG d   1      -1.248  81.823 112.872  0.00  0.00     0.210 C 
ATOM     15  C   LIG d   1      -2.650  81.234 112.692  0.00  0.00     0.109 C 
ATOM     16  O   LIG d   1      -0.443  81.293 113.652  0.00  0.00    -0.276 OA
ATOM     17  H   LIG d   1      -1.729  83.309 111.586  0.00  0.00     0.149 HD
ENDBRANCH   6  13
BRANCH   5  18
ATOM     18  N   LIG d   1       0.201  84.285 114.625  0.00  0.00     0.381 N 
ATOM     19  H   LIG d   1      -0.274  84.965 115.184  0.00  0.00    -0.090 HD
ATOM     20  H   LIG d   1       1.121  84.149 115.007  0.00  0.00    -0.090 HD
ATOM     21  H   LIG d   1      -0.301  83.425 114.636  0.00  0.00    -0.090 HD
ENDBRANCH   5  18
BRANCH   3  22
ATOM     22  C   LIG d   1       2.730  87.069 111.660  0.00  0.00     0.382 C 
ATOM     23  O   LIG d   1       2.170  88.187 111.553  0.00  0.00    -0.241 OA
ATOM     24  O   LIG d   1       3.970  86.993 111.570  0.00  0.00    -0.241 OA
ENDBRANCH   3  22
TORSDOF 7
ENDMDL
MODEL 4
REMARK VINA RESULT:      -5.7      3.857      5.983
REMARK  7 active torsions:
REMARK  status: ('A' for Active; 'I' for Inactive)
REMARK    1  A    between atoms: C_2  and  C_3 
REMARK    2  A    between atoms: C_3  and  O_6 
REMARK    3  A    between atoms: C_3  and  C_4 
REMARK    4  A    between atoms: C_7  and  O_6 
REMARK    5  A    between atoms: C_9  and  C_10 
REMARK    6  A    between atoms: N_15  and  C_14 
REMARK    7  A    between atoms: N_20  and  C_19 
REMARK       I    between atoms: C_22  and  N_20 
ROOT
ATOM      1  C   LIG d   1      -1.832  75.579 114.980  0.00  0.00     0.161 C 
ATOM      2  C   LIG d   1      -1.770  74.801 116.148  0.00  0.00     0.016 C 
ATOM      3  C   LIG d   1      -1.222  75.267 117.365  0.00  0.00     0.038 C 
ATOM      4  C   LIG d   1      -0.833  76.603 117.540  0.00  0.00     0.028 C 
ATOM      5  C   LIG d   1      -0.410  77.285 116.244  0.00  0.00    -0.047 C 
ATOM      6  C   LIG d   1      -1.514  77.076 115.183  0.00  0.00     0.091 C 
ENDROOT
BRANCH   1   7
ATOM      7  O   LIG d   1      -3.120  75.421 114.354  0.00  0.00    -0.368 OA
BRANCH   7   8
ATOM      8  C   LIG d   1      -4.209  75.033 115.228  0.00  0.00     0.119 C 
BRANCH   8   9
ATOM      9  C   LIG d   1      -5.156  74.129 114.414  0.00  0.00     0.028 C 
ATOM     10  C   LIG d   1      -6.395  73.702 115.218  0.00  0.00     0.006 C 
ENDBRANCH   8   9
BRANCH   8  11
ATOM     11  C   LIG d   1      -5.055  76.243 115.636  0.00  0.00     0.028 C 
ATOM     12  C   LIG d   1      -4.824  76.667 117.095  0.00  0.00     0.006 C 
ENDBRANCH   8  11
ENDBRANCH   7   8
ENDBRANCH   1   7
BRANCH   6  13
ATOM     13  N   LIG d   1      -1.142  77.640 113.859  0.00  0.00    -0.311 N 
ATOM     14  C   LIG d   1      -1.924  78.468 113.169  0.00  0.00     0.210 C 
ATOM     15  C   LIG d   1      -1.358  78.916 111.818  0.00  0.00     0.109 C 
ATOM     16  O   LIG d   1      -3.018  78.901 113.563  0.00  0.00    -0.276 OA
ATOM     17  H   LIG d   1      -0.257  77.366 113.479  0.00  0.00     0.149 HD
ENDBRANCH   6  13
BRANCH   5  18
ATOM     18  N   LIG d   1      -0.163  78.707 116.549  0.00  0.00     0.381 N 
ATOM     19  H   LIG d   1      -0.062  79.223 115.698  0.00  0.00    -0.090 HD
ATOM     20  H   LIG d   1       0.694  78.784 117.068  0.00  0.00    -0.090 HD
ATOM     21  H   LIG d   1      -0.918  79.078 117.082  0.00  0.00    -0.090 HD
ENDBRANCH   5  18
BRANCH   3  22
ATOM     22  C   LIG d   1      -1.022  74.380 118.412  0.00  0.00     0.382 C 
ATOM     23  O   LIG d   1      -0.985  73.146 118.190  0.00  0.00    -0.241 OA
ATOM     24  O   LIG d   1      -0.923  74.796 119.582  0.00  0.00    -0.241 OA
ENDBRANCH   3  22
TORSDOF 7
ENDMDL
MODEL 5
REMARK VINA RESULT:      -5.7      8.726     12.097
REMARK  7 active torsions:
REMARK  status: ('A' for Active; 'I' for Inactive)
REMARK    1  A    between atoms: C_2  and  C_3 
REMARK    2  A    between atoms: C_3  and  O_6 
REMARK    3  A    between atoms: C_3  and  C_4 
REMARK    4  A    between atoms: C_7  and  O_6 
REMARK    5  A    between atoms: C_9  and  C_10 
REMARK    6  A    between atoms: N_15  and  C_14 
REMARK    7  A    between atoms: N_20  and  C_19 
REMARK       I    between atoms: C_22  and  N_20 
ROOT
ATOM      1  C   LIG d   1      -0.270  83.644 112.353  0.00  0.00     0.161 C 
ATOM      2  C   LIG d   1      -1.397  82.879 112.696  0.00  0.00     0.016 C 
ATOM      3  C   LIG d   1      -1.503  81.492 112.445  0.00  0.00     0.038 C 
ATOM      4  C   LIG d   1      -0.419  80.741 111.965  0.00  0.00     0.028 C 
ATOM      5  C   LIG d   1       0.564  81.559 111.134  0.00  0.00    -0.047 C 
ATOM      6  C   LIG d   1       0.965  82.821 111.931  0.00  0.00     0.091 C 
ENDROOT
BRANCH   1   7
ATOM      7  O   LIG d   1       0.066  84.533 113.437  0.00  0.00    -0.368 OA
BRANCH   7   8
ATOM      8  C   LIG d   1      -0.418  84.150 114.748  0.00  0.00     0.119 C 
BRANCH   8   9
ATOM      9  C   LIG d   1      -0.956  85.422 115.431  0.00  0.00     0.028 C 
ATOM     10  C   LIG d   1      -0.345  85.642 116.826  0.00  0.00     0.006 C 
ENDBRANCH   8   9
BRANCH   8  11
ATOM     11  C   LIG d   1       0.725  83.662 115.643  0.00  0.00     0.028 C 
ATOM     12  C   LIG d   1       0.887  82.133 115.621  0.00  0.00     0.006 C 
ENDBRANCH   8  11
ENDBRANCH   7   8
ENDBRANCH   1   7
BRANCH   6  13
ATOM     13  N   LIG d   1       1.860  83.720 111.155  0.00  0.00    -0.311 N 
ATOM     14  C   LIG d   1       2.920  84.330 111.682  0.00  0.00     0.210 C 
ATOM     15  C   LIG d   1       3.696  85.228 110.713  0.00  0.00     0.109 C 
ATOM     16  O   LIG d   1       3.311  84.188 112.850  0.00  0.00    -0.276 OA
ATOM     17  H   LIG d   1       1.635  83.866 110.191  0.00  0.00     0.149 HD
ENDBRANCH   6  13
BRANCH   5  18
ATOM     18  N   LIG d   1       1.711  80.687 110.816  0.00  0.00     0.381 N 
ATOM     19  H   LIG d   1       2.165  80.402 111.661  0.00  0.00    -0.090 HD
ATOM     20  H   LIG d   1       2.370  81.207 110.264  0.00  0.00    -0.090 HD
ATOM     21  H   LIG d   1       1.401  79.887 110.311  0.00  0.00    -0.090 HD
ENDBRANCH   5  18
BRANCH   3  22
ATOM     22  C   LIG d   1      -2.716  80.849 112.636  0.00  0.00     0.382 C 
ATOM     23  O   LIG d   1      -3.778  81.382 112.233  0.00  0.00    -0.241 OA
ATOM     24  O   LIG d   1      -2.767  79.764 113.245  0.00  0.00    -0.241 OA
ENDBRANCH   3  22
TORSDOF 7
ENDMDL
MODEL 6
REMARK VINA RESULT:      -5.6     11.757     14.167
REMARK  7 active torsions:
REMARK  status: ('A' for Active; 'I' for Inactive)
REMARK    1  A    between atoms: C_2  and  C_3 
REMARK    2  A    between atoms: C_3  and  O_6 
REMARK    3  A    between atoms: C_3  and  C_4 
REMARK    4  A    between atoms: C_7  and  O_6 
REMARK    5  A    between atoms: C_9  and  C_10 
REMARK    6  A    between atoms: N_15  and  C_14 
REMARK    7  A    between atoms: N_20  and  C_19 
REMARK       I    between atoms: C_22  and  N_20 
ROOT
ATOM      1  C   LIG d   1       2.789  84.519 112.302  0.00  0.00     0.161 C 
ATOM      2  C   LIG d   1       3.200  85.768 112.798  0.00  0.00     0.016 C 
ATOM      3  C   LIG d   1       2.849  86.998 112.195  0.00  0.00     0.038 C 
ATOM      4  C   LIG d   1       1.933  87.069 111.135  0.00  0.00     0.028 C 
ATOM      5  C   LIG d   1       1.889  85.804 110.285  0.00  0.00    -0.047 C 
ATOM      6  C   LIG d   1       1.698  84.582 111.213  0.00  0.00     0.091 C 
ENDROOT
BRANCH   1   7
ATOM      7  O   LIG d   1       2.362  83.678 113.392  0.00  0.00    -0.368 OA
BRANCH   7   8
ATOM      8  C   LIG d   1       1.588  84.326 114.431  0.00  0.00     0.119 C 
BRANCH   8   9
ATOM      9  C   LIG d   1       2.033  83.728 115.780  0.00  0.00     0.028 C 
ATOM     10  C   LIG d   1       3.287  84.418 116.343  0.00  0.00     0.006 C 
ENDBRANCH   8   9
BRANCH   8  11
ATOM     11  C   LIG d   1       0.099  83.989 114.310  0.00  0.00     0.028 C 
ATOM     12  C   LIG d   1      -0.767  85.219 113.994  0.00  0.00     0.006 C 
ENDBRANCH   8  11
ENDBRANCH   7   8
ENDBRANCH   1   7
BRANCH   6  13
ATOM     13  N   LIG d   1       1.729  83.296 110.470  0.00  0.00    -0.311 N 
ATOM     14  C   LIG d   1       0.687  82.470 110.389  0.00  0.00     0.210 C 
ATOM     15  C   LIG d   1       0.938  81.187 109.591  0.00  0.00     0.109 C 
ATOM     16  O   LIG d   1      -0.432  82.694 110.876  0.00  0.00    -0.276 OA
ATOM     17  H   LIG d   1       2.588  83.050 110.019  0.00  0.00     0.149 HD
ENDBRANCH   6  13
BRANCH   5  18
ATOM     18  N   LIG d   1       0.798  85.962 109.306  0.00  0.00     0.381 N 
ATOM     19  H   LIG d   1       0.123  86.613 109.653  0.00  0.00    -0.090 HD
ATOM     20  H   LIG d   1       0.344  85.075 109.178  0.00  0.00    -0.090 HD
ATOM     21  H   LIG d   1       1.164  86.284 108.437  0.00  0.00    -0.090 HD
ENDBRANCH   5  18
BRANCH   3  22
ATOM     22  C   LIG d   1       3.450  88.170 112.627  0.00  0.00     0.382 C 
ATOM     23  O   LIG d   1       2.802  89.245 112.621  0.00  0.00    -0.241 OA
ATOM     24  O   LIG d   1       4.644  88.176 112.980  0.00  0.00    -0.241 OA
ENDBRANCH   3  22
TORSDOF 7
ENDMDL
MODEL 7
REMARK VINA RESULT:      -5.6      2.369      5.856
REMARK  7 active torsions:
REMARK  status: ('A' for Active; 'I' for Inactive)
REMARK    1  A    between atoms: C_2  and  C_3 
REMARK    2  A    between atoms: C_3  and  O_6 
REMARK    3  A    between atoms: C_3  and  C_4 
REMARK    4  A    between atoms: C_7  and  O_6 
REMARK    5  A    between atoms: C_9  and  C_10 
REMARK    6  A    between atoms: N_15  and  C_14 
REMARK    7  A    between atoms: N_20  and  C_19 
REMARK       I    between atoms: C_22  and  N_20 
ROOT
ATOM      1  C   LIG d   1      -7.068  76.402 117.322  0.00  0.00     0.161 C 
ATOM      2  C   LIG d   1      -7.865  77.333 118.009  0.00  0.00     0.016 C 
ATOM      3  C   LIG d   1      -9.244  77.144 118.256  0.00  0.00     0.038 C 
ATOM      4  C   LIG d   1      -9.891  75.934 117.964  0.00  0.00     0.028 C 
ATOM      5  C   LIG d   1      -9.245  75.164 116.817  0.00  0.00    -0.047 C 
ATOM      6  C   LIG d   1      -7.730  75.028 117.094  0.00  0.00     0.091 C 
ENDROOT
BRANCH   1   7
ATOM      7  O   LIG d   1      -5.807  76.244 118.002  0.00  0.00    -0.368 OA
BRANCH   7   8
ATOM      8  C   LIG d   1      -4.697  77.010 117.473  0.00  0.00     0.119 C 
BRANCH   8   9
ATOM      9  C   LIG d   1      -3.836  76.053 116.626  0.00  0.00     0.028 C 
ATOM     10  C   LIG d   1      -4.031  76.269 115.116  0.00  0.00     0.006 C 
ENDBRANCH   8   9
BRANCH   8  11
ATOM     11  C   LIG d   1      -3.774  77.500 118.593  0.00  0.00     0.028 C 
ATOM     12  C   LIG d   1      -4.522  78.293 119.677  0.00  0.00     0.006 C 
ENDBRANCH   8  11
ENDBRANCH   7   8
ENDBRANCH   1   7
BRANCH   6  13
ATOM     13  N   LIG d   1      -7.008  74.360 115.980  0.00  0.00    -0.311 N 
ATOM     14  C   LIG d   1      -6.757  73.052 115.948  0.00  0.00     0.210 C 
ATOM     15  C   LIG d   1      -5.982  72.572 114.717  0.00  0.00     0.109 C 
ATOM     16  O   LIG d   1      -7.131  72.239 116.807  0.00  0.00    -0.276 OA
ATOM     17  H   LIG d   1      -6.696  74.940 115.226  0.00  0.00     0.149 HD
ENDBRANCH   6  13
BRANCH   5  18
ATOM     18  N   LIG d   1      -9.933  73.864 116.710  0.00  0.00     0.381 N 
ATOM     19  H   LIG d   1     -10.608  73.777 117.443  0.00  0.00    -0.090 HD
ATOM     20  H   LIG d   1      -9.256  73.128 116.816  0.00  0.00    -0.090 HD
ATOM     21  H   LIG d   1     -10.382  73.787 115.824  0.00  0.00    -0.090 HD
ENDBRANCH   5  18
BRANCH   3  22
ATOM     22  C   LIG d   1     -10.000  78.189 118.766  0.00  0.00     0.382 C 
ATOM     23  O   LIG d   1     -11.174  77.980 119.157  0.00  0.00    -0.241 OA
ATOM     24  O   LIG d   1      -9.539  79.345 118.799  0.00  0.00    -0.241 OA
ENDBRANCH   3  22
TORSDOF 7
ENDMDL
MODEL 8
REMARK VINA RESULT:      -5.4     12.150     14.886
REMARK  7 active torsions:
REMARK  status: ('A' for Active; 'I' for Inactive)
REMARK    1  A    between atoms: C_2  and  C_3 
REMARK    2  A    between atoms: C_3  and  O_6 
REMARK    3  A    between atoms: C_3  and  C_4 
REMARK    4  A    between atoms: C_7  and  O_6 
REMARK    5  A    between atoms: C_9  and  C_10 
REMARK    6  A    between atoms: N_15  and  C_14 
REMARK    7  A    between atoms: N_20  and  C_19 
REMARK       I    between atoms: C_22  and  N_20 
ROOT
ATOM      1  C   LIG d   1       2.411  86.324 112.011  0.00  0.00     0.161 C 
ATOM      2  C   LIG d   1       3.127  87.532 112.047  0.00  0.00     0.016 C 
ATOM      3  C   LIG d   1       4.001  87.887 113.100  0.00  0.00     0.038 C 
ATOM      4  C   LIG d   1       4.337  86.985 114.121  0.00  0.00     0.028 C 
ATOM      5  C   LIG d   1       3.253  85.948 114.394  0.00  0.00    -0.047 C 
ATOM      6  C   LIG d   1       2.850  85.280 113.060  0.00  0.00     0.091 C 
ENDROOT
BRANCH   1   7
ATOM      7  O   LIG d   1       2.473  85.759 110.686  0.00  0.00    -0.368 OA
BRANCH   7   8
ATOM      8  C   LIG d   1       1.283  85.070 110.231  0.00  0.00     0.119 C 
BRANCH   8   9
ATOM      9  C   LIG d   1       1.737  83.918 109.314  0.00  0.00     0.028 C 
ATOM     10  C   LIG d   1       3.154  83.425 109.649  0.00  0.00     0.006 C 
ENDBRANCH   8   9
BRANCH   8  11
ATOM     11  C   LIG d   1       0.418  85.974 109.349  0.00  0.00     0.028 C 
ATOM     12  C   LIG d   1      -0.839  86.486 110.071  0.00  0.00     0.006 C 
ENDBRANCH   8  11
ENDBRANCH   7   8
ENDBRANCH   1   7
BRANCH   6  13
ATOM     13  N   LIG d   1       1.734  84.312 113.225  0.00  0.00    -0.311 N 
ATOM     14  C   LIG d   1       0.519  84.659 113.645  0.00  0.00     0.210 C 
ATOM     15  C   LIG d   1      -0.478  83.502 113.764  0.00  0.00     0.109 C 
ATOM     16  O   LIG d   1       0.163  85.819 113.899  0.00  0.00    -0.276 OA
ATOM     17  H   LIG d   1       1.927  83.354 113.010  0.00  0.00     0.149 HD
ENDBRANCH   6  13
BRANCH   5  18
ATOM     18  N   LIG d   1       3.789  84.992 115.381  0.00  0.00     0.381 N 
ATOM     19  H   LIG d   1       3.418  84.080 115.205  0.00  0.00    -0.090 HD
ATOM     20  H   LIG d   1       3.502  85.278 116.300  0.00  0.00    -0.090 HD
ATOM     21  H   LIG d   1       4.784  84.969 115.328  0.00  0.00    -0.090 HD
ENDBRANCH   5  18
BRANCH   3  22
ATOM     22  C   LIG d   1       4.519  89.172 113.160  0.00  0.00     0.382 C 
ATOM     23  O   LIG d   1       3.840  90.099 113.663  0.00  0.00    -0.241 OA
ATOM     24  O   LIG d   1       5.639  89.425 112.677  0.00  0.00    -0.241 OA
ENDBRANCH   3  22
TORSDOF 7
ENDMDL
MODEL 9
REMARK VINA RESULT:      -5.4     10.737     13.933
REMARK  7 active torsions:
REMARK  status: ('A' for Active; 'I' for Inactive)
REMARK    1  A    between atoms: C_2  and  C_3 
REMARK    2  A    between atoms: C_3  and  O_6 
REMARK    3  A    between atoms: C_3  and  C_4 
REMARK    4  A    between atoms: C_7  and  O_6 
REMARK    5  A    between atoms: C_9  and  C_10 
REMARK    6  A    between atoms: N_15  and  C_14 
REMARK    7  A    between atoms: N_20  and  C_19 
REMARK       I    between atoms: C_22  and  N_20 
ROOT
ATOM      1  C   LIG d   1       2.026  84.244 113.530  0.00  0.00     0.161 C 
ATOM      2  C   LIG d   1       1.095  83.594 112.703  0.00  0.00     0.016 C 
ATOM      3  C   LIG d   1      -0.302  83.788 112.802  0.00  0.00     0.038 C 
ATOM      4  C   LIG d   1      -0.857  84.767 113.639  0.00  0.00     0.028 C 
ATOM      5  C   LIG d   1       0.010  85.090 114.852  0.00  0.00    -0.047 C 
ATOM      6  C   LIG d   1       1.447  85.399 114.373  0.00  0.00     0.091 C 
ENDROOT
BRANCH   1   7
ATOM      7  O   LIG d   1       3.138  84.710 112.740  0.00  0.00    -0.368 OA
BRANCH   7   8
ATOM      8  C   LIG d   1       2.912  85.916 111.970  0.00  0.00     0.119 C 
BRANCH   8   9
ATOM      9  C   LIG d   1       2.532  85.487 110.539  0.00  0.00     0.028 C 
ATOM     10  C   LIG d   1       1.254  86.181 110.039  0.00  0.00     0.006 C 
ENDBRANCH   8   9
BRANCH   8  11
ATOM     11  C   LIG d   1       4.200  86.731 111.820  0.00  0.00     0.028 C 
ATOM     12  C   LIG d   1       4.809  87.137 113.171  0.00  0.00     0.006 C 
ENDBRANCH   8  11
ENDBRANCH   7   8
ENDBRANCH   1   7
BRANCH   6  13
ATOM     13  N   LIG d   1       2.380  85.643 115.504  0.00  0.00    -0.311 N 
ATOM     14  C   LIG d   1       2.626  86.853 116.003  0.00  0.00     0.210 C 
ATOM     15  C   LIG d   1       3.637  86.884 117.154  0.00  0.00     0.109 C 
ATOM     16  O   LIG d   1       2.079  87.899 115.624  0.00  0.00    -0.276 OA
ATOM     17  H   LIG d   1       2.844  84.845 115.893  0.00  0.00     0.149 HD
ENDBRANCH   6  13
BRANCH   5  18
ATOM     18  N   LIG d   1      -0.619  86.220 115.561  0.00  0.00     0.381 N 
ATOM     19  H   LIG d   1      -0.234  86.299 116.481  0.00  0.00    -0.090 HD
ATOM     20  H   LIG d   1      -1.605  86.042 115.647  0.00  0.00    -0.090 HD
ATOM     21  H   LIG d   1      -0.470  87.065 115.056  0.00  0.00    -0.090 HD
ENDBRANCH   5  18
BRANCH   3  22
ATOM     22  C   LIG d   1      -1.162  82.969 112.086  0.00  0.00     0.382 C 
ATOM     23  O   LIG d   1      -1.005  82.823 110.850  0.00  0.00    -0.241 OA
ATOM     24  O   LIG d   1      -2.119  82.409 112.653  0.00  0.00    -0.241 OA
ENDBRANCH   3  22
TORSDOF 7
ENDMDL
