MODEL 1
REMARK VINA RESULT:      -6.3      0.000      0.000
REMARK  7 active torsions:
REMARK  status: ('A' for Active; 'I' for Inactive)
REMARK    1  A    between atoms: C_2  and  C_3 
REMARK    2  A    between atoms: C_3  and  O_6 
REMARK    3  A    between atoms: C_3  and  C_4 
REMARK    4  A    between atoms: C_7  and  O_6 
REMARK    5  A    between atoms: C_9  and  C_10 
REMARK    6  A    between atoms: N_15  and  C_14 
REMARK    7  A    between atoms: N_20  and  C_19 
REMARK       I    between atoms: C_22  and  N_20 
ROOT
ATOM      1  C   LIG d   1      -6.359  75.209 116.186  0.00  0.00     0.161 C 
ATOM      2  C   LIG d   1      -5.184  74.568 115.758  0.00  0.00     0.016 C 
ATOM      3  C   LIG d   1      -3.898  75.144 115.873  0.00  0.00     0.038 C 
ATOM      4  C   LIG d   1      -3.683  76.345 116.566  0.00  0.00     0.028 C 
ATOM      5  C   LIG d   1      -4.897  77.268 116.570  0.00  0.00    -0.047 C 
ATOM      6  C   LIG d   1      -6.133  76.471 117.044  0.00  0.00     0.091 C 
ENDROOT
BRANCH   1   7
ATOM      7  O   LIG d   1      -7.200  74.271 116.886  0.00  0.00    -0.368 OA
BRANCH   7   8
ATOM      8  C   LIG d   1      -8.199  73.590 116.087  0.00  0.00     0.119 C 
BRANCH   8   9
ATOM      9  C   LIG d   1      -9.538  73.680 116.845  0.00  0.00     0.028 C 
ATOM     10  C   LIG d   1     -10.217  75.049 116.677  0.00  0.00     0.006 C 
ENDBRANCH   8   9
BRANCH   8  11
ATOM     11  C   LIG d   1      -7.897  72.093 115.973  0.00  0.00     0.028 C 
ATOM     12  C   LIG d   1      -9.107  71.212 116.322  0.00  0.00     0.006 C 
ENDBRANCH   8  11
ENDBRANCH   7   8
ENDBRANCH   1   7
BRANCH   6  13
ATOM     13  N   LIG d   1      -7.380  77.277 116.997  0.00  0.00    -0.311 N 
ATOM     14  C   LIG d   1      -7.829  77.995 118.025  0.00  0.00     0.210 C 
ATOM     15  C   LIG d   1      -9.145  78.736 117.771  0.00  0.00     0.109 C 
ATOM     16  O   LIG d   1      -7.245  78.113 119.113  0.00  0.00    -0.276 OA
ATOM     17  H   LIG d   1      -7.900  77.263 116.141  0.00  0.00     0.149 HD
ENDBRANCH   6  13
BRANCH   5  18
ATOM     18  N   LIG d   1      -4.580  78.417 117.440  0.00  0.00     0.381 N 
ATOM     19  H   LIG d   1      -4.420  79.231 116.881  0.00  0.00    -0.090 HD
ATOM     20  H   LIG d   1      -3.740  78.215 117.952  0.00  0.00    -0.090 HD
ATOM     21  H   LIG d   1      -5.332  78.582 118.072  0.00  0.00    -0.090 HD
ENDBRANCH   5  18
BRANCH   3  22
ATOM     22  C   LIG d   1      -2.815  74.537 115.256  0.00  0.00     0.382 C 
ATOM     23  O   LIG d   1      -2.709  74.565 114.007  0.00  0.00    -0.241 OA
ATOM     24  O   LIG d   1      -1.967  73.922 115.931  0.00  0.00    -0.241 OA
ENDBRANCH   3  22
TORSDOF 7
ENDMDL
MODEL 2
REMARK VINA RESULT:      -6.2      1.610      5.089
REMARK  7 active torsions:
REMARK  status: ('A' for Active; 'I' for Inactive)
REMARK    1  A    between atoms: C_2  and  C_3 
REMARK    2  A    between atoms: C_3  and  O_6 
REMARK    3  A    between atoms: C_3  and  C_4 
REMARK    4  A    between atoms: C_7  and  O_6 
REMARK    5  A    between atoms: C_9  and  C_10 
REMARK    6  A    between atoms: N_15  and  C_14 
REMARK    7  A    between atoms: N_20  and  C_19 
REMARK       I    between atoms: C_22  and  N_20 
ROOT
ATOM      1  C   LIG d   1      -7.386  76.375 117.280  0.00  0.00     0.161 C 
ATOM      2  C   LIG d   1      -8.400  77.309 117.550  0.00  0.00     0.016 C 
ATOM      3  C   LIG d   1      -8.176  78.704 117.615  0.00  0.00     0.038 C 
ATOM      4  C   LIG d   1      -6.943  79.274 117.263  0.00  0.00     0.028 C 
ATOM      5  C   LIG d   1      -5.760  78.336 117.475  0.00  0.00    -0.047 C 
ATOM      6  C   LIG d   1      -6.059  76.986 116.784  0.00  0.00     0.091 C 
ENDROOT
BRANCH   1   7
ATOM      7  O   LIG d   1      -7.866  75.390 116.343  0.00  0.00    -0.368 OA
BRANCH   7   8
ATOM      8  C   LIG d   1      -7.857  74.016 116.803  0.00  0.00     0.119 C 
BRANCH   8   9
ATOM      9  C   LIG d   1      -7.156  73.171 115.721  0.00  0.00     0.028 C 
ATOM     10  C   LIG d   1      -7.536  71.683 115.802  0.00  0.00     0.006 C 
ENDBRANCH   8   9
BRANCH   8  11
ATOM     11  C   LIG d   1      -9.278  73.453 116.900  0.00  0.00     0.028 C 
ATOM     12  C   LIG d   1     -10.356  74.490 116.549  0.00  0.00     0.006 C 
ENDBRANCH   8  11
ENDBRANCH   7   8
ENDBRANCH   1   7
BRANCH   6  13
ATOM     13  N   LIG d   1      -4.987  75.982 117.014  0.00  0.00    -0.311 N 
ATOM     14  C   LIG d   1      -4.293  75.413 116.030  0.00  0.00     0.210 C 
ATOM     15  C   LIG d   1      -3.248  74.389 116.485  0.00  0.00     0.109 C 
ATOM     16  O   LIG d   1      -4.421  75.682 114.826  0.00  0.00    -0.276 OA
ATOM     17  H   LIG d   1      -4.796  75.728 117.963  0.00  0.00     0.149 HD
ENDBRANCH   6  13
BRANCH   5  18
ATOM     18  N   LIG d   1      -4.559  79.006 116.939  0.00  0.00     0.381 N 
ATOM     19  H   LIG d   1      -3.851  78.327 116.744  0.00  0.00    -0.090 HD
ATOM     20  H   LIG d   1      -4.205  79.641 117.633  0.00  0.00    -0.090 HD
ATOM     21  H   LIG d   1      -4.789  79.505 116.108  0.00  0.00    -0.090 HD
ENDBRANCH   5  18
BRANCH   3  22
ATOM     22  C   LIG d   1      -9.181  79.540 118.075  0.00  0.00     0.382 C 
ATOM     23  O   LIG d   1      -8.912  80.720 118.408  0.00  0.00    -0.241 OA
ATOM     24  O   LIG d   1     -10.346  79.117 118.203  0.00  0.00    -0.241 OA
ENDBRANCH   3  22
TORSDOF 7
ENDMDL
MODEL 3
REMARK VINA RESULT:      -6.1      9.217     12.260
REMARK  7 active torsions:
REMARK  status: ('A' for Active; 'I' for Inactive)
REMARK    1  A    between atoms: C_2  and  C_3 
REMARK    2  A    between atoms: C_3  and  O_6 
REMARK    3  A    between atoms: C_3  and  C_4 
REMARK    4  A    between atoms: C_7  and  O_6 
REMARK    5  A    between atoms: C_9  and  C_10 
REMARK    6  A    between atoms: N_15  and  C_14 
REMARK    7  A    between atoms: N_20  and  C_19 
REMARK       I    between atoms: C_22  and  N_20 
ROOT
ATOM      1  C   LIG d   1       0.293  82.556 111.954  0.00  0.00     0.161 C 
ATOM      2  C   LIG d   1      -0.919  82.162 112.545  0.00  0.00     0.016 C 
ATOM      3  C   LIG d   1      -1.493  80.883 112.367  0.00  0.00     0.038 C 
ATOM      4  C   LIG d   1      -0.812  79.851 111.702  0.00  0.00     0.028 C 
ATOM      5  C   LIG d   1       0.182  80.354 110.661  0.00  0.00    -0.047 C 
ATOM      6  C   LIG d   1       1.104  81.408 111.316  0.00  0.00     0.091 C 
ENDROOT
BRANCH   1   7
ATOM      7  O   LIG d   1       1.099  83.265 112.916  0.00  0.00    -0.368 OA
BRANCH   7   8
ATOM      8  C   LIG d   1       1.489  84.611 112.551  0.00  0.00     0.119 C 
BRANCH   8   9
ATOM      9  C   LIG d   1       1.117  85.535 113.727  0.00  0.00     0.028 C 
ATOM     10  C   LIG d   1      -0.404  85.683 113.899  0.00  0.00     0.006 C 
ENDBRANCH   8   9
BRANCH   8  11
ATOM     11  C   LIG d   1       0.676  85.124 111.359  0.00  0.00     0.028 C 
ATOM     12  C   LIG d   1       1.559  85.643 110.213  0.00  0.00     0.006 C 
ENDBRANCH   8  11
ENDBRANCH   7   8
ENDBRANCH   1   7
BRANCH   6  13
ATOM     13  N   LIG d   1       2.053  82.013 110.346  0.00  0.00    -0.311 N 
ATOM     14  C   LIG d   1       3.370  81.817 110.388  0.00  0.00     0.210 C 
ATOM     15  C   LIG d   1       4.168  82.550 109.305  0.00  0.00     0.109 C 
ATOM     16  O   LIG d   1       3.949  81.080 111.200  0.00  0.00    -0.276 OA
ATOM     17  H   LIG d   1       1.665  82.600 109.634  0.00  0.00     0.149 HD
ENDBRANCH   6  13
BRANCH   5  18
ATOM     18  N   LIG d   1       0.917  79.184 110.146  0.00  0.00     0.381 N 
ATOM     19  H   LIG d   1       0.281  78.431 109.977  0.00  0.00    -0.090 HD
ATOM     20  H   LIG d   1       1.582  78.886 110.838  0.00  0.00    -0.090 HD
ATOM     21  H   LIG d   1       1.391  79.423 109.302  0.00  0.00    -0.090 HD
ENDBRANCH   5  18
BRANCH   3  22
ATOM     22  C   LIG d   1      -2.779  80.636 112.822  0.00  0.00     0.382 C 
ATOM     23  O   LIG d   1      -3.750  81.251 112.320  0.00  0.00    -0.241 OA
ATOM     24  O   LIG d   1      -2.975  79.840 113.760  0.00  0.00    -0.241 OA
ENDBRANCH   3  22
TORSDOF 7
ENDMDL
MODEL 4
REMARK VINA RESULT:      -5.9      1.984      5.183
REMARK  7 active torsions:
REMARK  status: ('A' for Active; 'I' for Inactive)
REMARK    1  A    between atoms: C_2  and  C_3 
REMARK    2  A    between atoms: C_3  and  O_6 
REMARK    3  A    between atoms: C_3  and  C_4 
REMARK    4  A    between atoms: C_7  and  O_6 
REMARK    5  A    between atoms: C_9  and  C_10 
REMARK    6  A    between atoms: N_15  and  C_14 
REMARK    7  A    between atoms: N_20  and  C_19 
REMARK       I    between atoms: C_22  and  N_20 
ROOT
ATOM      1  C   LIG d   1      -5.409  74.867 116.409  0.00  0.00     0.161 C 
ATOM      2  C   LIG d   1      -6.106  73.693 116.078  0.00  0.00     0.016 C 
ATOM      3  C   LIG d   1      -7.516  73.596 116.089  0.00  0.00     0.038 C 
ATOM      4  C   LIG d   1      -8.335  74.718 116.286  0.00  0.00     0.028 C 
ATOM      5  C   LIG d   1      -7.674  75.811 117.120  0.00  0.00    -0.047 C 
ATOM      6  C   LIG d   1      -6.287  76.131 116.519  0.00  0.00     0.091 C 
ENDROOT
BRANCH   1   7
ATOM      7  O   LIG d   1      -4.338  75.081 115.468  0.00  0.00    -0.368 OA
BRANCH   7   8
ATOM      8  C   LIG d   1      -3.057  74.502 115.818  0.00  0.00     0.119 C 
BRANCH   8   9
ATOM      9  C   LIG d   1      -2.705  74.981 117.240  0.00  0.00     0.028 C 
ATOM     10  C   LIG d   1      -1.761  74.011 117.969  0.00  0.00     0.006 C 
ENDBRANCH   8   9
BRANCH   8  11
ATOM     11  C   LIG d   1      -1.938  75.041 114.921  0.00  0.00     0.028 C 
ATOM     12  C   LIG d   1      -1.060  73.926 114.330  0.00  0.00     0.006 C 
ENDBRANCH   8  11
ENDBRANCH   7   8
ENDBRANCH   1   7
BRANCH   6  13
ATOM     13  N   LIG d   1      -5.538  77.131 117.323  0.00  0.00    -0.311 N 
ATOM     14  C   LIG d   1      -4.846  78.135 116.786  0.00  0.00     0.210 C 
ATOM     15  C   LIG d   1      -4.131  79.039 117.795  0.00  0.00     0.109 C 
ATOM     16  O   LIG d   1      -4.784  78.381 115.573  0.00  0.00    -0.276 OA
ATOM     17  H   LIG d   1      -5.560  77.024 118.319  0.00  0.00     0.149 HD
ENDBRANCH   6  13
BRANCH   5  18
ATOM     18  N   LIG d   1      -8.583  76.973 117.131  0.00  0.00     0.381 N 
ATOM     19  H   LIG d   1      -8.692  77.326 116.201  0.00  0.00    -0.090 HD
ATOM     20  H   LIG d   1      -8.177  77.697 117.698  0.00  0.00    -0.090 HD
ATOM     21  H   LIG d   1      -9.469  76.709 117.500  0.00  0.00    -0.090 HD
ENDBRANCH   5  18
BRANCH   3  22
ATOM     22  C   LIG d   1      -8.121  72.357 115.940  0.00  0.00     0.382 C 
ATOM     23  O   LIG d   1      -7.455  71.381 115.518  0.00  0.00    -0.241 OA
ATOM     24  O   LIG d   1      -9.335  72.214 116.179  0.00  0.00    -0.241 OA
ENDBRANCH   3  22
TORSDOF 7
ENDMDL
MODEL 5
REMARK VINA RESULT:      -5.8      2.017      4.764
REMARK  7 active torsions:
REMARK  status: ('A' for Active; 'I' for Inactive)
REMARK    1  A    between atoms: C_2  and  C_3 
REMARK    2  A    between atoms: C_3  and  O_6 
REMARK    3  A    between atoms: C_3  and  C_4 
REMARK    4  A    between atoms: C_7  and  O_6 
REMARK    5  A    between atoms: C_9  and  C_10 
REMARK    6  A    between atoms: N_15  and  C_14 
REMARK    7  A    between atoms: N_20  and  C_19 
REMARK       I    between atoms: C_22  and  N_20 
ROOT
ATOM      1  C   LIG d   1      -6.908  74.837 117.189  0.00  0.00     0.161 C 
ATOM      2  C   LIG d   1      -6.982  73.519 116.707  0.00  0.00     0.016 C 
ATOM      3  C   LIG d   1      -8.183  72.917 116.267  0.00  0.00     0.038 C 
ATOM      4  C   LIG d   1      -9.374  73.648 116.136  0.00  0.00     0.028 C 
ATOM      5  C   LIG d   1      -9.461  74.838 117.086  0.00  0.00    -0.047 C 
ATOM      6  C   LIG d   1      -8.175  75.684 116.950  0.00  0.00     0.091 C 
ENDROOT
BRANCH   1   7
ATOM      7  O   LIG d   1      -5.752  75.496 116.635  0.00  0.00    -0.368 OA
BRANCH   7   8
ATOM      8  C   LIG d   1      -5.065  74.791 115.572  0.00  0.00     0.119 C 
BRANCH   8   9
ATOM      9  C   LIG d   1      -3.580  74.686 115.970  0.00  0.00     0.028 C 
ATOM     10  C   LIG d   1      -3.215  75.629 117.128  0.00  0.00     0.006 C 
ENDBRANCH   8   9
BRANCH   8  11
ATOM     11  C   LIG d   1      -5.079  75.596 114.269  0.00  0.00     0.028 C 
ATOM     12  C   LIG d   1      -6.481  75.698 113.647  0.00  0.00     0.006 C 
ENDBRANCH   8  11
ENDBRANCH   7   8
ENDBRANCH   1   7
BRANCH   6  13
ATOM     13  N   LIG d   1      -8.142  76.822 117.905  0.00  0.00    -0.311 N 
ATOM     14  C   LIG d   1      -7.604  78.006 117.616  0.00  0.00     0.210 C 
ATOM     15  C   LIG d   1      -7.658  79.034 118.750  0.00  0.00     0.109 C 
ATOM     16  O   LIG d   1      -7.118  78.313 116.517  0.00  0.00    -0.276 OA
ATOM     17  H   LIG d   1      -8.543  76.671 118.809  0.00  0.00     0.149 HD
ENDBRANCH   6  13
BRANCH   5  18
ATOM     18  N   LIG d   1     -10.686  75.588 116.748  0.00  0.00     0.381 N 
ATOM     19  H   LIG d   1     -11.372  74.965 116.372  0.00  0.00    -0.090 HD
ATOM     20  H   LIG d   1     -10.464  76.273 116.047  0.00  0.00    -0.090 HD
ATOM     21  H   LIG d   1     -11.045  76.038 117.561  0.00  0.00    -0.090 HD
ENDBRANCH   5  18
BRANCH   3  22
ATOM     22  C   LIG d   1      -8.210  71.559 115.990  0.00  0.00     0.382 C 
ATOM     23  O   LIG d   1      -9.292  70.928 116.051  0.00  0.00    -0.241 OA
ATOM     24  O   LIG d   1      -7.158  70.948 115.722  0.00  0.00    -0.241 OA
ENDBRANCH   3  22
TORSDOF 7
ENDMDL
MODEL 6
REMARK VINA RESULT:      -5.6     10.207     12.908
REMARK  7 active torsions:
REMARK  status: ('A' for Active; 'I' for Inactive)
REMARK    1  A    between atoms: C_2  and  C_3 
REMARK    2  A    between atoms: C_3  and  O_6 
REMARK    3  A    between atoms: C_3  and  C_4 
REMARK    4  A    between atoms: C_7  and  O_6 
REMARK    5  A    between atoms: C_9  and  C_10 
REMARK    6  A    between atoms: N_15  and  C_14 
REMARK    7  A    between atoms: N_20  and  C_19 
REMARK       I    between atoms: C_22  and  N_20 
ROOT
ATOM      1  C   LIG d   1       1.137  83.137 111.576  0.00  0.00     0.161 C 
ATOM      2  C   LIG d   1       0.040  82.344 111.950  0.00  0.00     0.016 C 
ATOM      3  C   LIG d   1      -0.807  82.651 113.039  0.00  0.00     0.038 C 
ATOM      4  C   LIG d   1      -0.704  83.862 113.740  0.00  0.00     0.028 C 
ATOM      5  C   LIG d   1       0.701  84.455 113.721  0.00  0.00    -0.047 C 
ATOM      6  C   LIG d   1       1.199  84.519 112.259  0.00  0.00     0.091 C 
ENDROOT
BRANCH   1   7
ATOM      7  O   LIG d   1       1.167  83.284 110.143  0.00  0.00    -0.368 OA
BRANCH   7   8
ATOM      8  C   LIG d   1       2.146  82.481 109.439  0.00  0.00     0.119 C 
BRANCH   8   9
ATOM      9  C   LIG d   1       1.568  81.059 109.305  0.00  0.00     0.028 C 
ATOM     10  C   LIG d   1       2.611  79.970 109.609  0.00  0.00     0.006 C 
ENDBRANCH   8   9
BRANCH   8  11
ATOM     11  C   LIG d   1       3.429  82.321 110.260  0.00  0.00     0.028 C 
ATOM     12  C   LIG d   1       4.611  83.113 109.679  0.00  0.00     0.006 C 
ENDBRANCH   8  11
ENDBRANCH   7   8
ENDBRANCH   1   7
BRANCH   6  13
ATOM     13  N   LIG d   1       2.599  85.008 112.158  0.00  0.00    -0.311 N 
ATOM     14  C   LIG d   1       2.930  86.172 111.601  0.00  0.00     0.210 C 
ATOM     15  C   LIG d   1       4.432  86.475 111.582  0.00  0.00     0.109 C 
ATOM     16  O   LIG d   1       2.121  86.996 111.150  0.00  0.00    -0.276 OA
ATOM     17  H   LIG d   1       3.317  84.416 112.527  0.00  0.00     0.149 HD
ENDBRANCH   6  13
BRANCH   5  18
ATOM     18  N   LIG d   1       0.636  85.779 114.368  0.00  0.00     0.381 N 
ATOM     19  H   LIG d   1       1.534  86.021 114.735  0.00  0.00    -0.090 HD
ATOM     20  H   LIG d   1      -0.016  85.735 115.132  0.00  0.00    -0.090 HD
ATOM     21  H   LIG d   1       0.341  86.466 113.710  0.00  0.00    -0.090 HD
ENDBRANCH   5  18
BRANCH   3  22
ATOM     22  C   LIG d   1      -1.747  81.724 113.463  0.00  0.00     0.382 C 
ATOM     23  O   LIG d   1      -2.944  81.834 113.103  0.00  0.00    -0.241 OA
ATOM     24  O   LIG d   1      -1.421  80.803 114.236  0.00  0.00    -0.241 OA
ENDBRANCH   3  22
TORSDOF 7
ENDMDL
MODEL 7
REMARK VINA RESULT:      -5.5     11.144     13.559
REMARK  7 active torsions:
REMARK  status: ('A' for Active; 'I' for Inactive)
REMARK    1  A    between atoms: C_2  and  C_3 
REMARK    2  A    between atoms: C_3  and  O_6 
REMARK    3  A    between atoms: C_3  and  C_4 
REMARK    4  A    between atoms: C_7  and  O_6 
REMARK    5  A    between atoms: C_9  and  C_10 
REMARK    6  A    between atoms: N_15  and  C_14 
REMARK    7  A    between atoms: N_20  and  C_19 
REMARK       I    between atoms: C_22  and  N_20 
ROOT
ATOM      1  C   LIG d   1       2.857  84.027 112.437  0.00  0.00     0.161 C 
ATOM      2  C   LIG d   1       3.412  85.282 112.740  0.00  0.00     0.016 C 
ATOM      3  C   LIG d   1       3.109  86.461 112.020  0.00  0.00     0.038 C 
ATOM      4  C   LIG d   1       2.108  86.493 111.037  0.00  0.00     0.028 C 
ATOM      5  C   LIG d   1       1.884  85.147 110.356  0.00  0.00    -0.047 C 
ATOM      6  C   LIG d   1       1.680  84.064 111.440  0.00  0.00     0.091 C 
ENDROOT
BRANCH   1   7
ATOM      7  O   LIG d   1       2.463  83.361 113.653  0.00  0.00    -0.368 OA
BRANCH   7   8
ATOM      8  C   LIG d   1       1.092  83.562 114.075  0.00  0.00     0.119 C 
BRANCH   8   9
ATOM      9  C   LIG d   1       1.124  84.390 115.375  0.00  0.00     0.028 C 
ATOM     10  C   LIG d   1       2.241  83.938 116.330  0.00  0.00     0.006 C 
ENDBRANCH   8   9
BRANCH   8  11
ATOM     11  C   LIG d   1       0.426  82.237 114.454  0.00  0.00     0.028 C 
ATOM     12  C   LIG d   1       1.288  81.014 114.103  0.00  0.00     0.006 C 
ENDBRANCH   8  11
ENDBRANCH   7   8
ENDBRANCH   1   7
BRANCH   6  13
ATOM     13  N   LIG d   1       1.538  82.703 110.862  0.00  0.00    -0.311 N 
ATOM     14  C   LIG d   1       0.362  82.106 110.671  0.00  0.00     0.210 C 
ATOM     15  C   LIG d   1       0.442  80.695 110.081  0.00  0.00     0.109 C 
ATOM     16  O   LIG d   1      -0.740  82.624 110.905  0.00  0.00    -0.276 OA
ATOM     17  H   LIG d   1       2.380  82.222 110.615  0.00  0.00     0.149 HD
ENDBRANCH   6  13
BRANCH   5  18
ATOM     18  N   LIG d   1       0.724  85.290 109.456  0.00  0.00     0.381 N 
ATOM     19  H   LIG d   1       0.555  86.259 109.274  0.00  0.00    -0.090 HD
ATOM     20  H   LIG d   1      -0.087  84.908 109.908  0.00  0.00    -0.090 HD
ATOM     21  H   LIG d   1       0.895  84.809 108.601  0.00  0.00    -0.090 HD
ENDBRANCH   5  18
BRANCH   3  22
ATOM     22  C   LIG d   1       3.840  87.616 112.254  0.00  0.00     0.382 C 
ATOM     23  O   LIG d   1       3.252  88.673 112.588  0.00  0.00    -0.241 OA
ATOM     24  O   LIG d   1       5.075  87.626 112.091  0.00  0.00    -0.241 OA
ENDBRANCH   3  22
TORSDOF 7
ENDMDL
MODEL 8
REMARK VINA RESULT:      -5.4      1.548      2.097
REMARK  7 active torsions:
REMARK  status: ('A' for Active; 'I' for Inactive)
REMARK    1  A    between atoms: C_2  and  C_3 
REMARK    2  A    between atoms: C_3  and  O_6 
REMARK    3  A    between atoms: C_3  and  C_4 
REMARK    4  A    between atoms: C_7  and  O_6 
REMARK    5  A    between atoms: C_9  and  C_10 
REMARK    6  A    between atoms: N_15  and  C_14 
REMARK    7  A    between atoms: N_20  and  C_19 
REMARK       I    between atoms: C_22  and  N_20 
ROOT
ATOM      1  C   LIG d   1      -5.324  75.427 116.460  0.00  0.00     0.161 C 
ATOM      2  C   LIG d   1      -4.288  74.722 115.825  0.00  0.00     0.016 C 
ATOM      3  C   LIG d   1      -2.918  74.932 116.105  0.00  0.00     0.038 C 
ATOM      4  C   LIG d   1      -2.495  75.760 117.155  0.00  0.00     0.028 C 
ATOM      5  C   LIG d   1      -3.484  76.872 117.486  0.00  0.00    -0.047 C 
ATOM      6  C   LIG d   1      -4.886  76.254 117.687  0.00  0.00     0.091 C 
ENDROOT
BRANCH   1   7
ATOM      7  O   LIG d   1      -6.383  74.518 116.820  0.00  0.00    -0.368 OA
BRANCH   7   8
ATOM      8  C   LIG d   1      -7.287  74.137 115.753  0.00  0.00     0.119 C 
BRANCH   8   9
ATOM      9  C   LIG d   1      -7.908  75.429 115.189  0.00  0.00     0.028 C 
ATOM     10  C   LIG d   1      -7.305  75.825 113.830  0.00  0.00     0.006 C 
ENDBRANCH   8   9
BRANCH   8  11
ATOM     11  C   LIG d   1      -8.467  73.320 116.288  0.00  0.00     0.028 C 
ATOM     12  C   LIG d   1      -9.666  74.195 116.686  0.00  0.00     0.006 C 
ENDBRANCH   8  11
ENDBRANCH   7   8
ENDBRANCH   1   7
BRANCH   6  13
ATOM     13  N   LIG d   1      -5.930  77.283 117.932  0.00  0.00    -0.311 N 
ATOM     14  C   LIG d   1      -6.246  78.230 117.051  0.00  0.00     0.210 C 
ATOM     15  C   LIG d   1      -7.337  79.203 117.510  0.00  0.00     0.109 C 
ATOM     16  O   LIG d   1      -5.750  78.338 115.919  0.00  0.00    -0.276 OA
ATOM     17  H   LIG d   1      -6.405  77.250 118.812  0.00  0.00     0.149 HD
ENDBRANCH   6  13
BRANCH   5  18
ATOM     18  N   LIG d   1      -2.983  77.572 118.685  0.00  0.00     0.381 N 
ATOM     19  H   LIG d   1      -2.781  76.907 119.405  0.00  0.00    -0.090 HD
ATOM     20  H   LIG d   1      -3.698  78.193 119.020  0.00  0.00    -0.090 HD
ATOM     21  H   LIG d   1      -2.162  78.089 118.460  0.00  0.00    -0.090 HD
ENDBRANCH   5  18
BRANCH   3  22
ATOM     22  C   LIG d   1      -1.954  74.340 115.303  0.00  0.00     0.382 C 
ATOM     23  O   LIG d   1      -0.982  73.745 115.827  0.00  0.00    -0.241 OA
ATOM     24  O   LIG d   1      -2.021  74.433 114.062  0.00  0.00    -0.241 OA
ENDBRANCH   3  22
TORSDOF 7
ENDMDL
MODEL 9
REMARK VINA RESULT:      -5.3      9.797     12.509
REMARK  7 active torsions:
REMARK  status: ('A' for Active; 'I' for Inactive)
REMARK    1  A    between atoms: C_2  and  C_3 
REMARK    2  A    between atoms: C_3  and  O_6 
REMARK    3  A    between atoms: C_3  and  C_4 
REMARK    4  A    between atoms: C_7  and  O_6 
REMARK    5  A    between atoms: C_9  and  C_10 
REMARK    6  A    between atoms: N_15  and  C_14 
REMARK    7  A    between atoms: N_20  and  C_19 
REMARK       I    between atoms: C_22  and  N_20 
ROOT
ATOM      1  C   LIG d   1       0.140  82.737 112.013  0.00  0.00     0.161 C 
ATOM      2  C   LIG d   1      -0.135  83.764 111.095  0.00  0.00     0.016 C 
ATOM      3  C   LIG d   1      -0.275  85.122 111.465  0.00  0.00     0.038 C 
ATOM      4  C   LIG d   1       0.003  85.568 112.766  0.00  0.00     0.028 C 
ATOM      5  C   LIG d   1      -0.209  84.497 113.831  0.00  0.00    -0.047 C 
ATOM      6  C   LIG d   1       0.557  83.220 113.418  0.00  0.00     0.091 C 
ENDROOT
BRANCH   1   7
ATOM      7  O   LIG d   1       1.141  81.853 111.470  0.00  0.00    -0.368 OA
BRANCH   7   8
ATOM      8  C   LIG d   1       1.922  82.374 110.367  0.00  0.00     0.119 C 
BRANCH   8   9
ATOM      9  C   LIG d   1       2.027  81.261 109.307  0.00  0.00     0.028 C 
ATOM     10  C   LIG d   1       0.993  80.143 109.525  0.00  0.00     0.006 C 
ENDBRANCH   8   9
BRANCH   8  11
ATOM     11  C   LIG d   1       3.364  82.666 110.794  0.00  0.00     0.028 C 
ATOM     12  C   LIG d   1       4.380  82.419 109.667  0.00  0.00     0.006 C 
ENDBRANCH   8  11
ENDBRANCH   7   8
ENDBRANCH   1   7
BRANCH   6  13
ATOM     13  N   LIG d   1       0.335  82.095 114.364  0.00  0.00    -0.311 N 
ATOM     14  C   LIG d   1       1.319  81.483 115.019  0.00  0.00     0.210 C 
ATOM     15  C   LIG d   1       0.874  80.334 115.930  0.00  0.00     0.109 C 
ATOM     16  O   LIG d   1       2.516  81.802 114.956  0.00  0.00    -0.276 OA
ATOM     17  H   LIG d   1      -0.610  81.791 114.498  0.00  0.00     0.149 HD
ENDBRANCH   6  13
BRANCH   5  18
ATOM     18  N   LIG d   1       0.248  85.054 115.119  0.00  0.00     0.381 N 
ATOM     19  H   LIG d   1      -0.503  85.543 115.562  0.00  0.00    -0.090 HD
ATOM     20  H   LIG d   1       0.991  85.708 114.945  0.00  0.00    -0.090 HD
ATOM     21  H   LIG d   1       0.573  84.321 115.711  0.00  0.00    -0.090 HD
ENDBRANCH   5  18
BRANCH   3  22
ATOM     22  C   LIG d   1      -0.736  86.043 110.537  0.00  0.00     0.382 C 
ATOM     23  O   LIG d   1      -1.332  87.077 110.924  0.00  0.00    -0.241 OA
ATOM     24  O   LIG d   1      -0.603  85.831 109.317  0.00  0.00    -0.241 OA
ENDBRANCH   3  22
TORSDOF 7
ENDMDL
