MODEL 1
REMARK VINA RESULT:      -6.0      0.000      0.000
REMARK  7 active torsions:
REMARK  status: ('A' for Active; 'I' for Inactive)
REMARK    1  A    between atoms: C_2  and  C_3 
REMARK    2  A    between atoms: C_3  and  O_6 
REMARK    3  A    between atoms: C_3  and  C_4 
REMARK    4  A    between atoms: C_7  and  O_6 
REMARK    5  A    between atoms: C_9  and  C_10 
REMARK    6  A    between atoms: N_15  and  C_14 
REMARK    7  A    between atoms: N_20  and  C_19 
REMARK       I    between atoms: C_22  and  N_20 
ROOT
ATOM      1  C   LIG d   1      -8.219  75.254 117.746  0.00  0.00     0.161 C 
ATOM      2  C   LIG d   1      -9.575  75.420 118.075  0.00  0.00     0.016 C 
ATOM      3  C   LIG d   1     -10.123  76.643 118.525  0.00  0.00     0.038 C 
ATOM      4  C   LIG d   1      -9.377  77.831 118.532  0.00  0.00     0.028 C 
ATOM      5  C   LIG d   1      -7.877  77.604 118.690  0.00  0.00    -0.047 C 
ATOM      6  C   LIG d   1      -7.414  76.567 117.642  0.00  0.00     0.091 C 
ENDROOT
BRANCH   1   7
ATOM      7  O   LIG d   1      -8.101  74.496 116.526  0.00  0.00    -0.368 OA
BRANCH   7   8
ATOM      8  C   LIG d   1      -7.774  73.092 116.677  0.00  0.00     0.119 C 
BRANCH   8   9
ATOM      9  C   LIG d   1      -6.516  72.816 115.832  0.00  0.00     0.028 C 
ATOM     10  C   LIG d   1      -6.080  74.041 115.011  0.00  0.00     0.006 C 
ENDBRANCH   8   9
BRANCH   8  11
ATOM     11  C   LIG d   1      -8.867  72.199 116.082  0.00  0.00     0.028 C 
ATOM     12  C   LIG d   1      -9.063  70.893 116.868  0.00  0.00     0.006 C 
ENDBRANCH   8  11
ENDBRANCH   7   8
ENDBRANCH   1   7
BRANCH   6  13
ATOM     13  N   LIG d   1      -5.974  76.224 117.782  0.00  0.00    -0.311 N 
ATOM     14  C   LIG d   1      -5.004  76.845 117.114  0.00  0.00     0.210 C 
ATOM     15  C   LIG d   1      -3.591  76.322 117.390  0.00  0.00     0.109 C 
ATOM     16  O   LIG d   1      -5.177  77.801 116.343  0.00  0.00    -0.276 OA
ATOM     17  H   LIG d   1      -5.742  75.480 118.411  0.00  0.00     0.149 HD
ENDBRANCH   6  13
BRANCH   5  18
ATOM     18  N   LIG d   1      -7.210  78.912 118.543  0.00  0.00     0.381 N 
ATOM     19  H   LIG d   1      -7.470  79.328 117.672  0.00  0.00    -0.090 HD
ATOM     20  H   LIG d   1      -6.216  78.771 118.542  0.00  0.00    -0.090 HD
ATOM     21  H   LIG d   1      -7.467  79.512 119.296  0.00  0.00    -0.090 HD
ENDBRANCH   5  18
BRANCH   3  22
ATOM     22  C   LIG d   1     -11.421  76.677 119.011  0.00  0.00     0.382 C 
ATOM     23  O   LIG d   1     -11.648  77.130 120.159  0.00  0.00    -0.241 OA
ATOM     24  O   LIG d   1     -12.361  76.219 118.335  0.00  0.00    -0.241 OA
ENDBRANCH   3  22
TORSDOF 7
ENDMDL
MODEL 2
REMARK VINA RESULT:      -5.9      2.300      5.532
REMARK  7 active torsions:
REMARK  status: ('A' for Active; 'I' for Inactive)
REMARK    1  A    between atoms: C_2  and  C_3 
REMARK    2  A    between atoms: C_3  and  O_6 
REMARK    3  A    between atoms: C_3  and  C_4 
REMARK    4  A    between atoms: C_7  and  O_6 
REMARK    5  A    between atoms: C_9  and  C_10 
REMARK    6  A    between atoms: N_15  and  C_14 
REMARK    7  A    between atoms: N_20  and  C_19 
REMARK       I    between atoms: C_22  and  N_20 
ROOT
ATOM      1  C   LIG d   1      -5.825  74.850 116.312  0.00  0.00     0.161 C 
ATOM      2  C   LIG d   1      -4.596  74.421 115.784  0.00  0.00     0.016 C 
ATOM      3  C   LIG d   1      -3.384  75.126 115.961  0.00  0.00     0.038 C 
ATOM      4  C   LIG d   1      -3.290  76.237 116.813  0.00  0.00     0.028 C 
ATOM      5  C   LIG d   1      -4.603  76.998 116.963  0.00  0.00    -0.047 C 
ATOM      6  C   LIG d   1      -5.722  75.999 117.337  0.00  0.00     0.091 C 
ENDROOT
BRANCH   1   7
ATOM      7  O   LIG d   1      -6.529  73.730 116.885  0.00  0.00    -0.368 OA
BRANCH   7   8
ATOM      8  C   LIG d   1      -7.641  73.214 116.114  0.00  0.00     0.119 C 
BRANCH   8   9
ATOM      9  C   LIG d   1      -8.935  73.572 116.871  0.00  0.00     0.028 C 
ATOM     10  C   LIG d   1      -9.698  74.735 116.213  0.00  0.00     0.006 C 
ENDBRANCH   8   9
BRANCH   8  11
ATOM     11  C   LIG d   1      -7.617  71.684 116.054  0.00  0.00     0.028 C 
ATOM     12  C   LIG d   1      -8.806  71.040 116.784  0.00  0.00     0.006 C 
ENDBRANCH   8  11
ENDBRANCH   7   8
ENDBRANCH   1   7
BRANCH   6  13
ATOM     13  N   LIG d   1      -7.057  76.648 117.420  0.00  0.00    -0.311 N 
ATOM     14  C   LIG d   1      -7.569  77.127 118.552  0.00  0.00     0.210 C 
ATOM     15  C   LIG d   1      -8.968  77.739 118.421  0.00  0.00     0.109 C 
ATOM     16  O   LIG d   1      -6.986  77.133 119.646  0.00  0.00    -0.276 OA
ATOM     17  H   LIG d   1      -7.585  76.714 116.573  0.00  0.00     0.149 HD
ENDBRANCH   6  13
BRANCH   5  18
ATOM     18  N   LIG d   1      -4.398  78.045 117.982  0.00  0.00     0.381 N 
ATOM     19  H   LIG d   1      -4.703  77.713 118.875  0.00  0.00    -0.090 HD
ATOM     20  H   LIG d   1      -4.951  78.848 117.738  0.00  0.00    -0.090 HD
ATOM     21  H   LIG d   1      -3.435  78.296 118.024  0.00  0.00    -0.090 HD
ENDBRANCH   5  18
BRANCH   3  22
ATOM     22  C   LIG d   1      -2.256  74.744 115.251  0.00  0.00     0.382 C 
ATOM     23  O   LIG d   1      -2.052  75.208 114.103  0.00  0.00    -0.241 OA
ATOM     24  O   LIG d   1      -1.464  73.908 115.724  0.00  0.00    -0.241 OA
ENDBRANCH   3  22
TORSDOF 7
ENDMDL
MODEL 3
REMARK VINA RESULT:      -5.8      0.708      1.885
REMARK  7 active torsions:
REMARK  status: ('A' for Active; 'I' for Inactive)
REMARK    1  A    between atoms: C_2  and  C_3 
REMARK    2  A    between atoms: C_3  and  O_6 
REMARK    3  A    between atoms: C_3  and  C_4 
REMARK    4  A    between atoms: C_7  and  O_6 
REMARK    5  A    between atoms: C_9  and  C_10 
REMARK    6  A    between atoms: N_15  and  C_14 
REMARK    7  A    between atoms: N_20  and  C_19 
REMARK       I    between atoms: C_22  and  N_20 
ROOT
ATOM      1  C   LIG d   1      -8.452  75.716 117.379  0.00  0.00     0.161 C 
ATOM      2  C   LIG d   1      -9.791  75.815 117.791  0.00  0.00     0.016 C 
ATOM      3  C   LIG d   1     -10.263  76.820 118.666  0.00  0.00     0.038 C 
ATOM      4  C   LIG d   1      -9.453  77.890 119.073  0.00  0.00     0.028 C 
ATOM      5  C   LIG d   1      -7.966  77.552 119.088  0.00  0.00    -0.047 C 
ATOM      6  C   LIG d   1      -7.577  76.939 117.723  0.00  0.00     0.091 C 
ENDROOT
BRANCH   1   7
ATOM      7  O   LIG d   1      -8.394  75.441 115.965  0.00  0.00    -0.368 OA
BRANCH   7   8
ATOM      8  C   LIG d   1      -7.882  74.138 115.589  0.00  0.00     0.119 C 
BRANCH   8   9
ATOM      9  C   LIG d   1      -7.921  73.246 116.845  0.00  0.00     0.028 C 
ATOM     10  C   LIG d   1      -8.790  71.993 116.648  0.00  0.00     0.006 C 
ENDBRANCH   8   9
BRANCH   8  11
ATOM     11  C   LIG d   1      -6.406  74.214 115.191  0.00  0.00     0.028 C 
ATOM     12  C   LIG d   1      -6.115  75.347 114.193  0.00  0.00     0.006 C 
ENDBRANCH   8  11
ENDBRANCH   7   8
ENDBRANCH   1   7
BRANCH   6  13
ATOM     13  N   LIG d   1      -6.157  76.503 117.682  0.00  0.00    -0.311 N 
ATOM     14  C   LIG d   1      -5.166  77.271 117.231  0.00  0.00     0.210 C 
ATOM     15  C   LIG d   1      -3.780  76.620 117.257  0.00  0.00     0.109 C 
ATOM     16  O   LIG d   1      -5.300  78.441 116.841  0.00  0.00    -0.276 OA
ATOM     17  H   LIG d   1      -5.954  75.578 118.009  0.00  0.00     0.149 HD
ENDBRANCH   6  13
BRANCH   5  18
ATOM     18  N   LIG d   1      -7.230  78.793 119.395  0.00  0.00     0.381 N 
ATOM     19  H   LIG d   1      -7.449  79.096 120.323  0.00  0.00    -0.090 HD
ATOM     20  H   LIG d   1      -7.519  79.510 118.753  0.00  0.00    -0.090 HD
ATOM     21  H   LIG d   1      -6.250  78.638 119.311  0.00  0.00    -0.090 HD
ENDBRANCH   5  18
BRANCH   3  22
ATOM     22  C   LIG d   1     -11.550  76.737 119.177  0.00  0.00     0.382 C 
ATOM     23  O   LIG d   1     -11.772  77.051 120.371  0.00  0.00    -0.241 OA
ATOM     24  O   LIG d   1     -12.483  76.310 118.471  0.00  0.00    -0.241 OA
ENDBRANCH   3  22
TORSDOF 7
ENDMDL
MODEL 4
REMARK VINA RESULT:      -5.7      2.301      5.512
REMARK  7 active torsions:
REMARK  status: ('A' for Active; 'I' for Inactive)
REMARK    1  A    between atoms: C_2  and  C_3 
REMARK    2  A    between atoms: C_3  and  O_6 
REMARK    3  A    between atoms: C_3  and  C_4 
REMARK    4  A    between atoms: C_7  and  O_6 
REMARK    5  A    between atoms: C_9  and  C_10 
REMARK    6  A    between atoms: N_15  and  C_14 
REMARK    7  A    between atoms: N_20  and  C_19 
REMARK       I    between atoms: C_22  and  N_20 
ROOT
ATOM      1  C   LIG d   1      -6.389  75.964 115.143  0.00  0.00     0.161 C 
ATOM      2  C   LIG d   1      -5.252  75.645 114.381  0.00  0.00     0.016 C 
ATOM      3  C   LIG d   1      -3.934  75.967 114.778  0.00  0.00     0.038 C 
ATOM      4  C   LIG d   1      -3.650  76.501 116.044  0.00  0.00     0.028 C 
ATOM      5  C   LIG d   1      -4.805  77.303 116.636  0.00  0.00    -0.047 C 
ATOM      6  C   LIG d   1      -6.091  76.447 116.578  0.00  0.00     0.091 C 
ENDROOT
BRANCH   1   7
ATOM      7  O   LIG d   1      -7.291  74.841 115.170  0.00  0.00    -0.368 OA
BRANCH   7   8
ATOM      8  C   LIG d   1      -7.198  73.976 116.329  0.00  0.00     0.119 C 
BRANCH   8   9
ATOM      9  C   LIG d   1      -6.645  72.619 115.851  0.00  0.00     0.028 C 
ATOM     10  C   LIG d   1      -7.637  71.467 116.084  0.00  0.00     0.006 C 
ENDBRANCH   8   9
BRANCH   8  11
ATOM     11  C   LIG d   1      -8.583  73.669 116.907  0.00  0.00     0.028 C 
ATOM     12  C   LIG d   1      -9.671  74.620 116.384  0.00  0.00     0.006 C 
ENDBRANCH   8  11
ENDBRANCH   7   8
ENDBRANCH   1   7
BRANCH   6  13
ATOM     13  N   LIG d   1      -7.286  77.187 117.060  0.00  0.00    -0.311 N 
ATOM     14  C   LIG d   1      -7.692  77.176 118.329  0.00  0.00     0.210 C 
ATOM     15  C   LIG d   1      -8.959  77.990 118.609  0.00  0.00     0.109 C 
ATOM     16  O   LIG d   1      -7.106  76.595 119.254  0.00  0.00    -0.276 OA
ATOM     17  H   LIG d   1      -7.803  77.711 116.382  0.00  0.00     0.149 HD
ENDBRANCH   6  13
BRANCH   5  18
ATOM     18  N   LIG d   1      -4.425  77.683 118.009  0.00  0.00     0.381 N 
ATOM     19  H   LIG d   1      -5.241  77.735 118.585  0.00  0.00    -0.090 HD
ATOM     20  H   LIG d   1      -3.996  78.591 117.988  0.00  0.00    -0.090 HD
ATOM     21  H   LIG d   1      -3.787  77.015 118.384  0.00  0.00    -0.090 HD
ENDBRANCH   5  18
BRANCH   3  22
ATOM     22  C   LIG d   1      -2.886  75.793 113.887  0.00  0.00     0.382 C 
ATOM     23  O   LIG d   1      -1.854  75.177 114.246  0.00  0.00    -0.241 OA
ATOM     24  O   LIG d   1      -2.942  76.281 112.742  0.00  0.00    -0.241 OA
ENDBRANCH   3  22
TORSDOF 7
ENDMDL
MODEL 5
REMARK VINA RESULT:      -5.7     15.506     18.119
REMARK  7 active torsions:
REMARK  status: ('A' for Active; 'I' for Inactive)
REMARK    1  A    between atoms: C_2  and  C_3 
REMARK    2  A    between atoms: C_3  and  O_6 
REMARK    3  A    between atoms: C_3  and  C_4 
REMARK    4  A    between atoms: C_7  and  O_6 
REMARK    5  A    between atoms: C_9  and  C_10 
REMARK    6  A    between atoms: N_15  and  C_14 
REMARK    7  A    between atoms: N_20  and  C_19 
REMARK       I    between atoms: C_22  and  N_20 
ROOT
ATOM      1  C   LIG d   1      -6.745  92.974 118.259  0.00  0.00     0.161 C 
ATOM      2  C   LIG d   1      -7.263  91.920 117.488  0.00  0.00     0.016 C 
ATOM      3  C   LIG d   1      -6.453  91.018 116.761  0.00  0.00     0.038 C 
ATOM      4  C   LIG d   1      -5.055  91.016 116.878  0.00  0.00     0.028 C 
ATOM      5  C   LIG d   1      -4.477  92.378 117.246  0.00  0.00    -0.047 C 
ATOM      6  C   LIG d   1      -5.220  92.920 118.488  0.00  0.00     0.091 C 
ENDROOT
BRANCH   1   7
ATOM      7  O   LIG d   1      -7.438  93.043 119.521  0.00  0.00    -0.368 OA
BRANCH   7   8
ATOM      8  C   LIG d   1      -8.325  94.175 119.700  0.00  0.00     0.119 C 
BRANCH   8   9
ATOM      9  C   LIG d   1      -9.756  93.622 119.850  0.00  0.00     0.028 C 
ATOM     10  C   LIG d   1     -10.369  93.945 121.223  0.00  0.00     0.006 C 
ENDBRANCH   8   9
BRANCH   8  11
ATOM     11  C   LIG d   1      -8.361  95.058 118.449  0.00  0.00     0.028 C 
ATOM     12  C   LIG d   1      -7.796  96.466 118.698  0.00  0.00     0.006 C 
ENDBRANCH   8  11
ENDBRANCH   7   8
ENDBRANCH   1   7
BRANCH   6  13
ATOM     13  N   LIG d   1      -4.773  94.287 118.864  0.00  0.00    -0.311 N 
ATOM     14  C   LIG d   1      -3.827  94.525 119.771  0.00  0.00     0.210 C 
ATOM     15  C   LIG d   1      -3.532  96.006 120.024  0.00  0.00     0.109 C 
ATOM     16  O   LIG d   1      -3.182  93.649 120.367  0.00  0.00    -0.276 OA
ATOM     17  H   LIG d   1      -5.222  95.056 118.407  0.00  0.00     0.149 HD
ENDBRANCH   6  13
BRANCH   5  18
ATOM     18  N   LIG d   1      -3.029  92.202 117.469  0.00  0.00     0.381 N 
ATOM     19  H   LIG d   1      -2.856  91.304 117.875  0.00  0.00    -0.090 HD
ATOM     20  H   LIG d   1      -2.712  92.905 118.113  0.00  0.00    -0.090 HD
ATOM     21  H   LIG d   1      -2.538  92.285 116.606  0.00  0.00    -0.090 HD
ENDBRANCH   5  18
BRANCH   3  22
ATOM     22  C   LIG d   1      -7.041  90.128 115.874  0.00  0.00     0.382 C 
ATOM     23  O   LIG d   1      -6.424  89.773 114.841  0.00  0.00    -0.241 OA
ATOM     24  O   LIG d   1      -8.198  89.712 116.071  0.00  0.00    -0.241 OA
ENDBRANCH   3  22
TORSDOF 7
ENDMDL
MODEL 6
REMARK VINA RESULT:      -5.4      2.620      4.743
REMARK  7 active torsions:
REMARK  status: ('A' for Active; 'I' for Inactive)
REMARK    1  A    between atoms: C_2  and  C_3 
REMARK    2  A    between atoms: C_3  and  O_6 
REMARK    3  A    between atoms: C_3  and  C_4 
REMARK    4  A    between atoms: C_7  and  O_6 
REMARK    5  A    between atoms: C_9  and  C_10 
REMARK    6  A    between atoms: N_15  and  C_14 
REMARK    7  A    between atoms: N_20  and  C_19 
REMARK       I    between atoms: C_22  and  N_20 
ROOT
ATOM      1  C   LIG d   1      -6.741  75.553 116.034  0.00  0.00     0.161 C 
ATOM      2  C   LIG d   1      -6.793  74.174 115.767  0.00  0.00     0.016 C 
ATOM      3  C   LIG d   1      -7.869  73.345 116.159  0.00  0.00     0.038 C 
ATOM      4  C   LIG d   1      -9.044  73.870 116.717  0.00  0.00     0.028 C 
ATOM      5  C   LIG d   1      -8.827  75.182 117.463  0.00  0.00    -0.047 C 
ATOM      6  C   LIG d   1      -8.064  76.162 116.543  0.00  0.00     0.091 C 
ENDROOT
BRANCH   1   7
ATOM      7  O   LIG d   1      -6.280  76.260 114.866  0.00  0.00    -0.368 OA
BRANCH   7   8
ATOM      8  C   LIG d   1      -5.639  75.456 113.846  0.00  0.00     0.119 C 
BRANCH   8   9
ATOM      9  C   LIG d   1      -4.116  75.594 114.037  0.00  0.00     0.028 C 
ATOM     10  C   LIG d   1      -3.521  76.741 113.202  0.00  0.00     0.006 C 
ENDBRANCH   8   9
BRANCH   8  11
ATOM     11  C   LIG d   1      -5.922  76.003 112.444  0.00  0.00     0.028 C 
ATOM     12  C   LIG d   1      -7.317  76.639 112.323  0.00  0.00     0.006 C 
ENDBRANCH   8  11
ENDBRANCH   7   8
ENDBRANCH   1   7
BRANCH   6  13
ATOM     13  N   LIG d   1      -7.737  77.442 117.225  0.00  0.00    -0.311 N 
ATOM     14  C   LIG d   1      -7.053  77.510 118.366  0.00  0.00     0.210 C 
ATOM     15  C   LIG d   1      -6.842  78.927 118.909  0.00  0.00     0.109 C 
ATOM     16  O   LIG d   1      -6.574  76.534 118.963  0.00  0.00    -0.276 OA
ATOM     17  H   LIG d   1      -8.060  78.285 116.793  0.00  0.00     0.149 HD
ENDBRANCH   6  13
BRANCH   5  18
ATOM     18  N   LIG d   1     -10.151  75.686 117.873  0.00  0.00     0.381 N 
ATOM     19  H   LIG d   1     -10.861  75.285 117.293  0.00  0.00    -0.090 HD
ATOM     20  H   LIG d   1     -10.171  76.683 117.753  0.00  0.00    -0.090 HD
ATOM     21  H   LIG d   1     -10.323  75.456 118.828  0.00  0.00    -0.090 HD
ENDBRANCH   5  18
BRANCH   3  22
ATOM     22  C   LIG d   1      -7.758  71.969 116.031  0.00  0.00     0.382 C 
ATOM     23  O   LIG d   1      -6.716  71.466 115.546  0.00  0.00    -0.241 OA
ATOM     24  O   LIG d   1      -8.705  71.226 116.353  0.00  0.00    -0.241 OA
ENDBRANCH   3  22
TORSDOF 7
ENDMDL
MODEL 7
REMARK VINA RESULT:      -5.2      2.148      4.589
REMARK  7 active torsions:
REMARK  status: ('A' for Active; 'I' for Inactive)
REMARK    1  A    between atoms: C_2  and  C_3 
REMARK    2  A    between atoms: C_3  and  O_6 
REMARK    3  A    between atoms: C_3  and  C_4 
REMARK    4  A    between atoms: C_7  and  O_6 
REMARK    5  A    between atoms: C_9  and  C_10 
REMARK    6  A    between atoms: N_15  and  C_14 
REMARK    7  A    between atoms: N_20  and  C_19 
REMARK       I    between atoms: C_22  and  N_20 
ROOT
ATOM      1  C   LIG d   1      -7.397  77.232 117.174  0.00  0.00     0.161 C 
ATOM      2  C   LIG d   1      -8.529  77.433 117.981  0.00  0.00     0.016 C 
ATOM      3  C   LIG d   1      -9.577  76.490 118.100  0.00  0.00     0.038 C 
ATOM      4  C   LIG d   1      -9.490  75.210 117.533  0.00  0.00     0.028 C 
ATOM      5  C   LIG d   1      -8.597  75.154 116.298  0.00  0.00    -0.047 C 
ATOM      6  C   LIG d   1      -7.232  75.796 116.635  0.00  0.00     0.091 C 
ENDROOT
BRANCH   1   7
ATOM      7  O   LIG d   1      -6.211  77.640 117.885  0.00  0.00    -0.368 OA
BRANCH   7   8
ATOM      8  C   LIG d   1      -5.680  78.944 117.544  0.00  0.00     0.119 C 
BRANCH   8   9
ATOM      9  C   LIG d   1      -4.143  78.839 117.573  0.00  0.00     0.028 C 
ATOM     10  C   LIG d   1      -3.589  78.014 116.399  0.00  0.00     0.006 C 
ENDBRANCH   8   9
BRANCH   8  11
ATOM     11  C   LIG d   1      -6.035  79.986 118.609  0.00  0.00     0.028 C 
ATOM     12  C   LIG d   1      -7.019  81.050 118.096  0.00  0.00     0.006 C 
ENDBRANCH   8  11
ENDBRANCH   7   8
ENDBRANCH   1   7
BRANCH   6  13
ATOM     13  N   LIG d   1      -6.328  75.858 115.458  0.00  0.00    -0.311 N 
ATOM     14  C   LIG d   1      -5.453  74.900 115.154  0.00  0.00     0.210 C 
ATOM     15  C   LIG d   1      -4.604  75.172 113.908  0.00  0.00     0.109 C 
ATOM     16  O   LIG d   1      -5.323  73.837 115.779  0.00  0.00    -0.276 OA
ATOM     17  H   LIG d   1      -6.389  76.672 114.878  0.00  0.00     0.149 HD
ENDBRANCH   6  13
BRANCH   5  18
ATOM     18  N   LIG d   1      -8.487  73.740 115.892  0.00  0.00     0.381 N 
ATOM     19  H   LIG d   1      -9.400  73.353 115.760  0.00  0.00    -0.090 HD
ATOM     20  H   LIG d   1      -8.029  73.226 116.624  0.00  0.00    -0.090 HD
ATOM     21  H   LIG d   1      -7.962  73.667 115.048  0.00  0.00    -0.090 HD
ENDBRANCH   5  18
BRANCH   3  22
ATOM     22  C   LIG d   1     -10.745  76.841 118.759  0.00  0.00     0.382 C 
ATOM     23  O   LIG d   1     -10.694  77.568 119.781  0.00  0.00    -0.241 OA
ATOM     24  O   LIG d   1     -11.845  76.403 118.372  0.00  0.00    -0.241 OA
ENDBRANCH   3  22
TORSDOF 7
ENDMDL
MODEL 8
REMARK VINA RESULT:      -5.1      4.000      6.865
REMARK  7 active torsions:
REMARK  status: ('A' for Active; 'I' for Inactive)
REMARK    1  A    between atoms: C_2  and  C_3 
REMARK    2  A    between atoms: C_3  and  O_6 
REMARK    3  A    between atoms: C_3  and  C_4 
REMARK    4  A    between atoms: C_7  and  O_6 
REMARK    5  A    between atoms: C_9  and  C_10 
REMARK    6  A    between atoms: N_15  and  C_14 
REMARK    7  A    between atoms: N_20  and  C_19 
REMARK       I    between atoms: C_22  and  N_20 
ROOT
ATOM      1  C   LIG d   1      -3.503  75.929 115.797  0.00  0.00     0.161 C 
ATOM      2  C   LIG d   1      -3.954  76.503 114.597  0.00  0.00     0.016 C 
ATOM      3  C   LIG d   1      -3.105  76.784 113.502  0.00  0.00     0.038 C 
ATOM      4  C   LIG d   1      -1.765  76.368 113.476  0.00  0.00     0.028 C 
ATOM      5  C   LIG d   1      -1.145  76.237 114.863  0.00  0.00    -0.047 C 
ATOM      6  C   LIG d   1      -2.068  75.366 115.746  0.00  0.00     0.091 C 
ENDROOT
BRANCH   1   7
ATOM      7  O   LIG d   1      -4.426  74.909 116.227  0.00  0.00    -0.368 OA
BRANCH   7   8
ATOM      8  C   LIG d   1      -5.831  75.262 116.187  0.00  0.00     0.119 C 
BRANCH   8   9
ATOM      9  C   LIG d   1      -6.181  75.918 117.537  0.00  0.00     0.028 C 
ATOM     10  C   LIG d   1      -6.940  77.245 117.366  0.00  0.00     0.006 C 
ENDBRANCH   8   9
BRANCH   8  11
ATOM     11  C   LIG d   1      -6.717  74.016 116.100  0.00  0.00     0.028 C 
ATOM     12  C   LIG d   1      -8.196  74.353 115.854  0.00  0.00     0.006 C 
ENDBRANCH   8  11
ENDBRANCH   7   8
ENDBRANCH   1   7
BRANCH   6  13
ATOM     13  N   LIG d   1      -1.577  75.257 117.144  0.00  0.00    -0.311 N 
ATOM     14  C   LIG d   1      -0.807  74.260 117.576  0.00  0.00     0.210 C 
ATOM     15  C   LIG d   1      -0.430  74.329 119.059  0.00  0.00     0.109 C 
ATOM     16  O   LIG d   1      -0.374  73.341 116.864  0.00  0.00    -0.276 OA
ATOM     17  H   LIG d   1      -1.855  75.977 117.782  0.00  0.00     0.149 HD
ENDBRANCH   6  13
BRANCH   5  18
ATOM     18  N   LIG d   1       0.204  75.665 114.696  0.00  0.00     0.381 N 
ATOM     19  H   LIG d   1       0.393  75.021 115.438  0.00  0.00    -0.090 HD
ATOM     20  H   LIG d   1       0.880  76.408 114.743  0.00  0.00    -0.090 HD
ATOM     21  H   LIG d   1       0.271  75.201 113.817  0.00  0.00    -0.090 HD
ENDBRANCH   5  18
BRANCH   3  22
ATOM     22  C   LIG d   1      -3.585  77.525 112.432  0.00  0.00     0.382 C 
ATOM     23  O   LIG d   1      -4.701  77.250 111.930  0.00  0.00    -0.241 OA
ATOM     24  O   LIG d   1      -2.896  78.435 111.935  0.00  0.00    -0.241 OA
ENDBRANCH   3  22
TORSDOF 7
ENDMDL
MODEL 9
REMARK VINA RESULT:      -5.1      2.406      4.620
REMARK  7 active torsions:
REMARK  status: ('A' for Active; 'I' for Inactive)
REMARK    1  A    between atoms: C_2  and  C_3 
REMARK    2  A    between atoms: C_3  and  O_6 
REMARK    3  A    between atoms: C_3  and  C_4 
REMARK    4  A    between atoms: C_7  and  O_6 
REMARK    5  A    between atoms: C_9  and  C_10 
REMARK    6  A    between atoms: N_15  and  C_14 
REMARK    7  A    between atoms: N_20  and  C_19 
REMARK       I    between atoms: C_22  and  N_20 
ROOT
ATOM      1  C   LIG d   1      -6.020  75.845 116.233  0.00  0.00     0.161 C 
ATOM      2  C   LIG d   1      -6.563  74.608 115.845  0.00  0.00     0.016 C 
ATOM      3  C   LIG d   1      -7.839  74.156 116.253  0.00  0.00     0.038 C 
ATOM      4  C   LIG d   1      -8.727  74.981 116.959  0.00  0.00     0.028 C 
ATOM      5  C   LIG d   1      -8.028  76.043 117.801  0.00  0.00    -0.047 C 
ATOM      6  C   LIG d   1      -7.019  76.805 116.912  0.00  0.00     0.091 C 
ENDROOT
BRANCH   1   7
ATOM      7  O   LIG d   1      -5.402  76.484 115.099  0.00  0.00    -0.368 OA
BRANCH   7   8
ATOM      8  C   LIG d   1      -3.958  76.604 115.145  0.00  0.00     0.119 C 
BRANCH   8   9
ATOM      9  C   LIG d   1      -3.401  75.983 113.850  0.00  0.00     0.028 C 
ATOM     10  C   LIG d   1      -3.031  77.045 112.801  0.00  0.00     0.006 C 
ENDBRANCH   8   9
BRANCH   8  11
ATOM     11  C   LIG d   1      -3.365  75.770 116.284  0.00  0.00     0.028 C 
ATOM     12  C   LIG d   1      -2.164  74.921 115.837  0.00  0.00     0.006 C 
ENDBRANCH   8  11
ENDBRANCH   7   8
ENDBRANCH   1   7
BRANCH   6  13
ATOM     13  N   LIG d   1      -6.232  77.806 117.677  0.00  0.00    -0.311 N 
ATOM     14  C   LIG d   1      -6.670  79.035 117.945  0.00  0.00     0.210 C 
ATOM     15  C   LIG d   1      -5.692  79.914 118.731  0.00  0.00     0.109 C 
ATOM     16  O   LIG d   1      -7.790  79.470 117.635  0.00  0.00    -0.276 OA
ATOM     17  H   LIG d   1      -5.324  77.527 117.995  0.00  0.00     0.149 HD
ENDBRANCH   6  13
BRANCH   5  18
ATOM     18  N   LIG d   1      -9.071  76.917 118.372  0.00  0.00     0.381 N 
ATOM     19  H   LIG d   1      -9.292  76.618 119.301  0.00  0.00    -0.090 HD
ATOM     20  H   LIG d   1      -9.901  76.842 117.810  0.00  0.00    -0.090 HD
ATOM     21  H   LIG d   1      -8.754  77.862 118.386  0.00  0.00    -0.090 HD
ENDBRANCH   5  18
BRANCH   3  22
ATOM     22  C   LIG d   1      -8.223  72.850 115.989  0.00  0.00     0.382 C 
ATOM     23  O   LIG d   1      -9.440  72.558 115.908  0.00  0.00    -0.241 OA
ATOM     24  O   LIG d   1      -7.367  71.952 115.874  0.00  0.00    -0.241 OA
ENDBRANCH   3  22
TORSDOF 7
ENDMDL
