MODEL 1
REMARK VINA RESULT:      -5.8      0.000      0.000
REMARK  7 active torsions:
REMARK  status: ('A' for Active; 'I' for Inactive)
REMARK    1  A    between atoms: C_2  and  C_3 
REMARK    2  A    between atoms: C_3  and  O_6 
REMARK    3  A    between atoms: C_3  and  C_4 
REMARK    4  A    between atoms: C_7  and  O_6 
REMARK    5  A    between atoms: C_9  and  C_10 
REMARK    6  A    between atoms: N_15  and  C_14 
REMARK    7  A    between atoms: N_20  and  C_19 
REMARK       I    between atoms: C_22  and  N_20 
ROOT
ATOM      1  C   LIG d   1      -6.787  76.573 115.522  0.00  0.00     0.161 C 
ATOM      2  C   LIG d   1      -5.982  75.516 115.066  0.00  0.00     0.016 C 
ATOM      3  C   LIG d   1      -4.687  75.251 115.568  0.00  0.00     0.038 C 
ATOM      4  C   LIG d   1      -4.166  75.938 116.674  0.00  0.00     0.028 C 
ATOM      5  C   LIG d   1      -4.737  77.343 116.838  0.00  0.00    -0.047 C 
ATOM      6  C   LIG d   1      -6.280  77.265 116.805  0.00  0.00     0.091 C 
ENDROOT
BRANCH   1   7
ATOM      7  O   LIG d   1      -8.141  76.113 115.702  0.00  0.00    -0.368 OA
BRANCH   7   8
ATOM      8  C   LIG d   1      -8.462  75.572 117.008  0.00  0.00     0.119 C 
BRANCH   8   9
ATOM      9  C   LIG d   1      -8.288  74.043 116.931  0.00  0.00     0.028 C 
ATOM     10  C   LIG d   1      -9.624  73.293 117.060  0.00  0.00     0.006 C 
ENDBRANCH   8   9
BRANCH   8  11
ATOM     11  C   LIG d   1      -9.937  75.796 117.356  0.00  0.00     0.028 C 
ATOM     12  C   LIG d   1     -10.143  76.922 118.381  0.00  0.00     0.006 C 
ENDBRANCH   8  11
ENDBRANCH   7   8
ENDBRANCH   1   7
BRANCH   6  13
ATOM     13  N   LIG d   1      -6.917  78.605 116.874  0.00  0.00    -0.311 N 
ATOM     14  C   LIG d   1      -7.313  79.171 118.014  0.00  0.00     0.210 C 
ATOM     15  C   LIG d   1      -7.965  80.548 117.860  0.00  0.00     0.109 C 
ATOM     16  O   LIG d   1      -7.158  78.676 119.140  0.00  0.00    -0.276 OA
ATOM     17  H   LIG d   1      -7.054  79.091 116.010  0.00  0.00     0.149 HD
ENDBRANCH   6  13
BRANCH   5  18
ATOM     18  N   LIG d   1      -4.213  77.892 118.103  0.00  0.00     0.381 N 
ATOM     19  H   LIG d   1      -3.697  78.730 117.921  0.00  0.00    -0.090 HD
ATOM     20  H   LIG d   1      -3.588  77.221 118.515  0.00  0.00    -0.090 HD
ATOM     21  H   LIG d   1      -4.964  78.085 118.728  0.00  0.00    -0.090 HD
ENDBRANCH   5  18
BRANCH   3  22
ATOM     22  C   LIG d   1      -3.883  74.315 114.935  0.00  0.00     0.382 C 
ATOM     23  O   LIG d   1      -4.405  73.393 114.262  0.00  0.00    -0.241 OA
ATOM     24  O   LIG d   1      -2.645  74.354 115.066  0.00  0.00    -0.241 OA
ENDBRANCH   3  22
TORSDOF 7
ENDMDL
MODEL 2
REMARK VINA RESULT:      -5.8      2.412      4.342
REMARK  7 active torsions:
REMARK  status: ('A' for Active; 'I' for Inactive)
REMARK    1  A    between atoms: C_2  and  C_3 
REMARK    2  A    between atoms: C_3  and  O_6 
REMARK    3  A    between atoms: C_3  and  C_4 
REMARK    4  A    between atoms: C_7  and  O_6 
REMARK    5  A    between atoms: C_9  and  C_10 
REMARK    6  A    between atoms: N_15  and  C_14 
REMARK    7  A    between atoms: N_20  and  C_19 
REMARK       I    between atoms: C_22  and  N_20 
ROOT
ATOM      1  C   LIG d   1      -7.197  75.628 116.801  0.00  0.00     0.161 C 
ATOM      2  C   LIG d   1      -8.050  74.527 116.991  0.00  0.00     0.016 C 
ATOM      3  C   LIG d   1      -7.619  73.184 116.901  0.00  0.00     0.038 C 
ATOM      4  C   LIG d   1      -6.264  72.848 116.763  0.00  0.00     0.028 C 
ATOM      5  C   LIG d   1      -5.441  73.924 116.064  0.00  0.00    -0.047 C 
ATOM      6  C   LIG d   1      -5.694  75.281 116.760  0.00  0.00     0.091 C 
ENDROOT
BRANCH   1   7
ATOM      7  O   LIG d   1      -7.453  76.625 117.810  0.00  0.00    -0.368 OA
BRANCH   7   8
ATOM      8  C   LIG d   1      -8.279  77.744 117.404  0.00  0.00     0.119 C 
BRANCH   8   9
ATOM      9  C   LIG d   1      -7.378  78.994 117.365  0.00  0.00     0.028 C 
ATOM     10  C   LIG d   1      -8.147  80.282 117.701  0.00  0.00     0.006 C 
ENDBRANCH   8   9
BRANCH   8  11
ATOM     11  C   LIG d   1      -9.354  78.052 118.451  0.00  0.00     0.028 C 
ATOM     12  C   LIG d   1     -10.415  76.944 118.559  0.00  0.00     0.006 C 
ENDBRANCH   8  11
ENDBRANCH   7   8
ENDBRANCH   1   7
BRANCH   6  13
ATOM     13  N   LIG d   1      -4.992  76.404 116.086  0.00  0.00    -0.311 N 
ATOM     14  C   LIG d   1      -3.793  76.848 116.458  0.00  0.00     0.210 C 
ATOM     15  C   LIG d   1      -3.258  78.028 115.641  0.00  0.00     0.109 C 
ATOM     16  O   LIG d   1      -3.107  76.356 117.367  0.00  0.00    -0.276 OA
ATOM     17  H   LIG d   1      -5.463  76.841 115.318  0.00  0.00     0.149 HD
ENDBRANCH   6  13
BRANCH   5  18
ATOM     18  N   LIG d   1      -4.027  73.505 116.111  0.00  0.00     0.381 N 
ATOM     19  H   LIG d   1      -3.603  73.837 116.954  0.00  0.00    -0.090 HD
ATOM     20  H   LIG d   1      -3.541  73.913 115.331  0.00  0.00    -0.090 HD
ATOM     21  H   LIG d   1      -3.964  72.512 116.067  0.00  0.00    -0.090 HD
ENDBRANCH   5  18
BRANCH   3  22
ATOM     22  C   LIG d   1      -8.554  72.160 116.909  0.00  0.00     0.382 C 
ATOM     23  O   LIG d   1      -8.196  70.982 116.669  0.00  0.00    -0.241 OA
ATOM     24  O   LIG d   1      -9.758  72.406 117.110  0.00  0.00    -0.241 OA
ENDBRANCH   3  22
TORSDOF 7
ENDMDL
MODEL 3
REMARK VINA RESULT:      -5.8      1.892      5.212
REMARK  7 active torsions:
REMARK  status: ('A' for Active; 'I' for Inactive)
REMARK    1  A    between atoms: C_2  and  C_3 
REMARK    2  A    between atoms: C_3  and  O_6 
REMARK    3  A    between atoms: C_3  and  C_4 
REMARK    4  A    between atoms: C_7  and  O_6 
REMARK    5  A    between atoms: C_9  and  C_10 
REMARK    6  A    between atoms: N_15  and  C_14 
REMARK    7  A    between atoms: N_20  and  C_19 
REMARK       I    between atoms: C_22  and  N_20 
ROOT
ATOM      1  C   LIG d   1      -7.816  76.739 117.541  0.00  0.00     0.161 C 
ATOM      2  C   LIG d   1      -8.933  77.390 118.092  0.00  0.00     0.016 C 
ATOM      3  C   LIG d   1      -9.027  78.794 118.228  0.00  0.00     0.038 C 
ATOM      4  C   LIG d   1      -8.068  79.658 117.679  0.00  0.00     0.028 C 
ATOM      5  C   LIG d   1      -6.683  79.030 117.562  0.00  0.00    -0.047 C 
ATOM      6  C   LIG d   1      -6.809  77.671 116.835  0.00  0.00     0.091 C 
ENDROOT
BRANCH   1   7
ATOM      7  O   LIG d   1      -8.251  75.700 116.642  0.00  0.00    -0.368 OA
BRANCH   7   8
ATOM      8  C   LIG d   1      -8.345  74.368 117.206  0.00  0.00     0.119 C 
BRANCH   8   9
ATOM      9  C   LIG d   1      -7.193  73.533 116.615  0.00  0.00     0.028 C 
ATOM     10  C   LIG d   1      -6.013  73.388 117.591  0.00  0.00     0.006 C 
ENDBRANCH   8   9
BRANCH   8  11
ATOM     11  C   LIG d   1      -9.629  73.663 116.758  0.00  0.00     0.028 C 
ATOM     12  C   LIG d   1      -9.673  72.184 117.176  0.00  0.00     0.006 C 
ENDBRANCH   8  11
ENDBRANCH   7   8
ENDBRANCH   1   7
BRANCH   6  13
ATOM     13  N   LIG d   1      -5.511  76.950 116.753  0.00  0.00    -0.311 N 
ATOM     14  C   LIG d   1      -4.995  76.498 115.612  0.00  0.00     0.210 C 
ATOM     15  C   LIG d   1      -3.657  75.765 115.753  0.00  0.00     0.109 C 
ATOM     16  O   LIG d   1      -5.502  76.662 114.492  0.00  0.00    -0.276 OA
ATOM     17  H   LIG d   1      -5.018  76.801 117.611  0.00  0.00     0.149 HD
ENDBRANCH   6  13
BRANCH   5  18
ATOM     18  N   LIG d   1      -5.817  79.988 116.850  0.00  0.00     0.381 N 
ATOM     19  H   LIG d   1      -6.376  80.587 116.275  0.00  0.00    -0.090 HD
ATOM     20  H   LIG d   1      -5.188  79.478 116.256  0.00  0.00    -0.090 HD
ATOM     21  H   LIG d   1      -5.300  80.532 117.505  0.00  0.00    -0.090 HD
ENDBRANCH   5  18
BRANCH   3  22
ATOM     22  C   LIG d   1     -10.071  79.346 118.955  0.00  0.00     0.382 C 
ATOM     23  O   LIG d   1     -10.955  78.602 119.445  0.00  0.00    -0.241 OA
ATOM     24  O   LIG d   1     -10.164  80.581 119.089  0.00  0.00    -0.241 OA
ENDBRANCH   3  22
TORSDOF 7
ENDMDL
MODEL 4
REMARK VINA RESULT:      -5.7      2.968      5.495
REMARK  7 active torsions:
REMARK  status: ('A' for Active; 'I' for Inactive)
REMARK    1  A    between atoms: C_2  and  C_3 
REMARK    2  A    between atoms: C_3  and  O_6 
REMARK    3  A    between atoms: C_3  and  C_4 
REMARK    4  A    between atoms: C_7  and  O_6 
REMARK    5  A    between atoms: C_9  and  C_10 
REMARK    6  A    between atoms: N_15  and  C_14 
REMARK    7  A    between atoms: N_20  and  C_19 
REMARK       I    between atoms: C_22  and  N_20 
ROOT
ATOM      1  C   LIG d   1      -3.595  74.604 115.853  0.00  0.00     0.161 C 
ATOM      2  C   LIG d   1      -4.210  73.377 115.555  0.00  0.00     0.016 C 
ATOM      3  C   LIG d   1      -5.579  73.115 115.791  0.00  0.00     0.038 C 
ATOM      4  C   LIG d   1      -6.466  74.120 116.204  0.00  0.00     0.028 C 
ATOM      5  C   LIG d   1      -5.791  75.235 116.996  0.00  0.00    -0.047 C 
ATOM      6  C   LIG d   1      -4.570  75.749 116.200  0.00  0.00     0.091 C 
ENDROOT
BRANCH   1   7
ATOM      7  O   LIG d   1      -2.731  74.994 114.767  0.00  0.00    -0.368 OA
BRANCH   7   8
ATOM      8  C   LIG d   1      -1.308  74.948 115.037  0.00  0.00     0.119 C 
BRANCH   8   9
ATOM      9  C   LIG d   1      -1.126  74.432 116.477  0.00  0.00     0.028 C 
ATOM     10  C   LIG d   1      -0.294  75.391 117.344  0.00  0.00     0.006 C 
ENDBRANCH   8   9
BRANCH   8  11
ATOM     11  C   LIG d   1      -0.694  76.351 115.028  0.00  0.00     0.028 C 
ATOM     12  C   LIG d   1      -1.311  77.266 113.958  0.00  0.00     0.006 C 
ENDBRANCH   8  11
ENDBRANCH   7   8
ENDBRANCH   1   7
BRANCH   6  13
ATOM     13  N   LIG d   1      -3.804  76.783 116.942  0.00  0.00    -0.311 N 
ATOM     14  C   LIG d   1      -3.726  78.056 116.556  0.00  0.00     0.210 C 
ATOM     15  C   LIG d   1      -2.867  78.952 117.454  0.00  0.00     0.109 C 
ATOM     16  O   LIG d   1      -4.313  78.534 115.574  0.00  0.00    -0.276 OA
ATOM     17  H   LIG d   1      -3.322  76.488 117.769  0.00  0.00     0.149 HD
ENDBRANCH   6  13
BRANCH   5  18
ATOM     18  N   LIG d   1      -6.802  76.281 117.243  0.00  0.00     0.381 N 
ATOM     19  H   LIG d   1      -7.197  76.582 116.374  0.00  0.00    -0.090 HD
ATOM     20  H   LIG d   1      -6.355  77.069 117.677  0.00  0.00    -0.090 HD
ATOM     21  H   LIG d   1      -7.520  75.928 117.837  0.00  0.00    -0.090 HD
ENDBRANCH   5  18
BRANCH   3  22
ATOM     22  C   LIG d   1      -6.066  71.824 115.652  0.00  0.00     0.382 C 
ATOM     23  O   LIG d   1      -5.401  70.968 115.020  0.00  0.00    -0.241 OA
ATOM     24  O   LIG d   1      -7.181  71.516 116.112  0.00  0.00    -0.241 OA
ENDBRANCH   3  22
TORSDOF 7
ENDMDL
MODEL 5
REMARK VINA RESULT:      -5.7      2.334      3.588
REMARK  7 active torsions:
REMARK  status: ('A' for Active; 'I' for Inactive)
REMARK    1  A    between atoms: C_2  and  C_3 
REMARK    2  A    between atoms: C_3  and  O_6 
REMARK    3  A    between atoms: C_3  and  C_4 
REMARK    4  A    between atoms: C_7  and  O_6 
REMARK    5  A    between atoms: C_9  and  C_10 
REMARK    6  A    between atoms: N_15  and  C_14 
REMARK    7  A    between atoms: N_20  and  C_19 
REMARK       I    between atoms: C_22  and  N_20 
ROOT
ATOM      1  C   LIG d   1      -6.231  75.489 116.119  0.00  0.00     0.161 C 
ATOM      2  C   LIG d   1      -6.597  74.132 116.122  0.00  0.00     0.016 C 
ATOM      3  C   LIG d   1      -5.686  73.079 115.878  0.00  0.00     0.038 C 
ATOM      4  C   LIG d   1      -4.306  73.305 115.764  0.00  0.00     0.028 C 
ATOM      5  C   LIG d   1      -3.961  74.699 115.251  0.00  0.00    -0.047 C 
ATOM      6  C   LIG d   1      -4.710  75.747 116.106  0.00  0.00     0.091 C 
ENDROOT
BRANCH   1   7
ATOM      7  O   LIG d   1      -6.844  76.163 117.235  0.00  0.00    -0.368 OA
BRANCH   7   8
ATOM      8  C   LIG d   1      -7.884  77.118 116.910  0.00  0.00     0.119 C 
BRANCH   8   9
ATOM      9  C   LIG d   1      -7.397  78.507 117.367  0.00  0.00     0.028 C 
ATOM     10  C   LIG d   1      -6.417  78.425 118.550  0.00  0.00     0.006 C 
ENDBRANCH   8   9
BRANCH   8  11
ATOM     11  C   LIG d   1      -9.159  76.850 117.715  0.00  0.00     0.028 C 
ATOM     12  C   LIG d   1      -9.874  75.559 117.286  0.00  0.00     0.006 C 
ENDBRANCH   8  11
ENDBRANCH   7   8
ENDBRANCH   1   7
BRANCH   6  13
ATOM     13  N   LIG d   1      -4.493  77.134 115.618  0.00  0.00    -0.311 N 
ATOM     14  C   LIG d   1      -3.563  77.949 116.113  0.00  0.00     0.210 C 
ATOM     15  C   LIG d   1      -3.522  79.344 115.482  0.00  0.00     0.109 C 
ATOM     16  O   LIG d   1      -2.746  77.637 116.993  0.00  0.00    -0.276 OA
ATOM     17  H   LIG d   1      -5.092  77.459 114.884  0.00  0.00     0.149 HD
ENDBRANCH   6  13
BRANCH   5  18
ATOM     18  N   LIG d   1      -2.494  74.845 115.312  0.00  0.00     0.381 N 
ATOM     19  H   LIG d   1      -2.258  75.731 115.713  0.00  0.00    -0.090 HD
ATOM     20  H   LIG d   1      -2.125  74.814 114.377  0.00  0.00    -0.090 HD
ATOM     21  H   LIG d   1      -2.100  74.110 115.857  0.00  0.00    -0.090 HD
ENDBRANCH   5  18
BRANCH   3  22
ATOM     22  C   LIG d   1      -6.159  71.787 115.707  0.00  0.00     0.382 C 
ATOM     23  O   LIG d   1      -5.474  70.948 115.074  0.00  0.00    -0.241 OA
ATOM     24  O   LIG d   1      -7.281  71.462 116.140  0.00  0.00    -0.241 OA
ENDBRANCH   3  22
TORSDOF 7
ENDMDL
MODEL 6
REMARK VINA RESULT:      -5.7      1.767      4.954
REMARK  7 active torsions:
REMARK  status: ('A' for Active; 'I' for Inactive)
REMARK    1  A    between atoms: C_2  and  C_3 
REMARK    2  A    between atoms: C_3  and  O_6 
REMARK    3  A    between atoms: C_3  and  C_4 
REMARK    4  A    between atoms: C_7  and  O_6 
REMARK    5  A    between atoms: C_9  and  C_10 
REMARK    6  A    between atoms: N_15  and  C_14 
REMARK    7  A    between atoms: N_20  and  C_19 
REMARK       I    between atoms: C_22  and  N_20 
ROOT
ATOM      1  C   LIG d   1      -6.301  77.193 117.022  0.00  0.00     0.161 C 
ATOM      2  C   LIG d   1      -6.987  78.370 117.364  0.00  0.00     0.016 C 
ATOM      3  C   LIG d   1      -6.441  79.664 117.203  0.00  0.00     0.038 C 
ATOM      4  C   LIG d   1      -5.222  79.878 116.544  0.00  0.00     0.028 C 
ATOM      5  C   LIG d   1      -4.267  78.692 116.637  0.00  0.00    -0.047 C 
ATOM      6  C   LIG d   1      -5.014  77.411 116.199  0.00  0.00     0.091 C 
ENDROOT
BRANCH   1   7
ATOM      7  O   LIG d   1      -7.189  76.292 116.333  0.00  0.00    -0.368 OA
BRANCH   7   8
ATOM      8  C   LIG d   1      -7.754  75.220 117.129  0.00  0.00     0.119 C 
BRANCH   8   9
ATOM      9  C   LIG d   1      -7.101  73.904 116.663  0.00  0.00     0.028 C 
ATOM     10  C   LIG d   1      -6.042  73.392 117.653  0.00  0.00     0.006 C 
ENDBRANCH   8   9
BRANCH   8  11
ATOM     11  C   LIG d   1      -9.251  75.051 116.853  0.00  0.00     0.028 C 
ATOM     12  C   LIG d   1      -9.732  73.604 117.046  0.00  0.00     0.006 C 
ENDBRANCH   8  11
ENDBRANCH   7   8
ENDBRANCH   1   7
BRANCH   6  13
ATOM     13  N   LIG d   1      -4.177  76.191 116.340  0.00  0.00    -0.311 N 
ATOM     14  C   LIG d   1      -3.846  75.407 115.316  0.00  0.00     0.210 C 
ATOM     15  C   LIG d   1      -2.993  74.188 115.684  0.00  0.00     0.109 C 
ATOM     16  O   LIG d   1      -4.150  75.622 114.133  0.00  0.00    -0.276 OA
ATOM     17  H   LIG d   1      -3.861  75.959 117.261  0.00  0.00     0.149 HD
ENDBRANCH   6  13
BRANCH   5  18
ATOM     18  N   LIG d   1      -3.096  78.995 115.794  0.00  0.00     0.381 N 
ATOM     19  H   LIG d   1      -2.779  79.926 115.976  0.00  0.00    -0.090 HD
ATOM     20  H   LIG d   1      -3.367  78.938 114.828  0.00  0.00    -0.090 HD
ATOM     21  H   LIG d   1      -2.364  78.345 115.979  0.00  0.00    -0.090 HD
ENDBRANCH   5  18
BRANCH   3  22
ATOM     22  C   LIG d   1      -7.100  80.760 117.740  0.00  0.00     0.382 C 
ATOM     23  O   LIG d   1      -6.921  81.071 118.943  0.00  0.00    -0.241 OA
ATOM     24  O   LIG d   1      -7.905  81.414 117.051  0.00  0.00    -0.241 OA
ENDBRANCH   3  22
TORSDOF 7
ENDMDL
MODEL 7
REMARK VINA RESULT:      -5.6      2.299      4.988
REMARK  7 active torsions:
REMARK  status: ('A' for Active; 'I' for Inactive)
REMARK    1  A    between atoms: C_2  and  C_3 
REMARK    2  A    between atoms: C_3  and  O_6 
REMARK    3  A    between atoms: C_3  and  C_4 
REMARK    4  A    between atoms: C_7  and  O_6 
REMARK    5  A    between atoms: C_9  and  C_10 
REMARK    6  A    between atoms: N_15  and  C_14 
REMARK    7  A    between atoms: N_20  and  C_19 
REMARK       I    between atoms: C_22  and  N_20 
ROOT
ATOM      1  C   LIG d   1      -6.474  76.870 115.737  0.00  0.00     0.161 C 
ATOM      2  C   LIG d   1      -7.745  76.515 116.221  0.00  0.00     0.016 C 
ATOM      3  C   LIG d   1      -8.042  75.245 116.767  0.00  0.00     0.038 C 
ATOM      4  C   LIG d   1      -7.044  74.289 117.008  0.00  0.00     0.028 C 
ATOM      5  C   LIG d   1      -5.846  74.416 116.073  0.00  0.00    -0.047 C 
ATOM      6  C   LIG d   1      -5.347  75.878 116.093  0.00  0.00     0.091 C 
ENDROOT
BRANCH   1   7
ATOM      7  O   LIG d   1      -6.134  78.197 116.185  0.00  0.00    -0.368 OA
BRANCH   7   8
ATOM      8  C   LIG d   1      -6.648  78.582 117.484  0.00  0.00     0.119 C 
BRANCH   8   9
ATOM      9  C   LIG d   1      -7.003  80.080 117.416  0.00  0.00     0.028 C 
ATOM     10  C   LIG d   1      -8.461  80.356 117.819  0.00  0.00     0.006 C 
ENDBRANCH   8   9
BRANCH   8  11
ATOM     11  C   LIG d   1      -5.569  78.470 118.566  0.00  0.00     0.028 C 
ATOM     12  C   LIG d   1      -5.791  77.276 119.507  0.00  0.00     0.006 C 
ENDBRANCH   8  11
ENDBRANCH   7   8
ENDBRANCH   1   7
BRANCH   6  13
ATOM     13  N   LIG d   1      -4.228  76.109 115.142  0.00  0.00    -0.311 N 
ATOM     14  C   LIG d   1      -3.092  76.717 115.479  0.00  0.00     0.210 C 
ATOM     15  C   LIG d   1      -2.079  76.870 114.341  0.00  0.00     0.109 C 
ATOM     16  O   LIG d   1      -2.815  77.116 116.620  0.00  0.00    -0.276 OA
ATOM     17  H   LIG d   1      -4.356  75.789 114.202  0.00  0.00     0.149 HD
ENDBRANCH   6  13
BRANCH   5  18
ATOM     18  N   LIG d   1      -4.826  73.450 116.523  0.00  0.00     0.381 N 
ATOM     19  H   LIG d   1      -5.105  73.042 117.393  0.00  0.00    -0.090 HD
ATOM     20  H   LIG d   1      -3.959  73.937 116.667  0.00  0.00    -0.090 HD
ATOM     21  H   LIG d   1      -4.705  72.737 115.837  0.00  0.00    -0.090 HD
ENDBRANCH   5  18
BRANCH   3  22
ATOM     22  C   LIG d   1      -9.359  74.907 117.043  0.00  0.00     0.382 C 
ATOM     23  O   LIG d   1     -10.208  75.808 117.245  0.00  0.00    -0.241 OA
ATOM     24  O   LIG d   1      -9.698  73.712 117.135  0.00  0.00    -0.241 OA
ENDBRANCH   3  22
TORSDOF 7
ENDMDL
MODEL 8
REMARK VINA RESULT:      -5.6      2.204      5.249
REMARK  7 active torsions:
REMARK  status: ('A' for Active; 'I' for Inactive)
REMARK    1  A    between atoms: C_2  and  C_3 
REMARK    2  A    between atoms: C_3  and  O_6 
REMARK    3  A    between atoms: C_3  and  C_4 
REMARK    4  A    between atoms: C_7  and  O_6 
REMARK    5  A    between atoms: C_9  and  C_10 
REMARK    6  A    between atoms: N_15  and  C_14 
REMARK    7  A    between atoms: N_20  and  C_19 
REMARK       I    between atoms: C_22  and  N_20 
ROOT
ATOM      1  C   LIG d   1      -6.921  76.834 117.320  0.00  0.00     0.161 C 
ATOM      2  C   LIG d   1      -8.262  76.952 117.723  0.00  0.00     0.016 C 
ATOM      3  C   LIG d   1      -8.894  78.192 117.969  0.00  0.00     0.038 C 
ATOM      4  C   LIG d   1      -8.268  79.414 117.680  0.00  0.00     0.028 C 
ATOM      5  C   LIG d   1      -6.746  79.346 117.752  0.00  0.00    -0.047 C 
ATOM      6  C   LIG d   1      -6.255  78.158 116.893  0.00  0.00     0.091 C 
ENDROOT
BRANCH   1   7
ATOM      7  O   LIG d   1      -6.812  75.856 116.266  0.00  0.00    -0.368 OA
BRANCH   7   8
ATOM      8  C   LIG d   1      -5.933  74.734 116.527  0.00  0.00     0.119 C 
BRANCH   8   9
ATOM      9  C   LIG d   1      -5.095  74.499 115.255  0.00  0.00     0.028 C 
ATOM     10  C   LIG d   1      -5.287  75.611 114.211  0.00  0.00     0.006 C 
ENDBRANCH   8   9
BRANCH   8  11
ATOM     11  C   LIG d   1      -6.726  73.441 116.735  0.00  0.00     0.028 C 
ATOM     12  C   LIG d   1      -6.096  72.234 116.022  0.00  0.00     0.006 C 
ENDBRANCH   8  11
ENDBRANCH   7   8
ENDBRANCH   1   7
BRANCH   6  13
ATOM     13  N   LIG d   1      -4.784  77.969 116.975  0.00  0.00    -0.311 N 
ATOM     14  C   LIG d   1      -3.923  78.532 116.128  0.00  0.00     0.210 C 
ATOM     15  C   LIG d   1      -2.451  78.190 116.379  0.00  0.00     0.109 C 
ATOM     16  O   LIG d   1      -4.237  79.307 115.212  0.00  0.00    -0.276 OA
ATOM     17  H   LIG d   1      -4.440  77.379 117.708  0.00  0.00     0.149 HD
ENDBRANCH   6  13
BRANCH   5  18
ATOM     18  N   LIG d   1      -6.220  80.646 117.296  0.00  0.00     0.381 N 
ATOM     19  H   LIG d   1      -6.906  81.359 117.442  0.00  0.00    -0.090 HD
ATOM     20  H   LIG d   1      -6.027  80.591 116.311  0.00  0.00    -0.090 HD
ATOM     21  H   LIG d   1      -5.386  80.870 117.793  0.00  0.00    -0.090 HD
ENDBRANCH   5  18
BRANCH   3  22
ATOM     22  C   LIG d   1     -10.154  78.219 118.547  0.00  0.00     0.382 C 
ATOM     23  O   LIG d   1     -10.553  79.253 119.135  0.00  0.00    -0.241 OA
ATOM     24  O   LIG d   1     -10.880  77.206 118.527  0.00  0.00    -0.241 OA
ENDBRANCH   3  22
TORSDOF 7
ENDMDL
MODEL 9
REMARK VINA RESULT:      -5.5      2.519      6.018
REMARK  7 active torsions:
REMARK  status: ('A' for Active; 'I' for Inactive)
REMARK    1  A    between atoms: C_2  and  C_3 
REMARK    2  A    between atoms: C_3  and  O_6 
REMARK    3  A    between atoms: C_3  and  C_4 
REMARK    4  A    between atoms: C_7  and  O_6 
REMARK    5  A    between atoms: C_9  and  C_10 
REMARK    6  A    between atoms: N_15  and  C_14 
REMARK    7  A    between atoms: N_20  and  C_19 
REMARK       I    between atoms: C_22  and  N_20 
ROOT
ATOM      1  C   LIG d   1      -6.108  76.785 116.826  0.00  0.00     0.161 C 
ATOM      2  C   LIG d   1      -6.544  78.081 117.148  0.00  0.00     0.016 C 
ATOM      3  C   LIG d   1      -7.880  78.390 117.492  0.00  0.00     0.038 C 
ATOM      4  C   LIG d   1      -8.846  77.391 117.684  0.00  0.00     0.028 C 
ATOM      5  C   LIG d   1      -8.576  76.124 116.879  0.00  0.00    -0.047 C 
ATOM      6  C   LIG d   1      -7.123  75.665 117.138  0.00  0.00     0.091 C 
ENDROOT
BRANCH   1   7
ATOM      7  O   LIG d   1      -4.850  76.516 117.475  0.00  0.00    -0.368 OA
BRANCH   7   8
ATOM      8  C   LIG d   1      -3.662  76.938 116.762  0.00  0.00     0.119 C 
BRANCH   8   9
ATOM      9  C   LIG d   1      -3.446  75.950 115.599  0.00  0.00     0.028 C 
ATOM     10  C   LIG d   1      -2.887  74.598 116.073  0.00  0.00     0.006 C 
ENDBRANCH   8   9
BRANCH   8  11
ATOM     11  C   LIG d   1      -2.412  76.812 117.638  0.00  0.00     0.028 C 
ATOM     12  C   LIG d   1      -2.710  77.008 119.133  0.00  0.00     0.006 C 
ENDBRANCH   8  11
ENDBRANCH   7   8
ENDBRANCH   1   7
BRANCH   6  13
ATOM     13  N   LIG d   1      -6.749  74.479 116.323  0.00  0.00    -0.311 N 
ATOM     14  C   LIG d   1      -6.246  73.361 116.844  0.00  0.00     0.210 C 
ATOM     15  C   LIG d   1      -5.911  72.268 115.825  0.00  0.00     0.109 C 
ATOM     16  O   LIG d   1      -6.076  73.160 118.056  0.00  0.00    -0.276 OA
ATOM     17  H   LIG d   1      -6.883  74.545 115.333  0.00  0.00     0.149 HD
ENDBRANCH   6  13
BRANCH   5  18
ATOM     18  N   LIG d   1      -9.580  75.120 117.278  0.00  0.00     0.381 N 
ATOM     19  H   LIG d   1     -10.500  75.492 117.155  0.00  0.00    -0.090 HD
ATOM     20  H   LIG d   1      -9.454  74.904 118.252  0.00  0.00    -0.090 HD
ATOM     21  H   LIG d   1      -9.472  74.294 116.731  0.00  0.00    -0.090 HD
ENDBRANCH   5  18
BRANCH   3  22
ATOM     22  C   LIG d   1      -8.271  79.715 117.607  0.00  0.00     0.382 C 
ATOM     23  O   LIG d   1      -7.555  80.624 117.123  0.00  0.00    -0.241 OA
ATOM     24  O   LIG d   1      -9.308  80.016 118.228  0.00  0.00    -0.241 OA
ENDBRANCH   3  22
TORSDOF 7
ENDMDL
