MODEL 1
REMARK VINA RESULT:      -5.6      0.000      0.000
REMARK  7 active torsions:
REMARK  status: ('A' for Active; 'I' for Inactive)
REMARK    1  A    between atoms: C_2  and  C_3 
REMARK    2  A    between atoms: C_3  and  O_6 
REMARK    3  A    between atoms: C_3  and  C_4 
REMARK    4  A    between atoms: C_7  and  O_6 
REMARK    5  A    between atoms: C_9  and  C_10 
REMARK    6  A    between atoms: N_15  and  C_14 
REMARK    7  A    between atoms: N_20  and  C_19 
REMARK       I    between atoms: C_22  and  N_20 
ROOT
ATOM      1  C   LIG d   1      -8.511  75.557 117.389  0.00  0.00     0.161 C 
ATOM      2  C   LIG d   1      -7.549  75.341 116.388  0.00  0.00     0.016 C 
ATOM      3  C   LIG d   1      -6.408  76.158 116.216  0.00  0.00     0.038 C 
ATOM      4  C   LIG d   1      -6.071  77.164 117.134  0.00  0.00     0.028 C 
ATOM      5  C   LIG d   1      -7.276  77.742 117.869  0.00  0.00    -0.047 C 
ATOM      6  C   LIG d   1      -8.102  76.581 118.468  0.00  0.00     0.091 C 
ENDROOT
BRANCH   1   7
ATOM      7  O   LIG d   1      -8.870  74.302 118.000  0.00  0.00    -0.368 OA
BRANCH   7   8
ATOM      8  C   LIG d   1      -9.983  73.596 117.398  0.00  0.00     0.119 C 
BRANCH   8   9
ATOM      9  C   LIG d   1     -11.157  73.645 118.395  0.00  0.00     0.028 C 
ATOM     10  C   LIG d   1     -12.098  74.833 118.136  0.00  0.00     0.006 C 
ENDBRANCH   8   9
BRANCH   8  11
ATOM     11  C   LIG d   1      -9.666  72.108 117.218  0.00  0.00     0.028 C 
ATOM     12  C   LIG d   1      -8.161  71.807 117.282  0.00  0.00     0.006 C 
ENDBRANCH   8  11
ENDBRANCH   7   8
ENDBRANCH   1   7
BRANCH   6  13
ATOM     13  N   LIG d   1      -9.345  77.054 119.133  0.00  0.00    -0.311 N 
ATOM     14  C   LIG d   1      -9.684  76.720 120.376  0.00  0.00     0.210 C 
ATOM     15  C   LIG d   1     -11.016  77.300 120.862  0.00  0.00     0.109 C 
ATOM     16  O   LIG d   1      -8.993  76.024 121.135  0.00  0.00    -0.276 OA
ATOM     17  H   LIG d   1      -9.949  77.649 118.600  0.00  0.00     0.149 HD
ENDBRANCH   6  13
BRANCH   5  18
ATOM     18  N   LIG d   1      -6.769  78.678 118.889  0.00  0.00     0.381 N 
ATOM     19  H   LIG d   1      -7.426  78.750 119.640  0.00  0.00    -0.090 HD
ATOM     20  H   LIG d   1      -6.664  79.587 118.474  0.00  0.00    -0.090 HD
ATOM     21  H   LIG d   1      -5.890  78.361 119.237  0.00  0.00    -0.090 HD
ENDBRANCH   5  18
BRANCH   3  22
ATOM     22  C   LIG d   1      -5.611  75.998 115.092  0.00  0.00     0.382 C 
ATOM     23  O   LIG d   1      -5.078  76.998 114.555  0.00  0.00    -0.241 OA
ATOM     24  O   LIG d   1      -5.456  74.872 114.583  0.00  0.00    -0.241 OA
ENDBRANCH   3  22
TORSDOF 7
ENDMDL
MODEL 2
REMARK VINA RESULT:      -5.5      2.453      4.465
REMARK  7 active torsions:
REMARK  status: ('A' for Active; 'I' for Inactive)
REMARK    1  A    between atoms: C_2  and  C_3 
REMARK    2  A    between atoms: C_3  and  O_6 
REMARK    3  A    between atoms: C_3  and  C_4 
REMARK    4  A    between atoms: C_7  and  O_6 
REMARK    5  A    between atoms: C_9  and  C_10 
REMARK    6  A    between atoms: N_15  and  C_14 
REMARK    7  A    between atoms: N_20  and  C_19 
REMARK       I    between atoms: C_22  and  N_20 
ROOT
ATOM      1  C   LIG d   1      -9.335  77.129 118.454  0.00  0.00     0.161 C 
ATOM      2  C   LIG d   1      -8.170  77.412 117.722  0.00  0.00     0.016 C 
ATOM      3  C   LIG d   1      -7.539  76.476 116.871  0.00  0.00     0.038 C 
ATOM      4  C   LIG d   1      -8.120  75.234 116.575  0.00  0.00     0.028 C 
ATOM      5  C   LIG d   1      -9.032  74.712 117.681  0.00  0.00    -0.047 C 
ATOM      6  C   LIG d   1     -10.045  75.817 118.058  0.00  0.00     0.091 C 
ENDROOT
BRANCH   1   7
ATOM      7  O   LIG d   1     -10.249  78.240 118.365  0.00  0.00    -0.368 OA
BRANCH   7   8
ATOM      8  C   LIG d   1     -10.376  79.058 119.555  0.00  0.00     0.119 C 
BRANCH   8   9
ATOM      9  C   LIG d   1      -9.588  80.359 119.307  0.00  0.00     0.028 C 
ATOM     10  C   LIG d   1      -9.918  80.995 117.946  0.00  0.00     0.006 C 
ENDBRANCH   8   9
BRANCH   8  11
ATOM     11  C   LIG d   1      -9.699  78.397 120.760  0.00  0.00     0.028 C 
ATOM     12  C   LIG d   1     -10.700  77.971 121.845  0.00  0.00     0.006 C 
ENDBRANCH   8  11
ENDBRANCH   7   8
ENDBRANCH   1   7
BRANCH   6  13
ATOM     13  N   LIG d   1     -10.921  75.420 119.191  0.00  0.00    -0.311 N 
ATOM     14  C   LIG d   1     -12.250  75.504 119.155  0.00  0.00     0.210 C 
ATOM     15  C   LIG d   1     -12.961  75.062 120.437  0.00  0.00     0.109 C 
ATOM     16  O   LIG d   1     -12.909  75.872 118.171  0.00  0.00    -0.276 OA
ATOM     17  H   LIG d   1     -10.471  75.080 120.018  0.00  0.00     0.149 HD
ENDBRANCH   6  13
BRANCH   5  18
ATOM     18  N   LIG d   1      -9.676  73.482 117.184  0.00  0.00     0.381 N 
ATOM     19  H   LIG d   1     -10.379  73.183 117.830  0.00  0.00    -0.090 HD
ATOM     20  H   LIG d   1      -8.984  72.758 117.114  0.00  0.00    -0.090 HD
ATOM     21  H   LIG d   1     -10.085  73.648 116.291  0.00  0.00    -0.090 HD
ENDBRANCH   5  18
BRANCH   3  22
ATOM     22  C   LIG d   1      -6.292  76.764 116.337  0.00  0.00     0.382 C 
ATOM     23  O   LIG d   1      -6.159  76.907 115.098  0.00  0.00    -0.241 OA
ATOM     24  O   LIG d   1      -5.291  76.838 117.074  0.00  0.00    -0.241 OA
ENDBRANCH   3  22
TORSDOF 7
ENDMDL
MODEL 3
REMARK VINA RESULT:      -5.5     15.669     18.098
REMARK  7 active torsions:
REMARK  status: ('A' for Active; 'I' for Inactive)
REMARK    1  A    between atoms: C_2  and  C_3 
REMARK    2  A    between atoms: C_3  and  O_6 
REMARK    3  A    between atoms: C_3  and  C_4 
REMARK    4  A    between atoms: C_7  and  O_6 
REMARK    5  A    between atoms: C_9  and  C_10 
REMARK    6  A    between atoms: N_15  and  C_14 
REMARK    7  A    between atoms: N_20  and  C_19 
REMARK       I    between atoms: C_22  and  N_20 
ROOT
ATOM      1  C   LIG d   1      -4.761  92.564 117.750  0.00  0.00     0.161 C 
ATOM      2  C   LIG d   1      -4.890  91.558 116.778  0.00  0.00     0.016 C 
ATOM      3  C   LIG d   1      -6.059  91.369 116.004  0.00  0.00     0.038 C 
ATOM      4  C   LIG d   1      -7.129  92.275 116.044  0.00  0.00     0.028 C 
ATOM      5  C   LIG d   1      -7.249  93.013 117.373  0.00  0.00    -0.047 C 
ATOM      6  C   LIG d   1      -5.877  93.630 117.729  0.00  0.00     0.091 C 
ENDROOT
BRANCH   1   7
ATOM      7  O   LIG d   1      -3.468  93.190 117.636  0.00  0.00    -0.368 OA
BRANCH   7   8
ATOM      8  C   LIG d   1      -2.597  93.066 118.787  0.00  0.00     0.119 C 
BRANCH   8   9
ATOM      9  C   LIG d   1      -1.423  94.045 118.587  0.00  0.00     0.028 C 
ATOM     10  C   LIG d   1      -0.532  93.656 117.395  0.00  0.00     0.006 C 
ENDBRANCH   8   9
BRANCH   8  11
ATOM     11  C   LIG d   1      -1.958  91.676 118.855  0.00  0.00     0.028 C 
ATOM     12  C   LIG d   1      -2.397  90.879 120.094  0.00  0.00     0.006 C 
ENDBRANCH   8  11
ENDBRANCH   7   8
ENDBRANCH   1   7
BRANCH   6  13
ATOM     13  N   LIG d   1      -5.884  94.300 119.056  0.00  0.00    -0.311 N 
ATOM     14  C   LIG d   1      -6.162  95.591 119.224  0.00  0.00     0.210 C 
ATOM     15  C   LIG d   1      -6.094  96.084 120.673  0.00  0.00     0.109 C 
ATOM     16  O   LIG d   1      -6.491  96.368 118.315  0.00  0.00    -0.276 OA
ATOM     17  H   LIG d   1      -5.659  93.736 119.852  0.00  0.00     0.149 HD
ENDBRANCH   6  13
BRANCH   5  18
ATOM     18  N   LIG d   1      -8.316  94.021 117.229  0.00  0.00     0.381 N 
ATOM     19  H   LIG d   1      -8.935  93.755 116.489  0.00  0.00    -0.090 HD
ATOM     20  H   LIG d   1      -7.900  94.903 116.989  0.00  0.00    -0.090 HD
ATOM     21  H   LIG d   1      -8.823  94.105 118.082  0.00  0.00    -0.090 HD
ENDBRANCH   5  18
BRANCH   3  22
ATOM     22  C   LIG d   1      -6.180  90.241 115.207  0.00  0.00     0.382 C 
ATOM     23  O   LIG d   1      -7.269  89.990 114.638  0.00  0.00    -0.241 OA
ATOM     24  O   LIG d   1      -5.227  89.447 115.087  0.00  0.00    -0.241 OA
ENDBRANCH   3  22
TORSDOF 7
ENDMDL
MODEL 4
REMARK VINA RESULT:      -5.4     15.226     17.683
REMARK  7 active torsions:
REMARK  status: ('A' for Active; 'I' for Inactive)
REMARK    1  A    between atoms: C_2  and  C_3 
REMARK    2  A    between atoms: C_3  and  O_6 
REMARK    3  A    between atoms: C_3  and  C_4 
REMARK    4  A    between atoms: C_7  and  O_6 
REMARK    5  A    between atoms: C_9  and  C_10 
REMARK    6  A    between atoms: N_15  and  C_14 
REMARK    7  A    between atoms: N_20  and  C_19 
REMARK       I    between atoms: C_22  and  N_20 
ROOT
ATOM      1  C   LIG d   1      -4.255  91.943 117.847  0.00  0.00     0.161 C 
ATOM      2  C   LIG d   1      -4.807  91.145 116.831  0.00  0.00     0.016 C 
ATOM      3  C   LIG d   1      -5.928  91.531 116.060  0.00  0.00     0.038 C 
ATOM      4  C   LIG d   1      -6.484  92.816 116.153  0.00  0.00     0.028 C 
ATOM      5  C   LIG d   1      -6.279  93.468 117.516  0.00  0.00    -0.047 C 
ATOM      6  C   LIG d   1      -4.780  93.394 117.887  0.00  0.00     0.091 C 
ENDROOT
BRANCH   1   7
ATOM      7  O   LIG d   1      -2.817  91.933 117.750  0.00  0.00    -0.368 OA
BRANCH   7   8
ATOM      8  C   LIG d   1      -2.118  91.132 118.734  0.00  0.00     0.119 C 
BRANCH   8   9
ATOM      9  C   LIG d   1      -0.975  91.994 119.305  0.00  0.00     0.028 C 
ATOM     10  C   LIG d   1      -0.207  92.750 118.208  0.00  0.00     0.006 C 
ENDBRANCH   8   9
BRANCH   8  11
ATOM     11  C   LIG d   1      -1.432  89.926 118.085  0.00  0.00     0.028 C 
ATOM     12  C   LIG d   1      -2.306  88.662 118.103  0.00  0.00     0.006 C 
ENDBRANCH   8  11
ENDBRANCH   7   8
ENDBRANCH   1   7
BRANCH   6  13
ATOM     13  N   LIG d   1      -4.504  93.935 119.244  0.00  0.00    -0.311 N 
ATOM     14  C   LIG d   1      -3.495  94.761 119.512  0.00  0.00     0.210 C 
ATOM     15  C   LIG d   1      -3.378  95.183 120.980  0.00  0.00     0.109 C 
ATOM     16  O   LIG d   1      -2.705  95.210 118.668  0.00  0.00    -0.276 OA
ATOM     17  H   LIG d   1      -5.115  93.647 119.982  0.00  0.00     0.149 HD
ENDBRANCH   6  13
BRANCH   5  18
ATOM     18  N   LIG d   1      -6.785  94.851 117.429  0.00  0.00     0.381 N 
ATOM     19  H   LIG d   1      -7.023  95.182 118.342  0.00  0.00    -0.090 HD
ATOM     20  H   LIG d   1      -7.615  94.858 116.864  0.00  0.00    -0.090 HD
ATOM     21  H   LIG d   1      -6.093  95.442 117.023  0.00  0.00    -0.090 HD
ENDBRANCH   5  18
BRANCH   3  22
ATOM     22  C   LIG d   1      -6.529  90.613 115.213  0.00  0.00     0.382 C 
ATOM     23  O   LIG d   1      -7.659  90.856 114.725  0.00  0.00    -0.241 OA
ATOM     24  O   LIG d   1      -5.975  89.525 114.966  0.00  0.00    -0.241 OA
ENDBRANCH   3  22
TORSDOF 7
ENDMDL
MODEL 5
REMARK VINA RESULT:      -5.4      2.250      4.813
REMARK  7 active torsions:
REMARK  status: ('A' for Active; 'I' for Inactive)
REMARK    1  A    between atoms: C_2  and  C_3 
REMARK    2  A    between atoms: C_3  and  O_6 
REMARK    3  A    between atoms: C_3  and  C_4 
REMARK    4  A    between atoms: C_7  and  O_6 
REMARK    5  A    between atoms: C_9  and  C_10 
REMARK    6  A    between atoms: N_15  and  C_14 
REMARK    7  A    between atoms: N_20  and  C_19 
REMARK       I    between atoms: C_22  and  N_20 
ROOT
ATOM      1  C   LIG d   1      -8.615  75.659 118.973  0.00  0.00     0.161 C 
ATOM      2  C   LIG d   1      -8.380  74.399 118.399  0.00  0.00     0.016 C 
ATOM      3  C   LIG d   1      -9.377  73.647 117.736  0.00  0.00     0.038 C 
ATOM      4  C   LIG d   1     -10.649  74.175 117.470  0.00  0.00     0.028 C 
ATOM      5  C   LIG d   1     -11.085  75.239 118.472  0.00  0.00    -0.047 C 
ATOM      6  C   LIG d   1      -9.968  76.300 118.596  0.00  0.00     0.091 C 
ENDROOT
BRANCH   1   7
ATOM      7  O   LIG d   1      -7.531  76.553 118.653  0.00  0.00    -0.368 OA
BRANCH   7   8
ATOM      8  C   LIG d   1      -7.574  77.162 117.339  0.00  0.00     0.119 C 
BRANCH   8   9
ATOM      9  C   LIG d   1      -6.533  76.440 116.460  0.00  0.00     0.028 C 
ATOM     10  C   LIG d   1      -7.054  76.166 115.039  0.00  0.00     0.006 C 
ENDBRANCH   8   9
BRANCH   8  11
ATOM     11  C   LIG d   1      -7.121  78.624 117.387  0.00  0.00     0.028 C 
ATOM     12  C   LIG d   1      -5.595  78.771 117.497  0.00  0.00     0.006 C 
ENDBRANCH   8  11
ENDBRANCH   7   8
ENDBRANCH   1   7
BRANCH   6  13
ATOM     13  N   LIG d   1     -10.277  77.333 119.619  0.00  0.00    -0.311 N 
ATOM     14  C   LIG d   1     -10.363  78.633 119.344  0.00  0.00     0.210 C 
ATOM     15  C   LIG d   1     -10.672  79.529 120.548  0.00  0.00     0.109 C 
ATOM     16  O   LIG d   1     -10.244  79.127 118.213  0.00  0.00    -0.276 OA
ATOM     17  H   LIG d   1     -10.419  77.016 120.558  0.00  0.00     0.149 HD
ENDBRANCH   6  13
BRANCH   5  18
ATOM     18  N   LIG d   1     -12.365  75.801 117.997  0.00  0.00     0.381 N 
ATOM     19  H   LIG d   1     -12.239  76.215 117.095  0.00  0.00    -0.090 HD
ATOM     20  H   LIG d   1     -12.661  76.518 118.635  0.00  0.00    -0.090 HD
ATOM     21  H   LIG d   1     -13.054  75.083 117.948  0.00  0.00    -0.090 HD
ENDBRANCH   5  18
BRANCH   3  22
ATOM     22  C   LIG d   1      -9.118  72.336 117.368  0.00  0.00     0.382 C 
ATOM     23  O   LIG d   1      -8.243  71.675 117.977  0.00  0.00    -0.241 OA
ATOM     24  O   LIG d   1      -9.717  71.820 116.405  0.00  0.00    -0.241 OA
ENDBRANCH   3  22
TORSDOF 7
ENDMDL
MODEL 6
REMARK VINA RESULT:      -5.3     16.473     18.798
REMARK  7 active torsions:
REMARK  status: ('A' for Active; 'I' for Inactive)
REMARK    1  A    between atoms: C_2  and  C_3 
REMARK    2  A    between atoms: C_3  and  O_6 
REMARK    3  A    between atoms: C_3  and  C_4 
REMARK    4  A    between atoms: C_7  and  O_6 
REMARK    5  A    between atoms: C_9  and  C_10 
REMARK    6  A    between atoms: N_15  and  C_14 
REMARK    7  A    between atoms: N_20  and  C_19 
REMARK       I    between atoms: C_22  and  N_20 
ROOT
ATOM      1  C   LIG d   1      -6.429  93.854 117.720  0.00  0.00     0.161 C 
ATOM      2  C   LIG d   1      -7.134  92.870 117.007  0.00  0.00     0.016 C 
ATOM      3  C   LIG d   1      -6.546  91.665 116.557  0.00  0.00     0.038 C 
ATOM      4  C   LIG d   1      -5.245  91.292 116.924  0.00  0.00     0.028 C 
ATOM      5  C   LIG d   1      -4.334  92.480 117.216  0.00  0.00    -0.047 C 
ATOM      6  C   LIG d   1      -5.039  93.416 118.225  0.00  0.00     0.091 C 
ENDROOT
BRANCH   1   7
ATOM      7  O   LIG d   1      -7.233  94.332 118.817  0.00  0.00    -0.368 OA
BRANCH   7   8
ATOM      8  C   LIG d   1      -8.105  95.452 118.527  0.00  0.00     0.119 C 
BRANCH   8   9
ATOM      9  C   LIG d   1      -7.233  96.578 117.939  0.00  0.00     0.028 C 
ATOM     10  C   LIG d   1      -6.764  97.578 119.010  0.00  0.00     0.006 C 
ENDBRANCH   8   9
BRANCH   8  11
ATOM     11  C   LIG d   1      -8.709  96.034 119.809  0.00  0.00     0.028 C 
ATOM     12  C   LIG d   1      -9.698  95.076 120.490  0.00  0.00     0.006 C 
ENDBRANCH   8  11
ENDBRANCH   7   8
ENDBRANCH   1   7
BRANCH   6  13
ATOM     13  N   LIG d   1      -4.252  94.646 118.502  0.00  0.00    -0.311 N 
ATOM     14  C   LIG d   1      -3.969  95.075 119.731  0.00  0.00     0.210 C 
ATOM     15  C   LIG d   1      -3.164  96.376 119.792  0.00  0.00     0.109 C 
ATOM     16  O   LIG d   1      -4.281  94.483 120.775  0.00  0.00    -0.276 OA
ATOM     17  H   LIG d   1      -3.933  95.171 117.711  0.00  0.00     0.149 HD
ENDBRANCH   6  13
BRANCH   5  18
ATOM     18  N   LIG d   1      -3.054  91.948 117.718  0.00  0.00     0.381 N 
ATOM     19  H   LIG d   1      -3.223  91.311 118.471  0.00  0.00    -0.090 HD
ATOM     20  H   LIG d   1      -2.500  92.709 118.068  0.00  0.00    -0.090 HD
ATOM     21  H   LIG d   1      -2.566  91.483 116.984  0.00  0.00    -0.090 HD
ENDBRANCH   5  18
BRANCH   3  22
ATOM     22  C   LIG d   1      -7.251  90.836 115.698  0.00  0.00     0.382 C 
ATOM     23  O   LIG d   1      -7.453  89.637 116.008  0.00  0.00    -0.241 OA
ATOM     24  O   LIG d   1      -7.649  91.260 114.596  0.00  0.00    -0.241 OA
ENDBRANCH   3  22
TORSDOF 7
ENDMDL
MODEL 7
REMARK VINA RESULT:      -5.1     15.873     18.053
REMARK  7 active torsions:
REMARK  status: ('A' for Active; 'I' for Inactive)
REMARK    1  A    between atoms: C_2  and  C_3 
REMARK    2  A    between atoms: C_3  and  O_6 
REMARK    3  A    between atoms: C_3  and  C_4 
REMARK    4  A    between atoms: C_7  and  O_6 
REMARK    5  A    between atoms: C_9  and  C_10 
REMARK    6  A    between atoms: N_15  and  C_14 
REMARK    7  A    between atoms: N_20  and  C_19 
REMARK       I    between atoms: C_22  and  N_20 
ROOT
ATOM      1  C   LIG d   1      -5.249  92.164 118.826  0.00  0.00     0.161 C 
ATOM      2  C   LIG d   1      -5.583  91.364 117.721  0.00  0.00     0.016 C 
ATOM      3  C   LIG d   1      -6.302  91.843 116.602  0.00  0.00     0.038 C 
ATOM      4  C   LIG d   1      -6.608  93.203 116.444  0.00  0.00     0.028 C 
ATOM      5  C   LIG d   1      -6.734  93.953 117.766  0.00  0.00    -0.047 C 
ATOM      6  C   LIG d   1      -5.477  93.677 118.622  0.00  0.00     0.091 C 
ENDROOT
BRANCH   1   7
ATOM      7  O   LIG d   1      -3.885  91.911 119.219  0.00  0.00    -0.368 OA
BRANCH   7   8
ATOM      8  C   LIG d   1      -2.876  92.155 118.208  0.00  0.00     0.119 C 
BRANCH   8   9
ATOM      9  C   LIG d   1      -2.083  90.847 118.021  0.00  0.00     0.028 C 
ATOM     10  C   LIG d   1      -2.341  89.837 119.151  0.00  0.00     0.006 C 
ENDBRANCH   8   9
BRANCH   8  11
ATOM     11  C   LIG d   1      -1.849  93.187 118.685  0.00  0.00     0.028 C 
ATOM     12  C   LIG d   1      -0.939  93.689 117.552  0.00  0.00     0.006 C 
ENDBRANCH   8  11
ENDBRANCH   7   8
ENDBRANCH   1   7
BRANCH   6  13
ATOM     13  N   LIG d   1      -5.557  94.305 119.967  0.00  0.00    -0.311 N 
ATOM     14  C   LIG d   1      -4.777  95.313 120.352  0.00  0.00     0.210 C 
ATOM     15  C   LIG d   1      -5.011  95.800 121.786  0.00  0.00     0.109 C 
ATOM     16  O   LIG d   1      -3.937  95.873 119.632  0.00  0.00    -0.276 OA
ATOM     17  H   LIG d   1      -6.234  93.933 120.604  0.00  0.00     0.149 HD
ENDBRANCH   6  13
BRANCH   5  18
ATOM     18  N   LIG d   1      -6.917  95.383 117.452  0.00  0.00     0.381 N 
ATOM     19  H   LIG d   1      -6.815  95.928 118.285  0.00  0.00    -0.090 HD
ATOM     20  H   LIG d   1      -7.846  95.521 117.095  0.00  0.00    -0.090 HD
ATOM     21  H   LIG d   1      -6.246  95.671 116.774  0.00  0.00    -0.090 HD
ENDBRANCH   5  18
BRANCH   3  22
ATOM     22  C   LIG d   1      -6.759  90.950 115.645  0.00  0.00     0.382 C 
ATOM     23  O   LIG d   1      -6.195  89.838 115.505  0.00  0.00    -0.241 OA
ATOM     24  O   LIG d   1      -7.698  91.261 114.888  0.00  0.00    -0.241 OA
ENDBRANCH   3  22
TORSDOF 7
ENDMDL
MODEL 8
REMARK VINA RESULT:      -5.1      2.484      6.106
REMARK  7 active torsions:
REMARK  status: ('A' for Active; 'I' for Inactive)
REMARK    1  A    between atoms: C_2  and  C_3 
REMARK    2  A    between atoms: C_3  and  O_6 
REMARK    3  A    between atoms: C_3  and  C_4 
REMARK    4  A    between atoms: C_7  and  O_6 
REMARK    5  A    between atoms: C_9  and  C_10 
REMARK    6  A    between atoms: N_15  and  C_14 
REMARK    7  A    between atoms: N_20  and  C_19 
REMARK       I    between atoms: C_22  and  N_20 
ROOT
ATOM      1  C   LIG d   1     -10.293  76.639 118.261  0.00  0.00     0.161 C 
ATOM      2  C   LIG d   1     -11.422  76.300 119.024  0.00  0.00     0.016 C 
ATOM      3  C   LIG d   1     -11.986  75.003 119.046  0.00  0.00     0.038 C 
ATOM      4  C   LIG d   1     -11.364  73.914 118.418  0.00  0.00     0.028 C 
ATOM      5  C   LIG d   1     -10.503  74.313 117.224  0.00  0.00    -0.047 C 
ATOM      6  C   LIG d   1      -9.535  75.438 117.657  0.00  0.00     0.091 C 
ENDROOT
BRANCH   1   7
ATOM      7  O   LIG d   1      -9.399  77.452 119.046  0.00  0.00    -0.368 OA
BRANCH   7   8
ATOM      8  C   LIG d   1      -8.185  76.807 119.502  0.00  0.00     0.119 C 
BRANCH   8   9
ATOM      9  C   LIG d   1      -8.351  76.517 121.007  0.00  0.00     0.028 C 
ATOM     10  C   LIG d   1      -8.576  75.023 121.295  0.00  0.00     0.006 C 
ENDBRANCH   8   9
BRANCH   8  11
ATOM     11  C   LIG d   1      -6.981  77.748 119.401  0.00  0.00     0.028 C 
ATOM     12  C   LIG d   1      -6.988  78.588 118.114  0.00  0.00     0.006 C 
ENDBRANCH   8  11
ENDBRANCH   7   8
ENDBRANCH   1   7
BRANCH   6  13
ATOM     13  N   LIG d   1      -8.714  75.946 116.527  0.00  0.00    -0.311 N 
ATOM     14  C   LIG d   1      -7.560  75.396 116.155  0.00  0.00     0.210 C 
ATOM     15  C   LIG d   1      -6.864  76.088 114.978  0.00  0.00     0.109 C 
ATOM     16  O   LIG d   1      -7.062  74.382 116.666  0.00  0.00    -0.276 OA
ATOM     17  H   LIG d   1      -9.060  76.748 116.037  0.00  0.00     0.149 HD
ENDBRANCH   6  13
BRANCH   5  18
ATOM     18  N   LIG d   1      -9.806  73.102 116.752  0.00  0.00     0.381 N 
ATOM     19  H   LIG d   1      -9.192  73.337 115.998  0.00  0.00    -0.090 HD
ATOM     20  H   LIG d   1     -10.488  72.447 116.411  0.00  0.00    -0.090 HD
ATOM     21  H   LIG d   1      -9.287  72.694 117.498  0.00  0.00    -0.090 HD
ENDBRANCH   5  18
BRANCH   3  22
ATOM     22  C   LIG d   1     -13.207  74.795 119.668  0.00  0.00     0.382 C 
ATOM     23  O   LIG d   1     -14.164  75.577 119.450  0.00  0.00    -0.241 OA
ATOM     24  O   LIG d   1     -13.352  73.861 120.479  0.00  0.00    -0.241 OA
ENDBRANCH   3  22
TORSDOF 7
ENDMDL
MODEL 9
REMARK VINA RESULT:      -5.0      2.524      3.655
REMARK  7 active torsions:
REMARK  status: ('A' for Active; 'I' for Inactive)
REMARK    1  A    between atoms: C_2  and  C_3 
REMARK    2  A    between atoms: C_3  and  O_6 
REMARK    3  A    between atoms: C_3  and  C_4 
REMARK    4  A    between atoms: C_7  and  O_6 
REMARK    5  A    between atoms: C_9  and  C_10 
REMARK    6  A    between atoms: N_15  and  C_14 
REMARK    7  A    between atoms: N_20  and  C_19 
REMARK       I    between atoms: C_22  and  N_20 
ROOT
ATOM      1  C   LIG d   1     -10.416  77.741 119.143  0.00  0.00     0.161 C 
ATOM      2  C   LIG d   1      -9.461  78.212 118.227  0.00  0.00     0.016 C 
ATOM      3  C   LIG d   1      -8.114  78.470 118.570  0.00  0.00     0.038 C 
ATOM      4  C   LIG d   1      -7.591  78.130 119.826  0.00  0.00     0.028 C 
ATOM      5  C   LIG d   1      -8.636  78.124 120.936  0.00  0.00    -0.047 C 
ATOM      6  C   LIG d   1      -9.837  77.259 120.490  0.00  0.00     0.091 C 
ENDROOT
BRANCH   1   7
ATOM      7  O   LIG d   1     -11.205  76.700 118.535  0.00  0.00    -0.368 OA
BRANCH   7   8
ATOM      8  C   LIG d   1     -10.679  75.354 118.646  0.00  0.00     0.119 C 
BRANCH   8   9
ATOM      9  C   LIG d   1     -10.285  74.893 117.230  0.00  0.00     0.028 C 
ATOM     10  C   LIG d   1      -8.762  74.762 117.058  0.00  0.00     0.006 C 
ENDBRANCH   8   9
BRANCH   8  11
ATOM     11  C   LIG d   1     -11.758  74.370 119.108  0.00  0.00     0.028 C 
ATOM     12  C   LIG d   1     -13.063  75.069 119.522  0.00  0.00     0.006 C 
ENDBRANCH   8  11
ENDBRANCH   7   8
ENDBRANCH   1   7
BRANCH   6  13
ATOM     13  N   LIG d   1     -10.943  77.268 121.483  0.00  0.00    -0.311 N 
ATOM     14  C   LIG d   1     -11.056  76.371 122.462  0.00  0.00     0.210 C 
ATOM     15  C   LIG d   1     -12.281  76.550 123.364  0.00  0.00     0.109 C 
ATOM     16  O   LIG d   1     -10.241  75.464 122.688  0.00  0.00    -0.276 OA
ATOM     17  H   LIG d   1     -11.632  77.988 121.393  0.00  0.00     0.149 HD
ENDBRANCH   6  13
BRANCH   5  18
ATOM     18  N   LIG d   1      -7.984  77.620 122.160  0.00  0.00     0.381 N 
ATOM     19  H   LIG d   1      -7.188  77.066 121.916  0.00  0.00    -0.090 HD
ATOM     20  H   LIG d   1      -8.634  77.036 122.657  0.00  0.00    -0.090 HD
ATOM     21  H   LIG d   1      -7.704  78.383 122.736  0.00  0.00    -0.090 HD
ENDBRANCH   5  18
BRANCH   3  22
ATOM     22  C   LIG d   1      -7.285  79.113 117.663  0.00  0.00     0.382 C 
ATOM     23  O   LIG d   1      -6.480  78.447 116.968  0.00  0.00    -0.241 OA
ATOM     24  O   LIG d   1      -7.300  80.355 117.563  0.00  0.00    -0.241 OA
ENDBRANCH   3  22
TORSDOF 7
ENDMDL
