MODEL 1
REMARK VINA RESULT:      -5.5      0.000      0.000
REMARK  7 active torsions:
REMARK  status: ('A' for Active; 'I' for Inactive)
REMARK    1  A    between atoms: C_2  and  C_3 
REMARK    2  A    between atoms: C_3  and  O_6 
REMARK    3  A    between atoms: C_3  and  C_4 
REMARK    4  A    between atoms: C_7  and  O_6 
REMARK    5  A    between atoms: C_9  and  C_10 
REMARK    6  A    between atoms: N_15  and  C_14 
REMARK    7  A    between atoms: N_20  and  C_19 
REMARK       I    between atoms: C_22  and  N_20 
ROOT
ATOM      1  C   LIG d   1      -6.067  78.142 117.458  0.00  0.00     0.161 C 
ATOM      2  C   LIG d   1      -5.099  77.660 116.561  0.00  0.00     0.016 C 
ATOM      3  C   LIG d   1      -5.364  76.668 115.589  0.00  0.00     0.038 C 
ATOM      4  C   LIG d   1      -6.662  76.196 115.347  0.00  0.00     0.028 C 
ATOM      5  C   LIG d   1      -7.576  76.284 116.564  0.00  0.00    -0.047 C 
ATOM      6  C   LIG d   1      -7.515  77.719 117.135  0.00  0.00     0.091 C 
ENDROOT
BRANCH   1   7
ATOM      7  O   LIG d   1      -5.973  79.577 117.553  0.00  0.00    -0.368 OA
BRANCH   7   8
ATOM      8  C   LIG d   1      -5.244  80.094 118.693  0.00  0.00     0.119 C 
BRANCH   8   9
ATOM      9  C   LIG d   1      -5.288  79.019 119.797  0.00  0.00     0.028 C 
ATOM     10  C   LIG d   1      -3.910  78.778 120.436  0.00  0.00     0.006 C 
ENDBRANCH   8   9
BRANCH   8  11
ATOM     11  C   LIG d   1      -5.941  81.319 119.292  0.00  0.00     0.028 C 
ATOM     12  C   LIG d   1      -7.126  81.805 118.442  0.00  0.00     0.006 C 
ENDBRANCH   8  11
ENDBRANCH   7   8
ENDBRANCH   1   7
BRANCH   6  13
ATOM     13  N   LIG d   1      -8.316  77.869 118.378  0.00  0.00    -0.311 N 
ATOM     14  C   LIG d   1      -9.311  78.745 118.507  0.00  0.00     0.210 C 
ATOM     15  C   LIG d   1      -9.993  78.750 119.879  0.00  0.00     0.109 C 
ATOM     16  O   LIG d   1      -9.715  79.495 117.606  0.00  0.00    -0.276 OA
ATOM     17  H   LIG d   1      -8.076  77.278 119.149  0.00  0.00     0.149 HD
ENDBRANCH   6  13
BRANCH   5  18
ATOM     18  N   LIG d   1      -8.931  75.889 116.134  0.00  0.00     0.381 N 
ATOM     19  H   LIG d   1      -9.516  75.758 116.935  0.00  0.00    -0.090 HD
ATOM     20  H   LIG d   1      -8.873  75.017 115.639  0.00  0.00    -0.090 HD
ATOM     21  H   LIG d   1      -9.318  76.591 115.542  0.00  0.00    -0.090 HD
ENDBRANCH   5  18
BRANCH   3  22
ATOM     22  C   LIG d   1      -4.315  76.109 114.875  0.00  0.00     0.382 C 
ATOM     23  O   LIG d   1      -3.902  76.665 113.829  0.00  0.00    -0.241 OA
ATOM     24  O   LIG d   1      -3.806  75.032 115.239  0.00  0.00    -0.241 OA
ENDBRANCH   3  22
TORSDOF 7
ENDMDL
MODEL 2
REMARK VINA RESULT:      -5.3     12.302     14.178
REMARK  7 active torsions:
REMARK  status: ('A' for Active; 'I' for Inactive)
REMARK    1  A    between atoms: C_2  and  C_3 
REMARK    2  A    between atoms: C_3  and  O_6 
REMARK    3  A    between atoms: C_3  and  C_4 
REMARK    4  A    between atoms: C_7  and  O_6 
REMARK    5  A    between atoms: C_9  and  C_10 
REMARK    6  A    between atoms: N_15  and  C_14 
REMARK    7  A    between atoms: N_20  and  C_19 
REMARK       I    between atoms: C_22  and  N_20 
ROOT
ATOM      1  C   LIG d   1      -3.822  92.044 117.567  0.00  0.00     0.161 C 
ATOM      2  C   LIG d   1      -4.919  92.160 116.697  0.00  0.00     0.016 C 
ATOM      3  C   LIG d   1      -5.325  91.132 115.816  0.00  0.00     0.038 C 
ATOM      4  C   LIG d   1      -4.748  89.853 115.852  0.00  0.00     0.028 C 
ATOM      5  C   LIG d   1      -3.310  89.852 116.359  0.00  0.00    -0.047 C 
ATOM      6  C   LIG d   1      -3.250  90.618 117.700  0.00  0.00     0.091 C 
ENDROOT
BRANCH   1   7
ATOM      7  O   LIG d   1      -4.169  92.568 118.864  0.00  0.00    -0.368 OA
BRANCH   7   8
ATOM      8  C   LIG d   1      -5.506  93.111 118.995  0.00  0.00     0.119 C 
BRANCH   8   9
ATOM      9  C   LIG d   1      -5.367  94.614 119.307  0.00  0.00     0.028 C 
ATOM     10  C   LIG d   1      -6.458  95.458 118.628  0.00  0.00     0.006 C 
ENDBRANCH   8   9
BRANCH   8  11
ATOM     11  C   LIG d   1      -6.235  92.512 120.202  0.00  0.00     0.028 C 
ATOM     12  C   LIG d   1      -5.401  91.449 120.934  0.00  0.00     0.006 C 
ENDBRANCH   8  11
ENDBRANCH   7   8
ENDBRANCH   1   7
BRANCH   6  13
ATOM     13  N   LIG d   1      -1.864  90.736 118.224  0.00  0.00    -0.311 N 
ATOM     14  C   LIG d   1      -1.332  89.877 119.092  0.00  0.00     0.210 C 
ATOM     15  C   LIG d   1       0.105  90.194 119.518  0.00  0.00     0.109 C 
ATOM     16  O   LIG d   1      -1.903  88.865 119.525  0.00  0.00    -0.276 OA
ATOM     17  H   LIG d   1      -1.319  91.511 117.900  0.00  0.00     0.149 HD
ENDBRANCH   6  13
BRANCH   5  18
ATOM     18  N   LIG d   1      -2.881  88.445 116.476  0.00  0.00     0.381 N 
ATOM     19  H   LIG d   1      -1.966  88.337 116.085  0.00  0.00    -0.090 HD
ATOM     20  H   LIG d   1      -3.517  87.867 115.957  0.00  0.00    -0.090 HD
ATOM     21  H   LIG d   1      -2.875  88.169 117.434  0.00  0.00    -0.090 HD
ENDBRANCH   5  18
BRANCH   3  22
ATOM     22  C   LIG d   1      -6.292  91.391 114.856  0.00  0.00     0.382 C 
ATOM     23  O   LIG d   1      -6.368  92.530 114.335  0.00  0.00    -0.241 OA
ATOM     24  O   LIG d   1      -7.117  90.514 114.538  0.00  0.00    -0.241 OA
ENDBRANCH   3  22
TORSDOF 7
ENDMDL
MODEL 3
REMARK VINA RESULT:      -5.0     11.249     13.646
REMARK  7 active torsions:
REMARK  status: ('A' for Active; 'I' for Inactive)
REMARK    1  A    between atoms: C_2  and  C_3 
REMARK    2  A    between atoms: C_3  and  O_6 
REMARK    3  A    between atoms: C_3  and  C_4 
REMARK    4  A    between atoms: C_7  and  O_6 
REMARK    5  A    between atoms: C_9  and  C_10 
REMARK    6  A    between atoms: N_15  and  C_14 
REMARK    7  A    between atoms: N_20  and  C_19 
REMARK       I    between atoms: C_22  and  N_20 
ROOT
ATOM      1  C   LIG d   1      -3.375  89.975 117.343  0.00  0.00     0.161 C 
ATOM      2  C   LIG d   1      -4.382  89.838 116.374  0.00  0.00     0.016 C 
ATOM      3  C   LIG d   1      -5.264  90.883 116.016  0.00  0.00     0.038 C 
ATOM      4  C   LIG d   1      -5.100  92.190 116.498  0.00  0.00     0.028 C 
ATOM      5  C   LIG d   1      -4.413  92.252 117.858  0.00  0.00    -0.047 C 
ATOM      6  C   LIG d   1      -3.109  91.425 117.799  0.00  0.00     0.091 C 
ENDROOT
BRANCH   1   7
ATOM      7  O   LIG d   1      -2.157  89.366 116.871  0.00  0.00    -0.368 OA
BRANCH   7   8
ATOM      8  C   LIG d   1      -1.907  88.010 117.316  0.00  0.00     0.119 C 
BRANCH   8   9
ATOM      9  C   LIG d   1      -2.262  87.942 118.814  0.00  0.00     0.028 C 
ATOM     10  C   LIG d   1      -1.787  86.636 119.471  0.00  0.00     0.006 C 
ENDBRANCH   8   9
BRANCH   8  11
ATOM     11  C   LIG d   1      -0.418  87.663 117.237  0.00  0.00     0.028 C 
ATOM     12  C   LIG d   1       0.472  88.898 117.025  0.00  0.00     0.006 C 
ENDBRANCH   8  11
ENDBRANCH   7   8
ENDBRANCH   1   7
BRANCH   6  13
ATOM     13  N   LIG d   1      -2.417  91.363 119.113  0.00  0.00    -0.311 N 
ATOM     14  C   LIG d   1      -1.135  91.681 119.283  0.00  0.00     0.210 C 
ATOM     15  C   LIG d   1      -0.614  91.528 120.715  0.00  0.00     0.109 C 
ATOM     16  O   LIG d   1      -0.387  92.105 118.389  0.00  0.00    -0.276 OA
ATOM     17  H   LIG d   1      -2.957  91.059 119.899  0.00  0.00     0.149 HD
ENDBRANCH   6  13
BRANCH   5  18
ATOM     18  N   LIG d   1      -4.182  93.674 118.176  0.00  0.00     0.381 N 
ATOM     19  H   LIG d   1      -4.278  94.227 117.348  0.00  0.00    -0.090 HD
ATOM     20  H   LIG d   1      -3.243  93.782 118.520  0.00  0.00    -0.090 HD
ATOM     21  H   LIG d   1      -4.833  93.979 118.866  0.00  0.00    -0.090 HD
ENDBRANCH   5  18
BRANCH   3  22
ATOM     22  C   LIG d   1      -6.350  90.616 115.196  0.00  0.00     0.382 C 
ATOM     23  O   LIG d   1      -7.058  89.601 115.405  0.00  0.00    -0.241 OA
ATOM     24  O   LIG d   1      -6.604  91.351 114.223  0.00  0.00    -0.241 OA
ENDBRANCH   3  22
TORSDOF 7
ENDMDL
MODEL 4
REMARK VINA RESULT:      -4.9     12.453     14.951
REMARK  7 active torsions:
REMARK  status: ('A' for Active; 'I' for Inactive)
REMARK    1  A    between atoms: C_2  and  C_3 
REMARK    2  A    between atoms: C_3  and  O_6 
REMARK    3  A    between atoms: C_3  and  C_4 
REMARK    4  A    between atoms: C_7  and  O_6 
REMARK    5  A    between atoms: C_9  and  C_10 
REMARK    6  A    between atoms: N_15  and  C_14 
REMARK    7  A    between atoms: N_20  and  C_19 
REMARK       I    between atoms: C_22  and  N_20 
ROOT
ATOM      1  C   LIG d   1      -2.648  91.568 117.962  0.00  0.00     0.161 C 
ATOM      2  C   LIG d   1      -3.227  90.563 117.170  0.00  0.00     0.016 C 
ATOM      3  C   LIG d   1      -4.514  90.670 116.595  0.00  0.00     0.038 C 
ATOM      4  C   LIG d   1      -5.254  91.861 116.650  0.00  0.00     0.028 C 
ATOM      5  C   LIG d   1      -4.926  92.722 117.864  0.00  0.00    -0.047 C 
ATOM      6  C   LIG d   1      -3.394  92.919 117.941  0.00  0.00     0.091 C 
ENDROOT
BRANCH   1   7
ATOM      7  O   LIG d   1      -1.268  91.752 117.588  0.00  0.00    -0.368 OA
BRANCH   7   8
ATOM      8  C   LIG d   1      -0.283  91.187 118.487  0.00  0.00     0.119 C 
BRANCH   8   9
ATOM      9  C   LIG d   1      -0.990  90.898 119.825  0.00  0.00     0.028 C 
ATOM     10  C   LIG d   1      -0.397  91.709 120.990  0.00  0.00     0.006 C 
ENDBRANCH   8   9
BRANCH   8  11
ATOM     11  C   LIG d   1       0.815  92.202 118.819  0.00  0.00     0.028 C 
ATOM     12  C   LIG d   1       1.925  92.248 117.757  0.00  0.00     0.006 C 
ENDBRANCH   8  11
ENDBRANCH   7   8
ENDBRANCH   1   7
BRANCH   6  13
ATOM     13  N   LIG d   1      -2.980  93.680 119.148  0.00  0.00    -0.311 N 
ATOM     14  C   LIG d   1      -2.056  94.640 119.128  0.00  0.00     0.210 C 
ATOM     15  C   LIG d   1      -1.765  95.285 120.487  0.00  0.00     0.109 C 
ATOM     16  O   LIG d   1      -1.474  95.040 118.109  0.00  0.00    -0.276 OA
ATOM     17  H   LIG d   1      -3.425  93.442 120.013  0.00  0.00     0.149 HD
ENDBRANCH   6  13
BRANCH   5  18
ATOM     18  N   LIG d   1      -5.665  93.991 117.724  0.00  0.00     0.381 N 
ATOM     19  H   LIG d   1      -5.787  94.206 116.754  0.00  0.00    -0.090 HD
ATOM     20  H   LIG d   1      -5.128  94.729 118.145  0.00  0.00    -0.090 HD
ATOM     21  H   LIG d   1      -6.553  93.920 118.170  0.00  0.00    -0.090 HD
ENDBRANCH   5  18
BRANCH   3  22
ATOM     22  C   LIG d   1      -5.091  89.563 115.990  0.00  0.00     0.382 C 
ATOM     23  O   LIG d   1      -4.456  88.924 115.117  0.00  0.00    -0.241 OA
ATOM     24  O   LIG d   1      -6.254  89.223 116.275  0.00  0.00    -0.241 OA
ENDBRANCH   3  22
TORSDOF 7
ENDMDL
MODEL 5
REMARK VINA RESULT:      -4.8     15.026     17.334
REMARK  7 active torsions:
REMARK  status: ('A' for Active; 'I' for Inactive)
REMARK    1  A    between atoms: C_2  and  C_3 
REMARK    2  A    between atoms: C_3  and  O_6 
REMARK    3  A    between atoms: C_3  and  C_4 
REMARK    4  A    between atoms: C_7  and  O_6 
REMARK    5  A    between atoms: C_9  and  C_10 
REMARK    6  A    between atoms: N_15  and  C_14 
REMARK    7  A    between atoms: N_20  and  C_19 
REMARK       I    between atoms: C_22  and  N_20 
ROOT
ATOM      1  C   LIG d   1     -17.149  65.378 114.921  0.00  0.00     0.161 C 
ATOM      2  C   LIG d   1     -16.549  66.139 113.904  0.00  0.00     0.016 C 
ATOM      3  C   LIG d   1     -15.653  67.203 114.155  0.00  0.00     0.038 C 
ATOM      4  C   LIG d   1     -15.175  67.482 115.444  0.00  0.00     0.028 C 
ATOM      5  C   LIG d   1     -16.139  67.067 116.550  0.00  0.00    -0.047 C 
ATOM      6  C   LIG d   1     -16.554  65.595 116.328  0.00  0.00     0.091 C 
ENDROOT
BRANCH   1   7
ATOM      7  O   LIG d   1     -17.111  63.980 114.572  0.00  0.00    -0.368 OA
BRANCH   7   8
ATOM      8  C   LIG d   1     -18.269  63.467 113.868  0.00  0.00     0.119 C 
BRANCH   8   9
ATOM      9  C   LIG d   1     -19.501  64.240 114.379  0.00  0.00     0.028 C 
ATOM     10  C   LIG d   1     -20.380  64.768 113.233  0.00  0.00     0.006 C 
ENDBRANCH   8   9
BRANCH   8  11
ATOM     11  C   LIG d   1     -18.534  62.001 114.224  0.00  0.00     0.028 C 
ATOM     12  C   LIG d   1     -18.414  61.723 115.730  0.00  0.00     0.006 C 
ENDBRANCH   8  11
ENDBRANCH   7   8
ENDBRANCH   1   7
BRANCH   6  13
ATOM     13  N   LIG d   1     -17.563  65.135 117.319  0.00  0.00    -0.311 N 
ATOM     14  C   LIG d   1     -17.339  64.153 118.190  0.00  0.00     0.210 C 
ATOM     15  C   LIG d   1     -18.519  63.822 119.109  0.00  0.00     0.109 C 
ATOM     16  O   LIG d   1     -16.264  63.545 118.311  0.00  0.00    -0.276 OA
ATOM     17  H   LIG d   1     -18.452  65.594 117.311  0.00  0.00     0.149 HD
ENDBRANCH   6  13
BRANCH   5  18
ATOM     18  N   LIG d   1     -15.459  67.288 117.841  0.00  0.00     0.381 N 
ATOM     19  H   LIG d   1     -15.600  68.232 118.141  0.00  0.00    -0.090 HD
ATOM     20  H   LIG d   1     -14.473  67.140 117.718  0.00  0.00    -0.090 HD
ATOM     21  H   LIG d   1     -15.814  66.658 118.526  0.00  0.00    -0.090 HD
ENDBRANCH   5  18
BRANCH   3  22
ATOM     22  C   LIG d   1     -15.255  68.027 113.113  0.00  0.00     0.382 C 
ATOM     23  O   LIG d   1     -14.753  69.150 113.358  0.00  0.00    -0.241 OA
ATOM     24  O   LIG d   1     -15.434  67.680 111.930  0.00  0.00    -0.241 OA
ENDBRANCH   3  22
TORSDOF 7
ENDMDL
MODEL 6
REMARK VINA RESULT:      -4.8     14.269     15.778
REMARK  7 active torsions:
REMARK  status: ('A' for Active; 'I' for Inactive)
REMARK    1  A    between atoms: C_2  and  C_3 
REMARK    2  A    between atoms: C_3  and  O_6 
REMARK    3  A    between atoms: C_3  and  C_4 
REMARK    4  A    between atoms: C_7  and  O_6 
REMARK    5  A    between atoms: C_9  and  C_10 
REMARK    6  A    between atoms: N_15  and  C_14 
REMARK    7  A    between atoms: N_20  and  C_19 
REMARK       I    between atoms: C_22  and  N_20 
ROOT
ATOM      1  C   LIG d   1     -16.180  66.494 116.479  0.00  0.00     0.161 C 
ATOM      2  C   LIG d   1     -15.790  67.383 115.463  0.00  0.00     0.016 C 
ATOM      3  C   LIG d   1     -15.898  67.086 114.085  0.00  0.00     0.038 C 
ATOM      4  C   LIG d   1     -16.550  65.933 113.624  0.00  0.00     0.028 C 
ATOM      5  C   LIG d   1     -16.507  64.775 114.616  0.00  0.00    -0.047 C 
ATOM      6  C   LIG d   1     -16.996  65.277 115.994  0.00  0.00     0.091 C 
ENDROOT
BRANCH   1   7
ATOM      7  O   LIG d   1     -16.904  67.207 117.501  0.00  0.00    -0.368 OA
BRANCH   7   8
ATOM      8  C   LIG d   1     -16.114  67.719 118.602  0.00  0.00     0.119 C 
BRANCH   8   9
ATOM      9  C   LIG d   1     -15.113  66.618 119.004  0.00  0.00     0.028 C 
ATOM     10  C   LIG d   1     -15.614  65.774 120.188  0.00  0.00     0.006 C 
ENDBRANCH   8   9
BRANCH   8  11
ATOM     11  C   LIG d   1     -16.978  67.956 119.844  0.00  0.00     0.028 C 
ATOM     12  C   LIG d   1     -17.780  69.264 119.772  0.00  0.00     0.006 C 
ENDBRANCH   8  11
ENDBRANCH   7   8
ENDBRANCH   1   7
BRANCH   6  13
ATOM     13  N   LIG d   1     -16.905  64.228 117.044  0.00  0.00    -0.311 N 
ATOM     14  C   LIG d   1     -17.910  63.923 117.863  0.00  0.00     0.210 C 
ATOM     15  C   LIG d   1     -17.599  62.825 118.885  0.00  0.00     0.109 C 
ATOM     16  O   LIG d   1     -19.039  64.434 117.819  0.00  0.00    -0.276 OA
ATOM     17  H   LIG d   1     -16.034  63.742 117.128  0.00  0.00     0.149 HD
ENDBRANCH   6  13
BRANCH   5  18
ATOM     18  N   LIG d   1     -17.338  63.687 114.068  0.00  0.00     0.381 N 
ATOM     19  H   LIG d   1     -17.577  63.889 113.118  0.00  0.00    -0.090 HD
ATOM     20  H   LIG d   1     -18.189  63.629 114.601  0.00  0.00    -0.090 HD
ATOM     21  H   LIG d   1     -16.846  62.823 114.119  0.00  0.00    -0.090 HD
ENDBRANCH   5  18
BRANCH   3  22
ATOM     22  C   LIG d   1     -15.316  67.931 113.152  0.00  0.00     0.382 C 
ATOM     23  O   LIG d   1     -15.376  67.652 111.931  0.00  0.00    -0.241 OA
ATOM     24  O   LIG d   1     -14.693  68.945 113.520  0.00  0.00    -0.241 OA
ENDBRANCH   3  22
TORSDOF 7
ENDMDL
MODEL 7
REMARK VINA RESULT:      -4.8     12.652     14.611
REMARK  7 active torsions:
REMARK  status: ('A' for Active; 'I' for Inactive)
REMARK    1  A    between atoms: C_2  and  C_3 
REMARK    2  A    between atoms: C_3  and  O_6 
REMARK    3  A    between atoms: C_3  and  C_4 
REMARK    4  A    between atoms: C_7  and  O_6 
REMARK    5  A    between atoms: C_9  and  C_10 
REMARK    6  A    between atoms: N_15  and  C_14 
REMARK    7  A    between atoms: N_20  and  C_19 
REMARK       I    between atoms: C_22  and  N_20 
ROOT
ATOM      1  C   LIG d   1       3.726  85.376 114.707  0.00  0.00     0.161 C 
ATOM      2  C   LIG d   1       3.486  86.467 113.855  0.00  0.00     0.016 C 
ATOM      3  C   LIG d   1       4.343  87.587 113.765  0.00  0.00     0.038 C 
ATOM      4  C   LIG d   1       5.587  87.624 114.414  0.00  0.00     0.028 C 
ATOM      5  C   LIG d   1       5.636  86.770 115.676  0.00  0.00    -0.047 C 
ATOM      6  C   LIG d   1       5.133  85.347 115.340  0.00  0.00     0.091 C 
ENDROOT
BRANCH   1   7
ATOM      7  O   LIG d   1       3.466  84.143 114.008  0.00  0.00    -0.368 OA
BRANCH   7   8
ATOM      8  C   LIG d   1       3.431  84.226 112.562  0.00  0.00     0.119 C 
BRANCH   8   9
ATOM      9  C   LIG d   1       2.187  83.451 112.084  0.00  0.00     0.028 C 
ATOM     10  C   LIG d   1       0.918  83.841 112.860  0.00  0.00     0.006 C 
ENDBRANCH   8   9
BRANCH   8  11
ATOM     11  C   LIG d   1       4.625  83.504 111.933  0.00  0.00     0.028 C 
ATOM     12  C   LIG d   1       5.007  82.218 112.683  0.00  0.00     0.006 C 
ENDBRANCH   8  11
ENDBRANCH   7   8
ENDBRANCH   1   7
BRANCH   6  13
ATOM     13  N   LIG d   1       5.070  84.470 116.538  0.00  0.00    -0.311 N 
ATOM     14  C   LIG d   1       5.767  83.342 116.658  0.00  0.00     0.210 C 
ATOM     15  C   LIG d   1       5.540  82.578 117.967  0.00  0.00     0.109 C 
ATOM     16  O   LIG d   1       6.576  82.917 115.820  0.00  0.00    -0.276 OA
ATOM     17  H   LIG d   1       4.462  84.756 117.281  0.00  0.00     0.149 HD
ENDBRANCH   6  13
BRANCH   5  18
ATOM     18  N   LIG d   1       7.025  86.790 116.174  0.00  0.00     0.381 N 
ATOM     19  H   LIG d   1       7.348  85.853 116.312  0.00  0.00    -0.090 HD
ATOM     20  H   LIG d   1       7.046  87.265 117.059  0.00  0.00    -0.090 HD
ATOM     21  H   LIG d   1       7.614  87.259 115.522  0.00  0.00    -0.090 HD
ENDBRANCH   5  18
BRANCH   3  22
ATOM     22  C   LIG d   1       3.941  88.705 113.049  0.00  0.00     0.382 C 
ATOM     23  O   LIG d   1       4.599  89.770 113.128  0.00  0.00    -0.241 OA
ATOM     24  O   LIG d   1       2.903  88.674 112.361  0.00  0.00    -0.241 OA
ENDBRANCH   3  22
TORSDOF 7
ENDMDL
MODEL 8
REMARK VINA RESULT:      -4.7     14.351     16.486
REMARK  7 active torsions:
REMARK  status: ('A' for Active; 'I' for Inactive)
REMARK    1  A    between atoms: C_2  and  C_3 
REMARK    2  A    between atoms: C_3  and  O_6 
REMARK    3  A    between atoms: C_3  and  C_4 
REMARK    4  A    between atoms: C_7  and  O_6 
REMARK    5  A    between atoms: C_9  and  C_10 
REMARK    6  A    between atoms: N_15  and  C_14 
REMARK    7  A    between atoms: N_20  and  C_19 
REMARK       I    between atoms: C_22  and  N_20 
ROOT
ATOM      1  C   LIG d   1     -16.627  65.556 117.164  0.00  0.00     0.161 C 
ATOM      2  C   LIG d   1     -16.021  65.997 115.975  0.00  0.00     0.016 C 
ATOM      3  C   LIG d   1     -15.912  67.360 115.617  0.00  0.00     0.038 C 
ATOM      4  C   LIG d   1     -16.269  68.390 116.501  0.00  0.00     0.028 C 
ATOM      5  C   LIG d   1     -17.347  67.985 117.499  0.00  0.00    -0.047 C 
ATOM      6  C   LIG d   1     -16.922  66.669 118.191  0.00  0.00     0.091 C 
ENDROOT
BRANCH   1   7
ATOM      7  O   LIG d   1     -15.827  64.519 117.765  0.00  0.00    -0.368 OA
BRANCH   7   8
ATOM      8  C   LIG d   1     -16.122  63.163 117.347  0.00  0.00     0.119 C 
BRANCH   8   9
ATOM      9  C   LIG d   1     -17.653  63.037 117.233  0.00  0.00     0.028 C 
ATOM     10  C   LIG d   1     -18.080  62.046 116.137  0.00  0.00     0.006 C 
ENDBRANCH   8   9
BRANCH   8  11
ATOM     11  C   LIG d   1     -15.710  62.149 118.418  0.00  0.00     0.028 C 
ATOM     12  C   LIG d   1     -14.355  62.480 119.063  0.00  0.00     0.006 C 
ENDBRANCH   8  11
ENDBRANCH   7   8
ENDBRANCH   1   7
BRANCH   6  13
ATOM     13  N   LIG d   1     -17.961  66.157 119.123  0.00  0.00    -0.311 N 
ATOM     14  C   LIG d   1     -17.978  66.436 120.425  0.00  0.00     0.210 C 
ATOM     15  C   LIG d   1     -19.125  65.790 121.209  0.00  0.00     0.109 C 
ATOM     16  O   LIG d   1     -17.171  67.182 121.000  0.00  0.00    -0.276 OA
ATOM     17  H   LIG d   1     -18.672  65.570 118.735  0.00  0.00     0.149 HD
ENDBRANCH   6  13
BRANCH   5  18
ATOM     18  N   LIG d   1     -17.523  69.104 118.444  0.00  0.00     0.381 N 
ATOM     19  H   LIG d   1     -16.677  69.635 118.501  0.00  0.00    -0.090 HD
ATOM     20  H   LIG d   1     -17.724  68.731 119.356  0.00  0.00    -0.090 HD
ATOM     21  H   LIG d   1     -18.272  69.689 118.144  0.00  0.00    -0.090 HD
ENDBRANCH   5  18
BRANCH   3  22
ATOM     22  C   LIG d   1     -15.477  67.704 114.346  0.00  0.00     0.382 C 
ATOM     23  O   LIG d   1     -15.190  68.897 114.083  0.00  0.00    -0.241 OA
ATOM     24  O   LIG d   1     -15.412  66.845 113.447  0.00  0.00    -0.241 OA
ENDBRANCH   3  22
TORSDOF 7
ENDMDL
MODEL 9
REMARK VINA RESULT:      -4.7     15.936     17.916
REMARK  7 active torsions:
REMARK  status: ('A' for Active; 'I' for Inactive)
REMARK    1  A    between atoms: C_2  and  C_3 
REMARK    2  A    between atoms: C_3  and  O_6 
REMARK    3  A    between atoms: C_3  and  C_4 
REMARK    4  A    between atoms: C_7  and  O_6 
REMARK    5  A    between atoms: C_9  and  C_10 
REMARK    6  A    between atoms: N_15  and  C_14 
REMARK    7  A    between atoms: N_20  and  C_19 
REMARK       I    between atoms: C_22  and  N_20 
ROOT
ATOM      1  C   LIG d   1     -16.986  63.871 116.784  0.00  0.00     0.161 C 
ATOM      2  C   LIG d   1     -17.474  62.573 116.561  0.00  0.00     0.016 C 
ATOM      3  C   LIG d   1     -18.107  62.175 115.361  0.00  0.00     0.038 C 
ATOM      4  C   LIG d   1     -18.159  63.013 114.237  0.00  0.00     0.028 C 
ATOM      5  C   LIG d   1     -18.129  64.497 114.586  0.00  0.00    -0.047 C 
ATOM      6  C   LIG d   1     -16.934  64.767 115.529  0.00  0.00     0.091 C 
ENDROOT
BRANCH   1   7
ATOM      7  O   LIG d   1     -15.687  63.805 117.406  0.00  0.00    -0.368 OA
BRANCH   7   8
ATOM      8  C   LIG d   1     -15.653  64.035 118.836  0.00  0.00     0.119 C 
BRANCH   8   9
ATOM      9  C   LIG d   1     -15.250  65.506 119.058  0.00  0.00     0.028 C 
ATOM     10  C   LIG d   1     -16.413  66.358 119.593  0.00  0.00     0.006 C 
ENDBRANCH   8   9
BRANCH   8  11
ATOM     11  C   LIG d   1     -14.553  63.207 119.507  0.00  0.00     0.028 C 
ATOM     12  C   LIG d   1     -14.753  61.694 119.329  0.00  0.00     0.006 C 
ENDBRANCH   8  11
ENDBRANCH   7   8
ENDBRANCH   1   7
BRANCH   6  13
ATOM     13  N   LIG d   1     -16.881  66.180 115.986  0.00  0.00    -0.311 N 
ATOM     14  C   LIG d   1     -16.099  67.102 115.428  0.00  0.00     0.210 C 
ATOM     15  C   LIG d   1     -16.183  68.493 116.066  0.00  0.00     0.109 C 
ATOM     16  O   LIG d   1     -15.368  66.909 114.445  0.00  0.00    -0.276 OA
ATOM     17  H   LIG d   1     -17.466  66.431 116.759  0.00  0.00     0.149 HD
ENDBRANCH   6  13
BRANCH   5  18
ATOM     18  N   LIG d   1     -18.050  65.251 113.321  0.00  0.00     0.381 N 
ATOM     19  H   LIG d   1     -17.617  64.686 112.617  0.00  0.00    -0.090 HD
ATOM     20  H   LIG d   1     -17.481  66.067 113.464  0.00  0.00    -0.090 HD
ATOM     21  H   LIG d   1     -18.963  65.520 113.026  0.00  0.00    -0.090 HD
ENDBRANCH   5  18
BRANCH   3  22
ATOM     22  C   LIG d   1     -18.731  60.939 115.291  0.00  0.00     0.382 C 
ATOM     23  O   LIG d   1     -19.162  60.394 116.336  0.00  0.00    -0.241 OA
ATOM     24  O   LIG d   1     -18.830  60.342 114.202  0.00  0.00    -0.241 OA
ENDBRANCH   3  22
TORSDOF 7
ENDMDL
