MODEL 1
REMARK VINA RESULT:      -5.7      0.000      0.000
REMARK  7 active torsions:
REMARK  status: ('A' for Active; 'I' for Inactive)
REMARK    1  A    between atoms: C_2  and  C_3 
REMARK    2  A    between atoms: C_3  and  O_6 
REMARK    3  A    between atoms: C_3  and  C_4 
REMARK    4  A    between atoms: C_7  and  O_6 
REMARK    5  A    between atoms: C_9  and  C_10 
REMARK    6  A    between atoms: N_15  and  C_14 
REMARK    7  A    between atoms: N_20  and  C_19 
REMARK       I    between atoms: C_22  and  N_20 
ROOT
ATOM      1  C   LIG d   1      -8.217  75.144 116.596  0.00  0.00     0.161 C 
ATOM      2  C   LIG d   1      -7.051  74.630 116.006  0.00  0.00     0.016 C 
ATOM      3  C   LIG d   1      -5.790  74.629 116.646  0.00  0.00     0.038 C 
ATOM      4  C   LIG d   1      -5.640  75.008 117.988  0.00  0.00     0.028 C 
ATOM      5  C   LIG d   1      -6.694  76.006 118.457  0.00  0.00    -0.047 C 
ATOM      6  C   LIG d   1      -8.096  75.460 118.101  0.00  0.00     0.091 C 
ENDROOT
BRANCH   1   7
ATOM      7  O   LIG d   1      -9.320  74.247 116.360  0.00  0.00    -0.368 OA
BRANCH   7   8
ATOM      8  C   LIG d   1      -9.362  73.057 117.185  0.00  0.00     0.119 C 
BRANCH   8   9
ATOM      9  C   LIG d   1      -9.376  71.839 116.241  0.00  0.00     0.028 C 
ATOM     10  C   LIG d   1      -8.024  71.107 116.206  0.00  0.00     0.006 C 
ENDBRANCH   8   9
BRANCH   8  11
ATOM     11  C   LIG d   1     -10.671  72.972 117.976  0.00  0.00     0.028 C 
ATOM     12  C   LIG d   1     -11.688  74.046 117.560  0.00  0.00     0.006 C 
ENDBRANCH   8  11
ENDBRANCH   7   8
ENDBRANCH   1   7
BRANCH   6  13
ATOM     13  N   LIG d   1      -9.181  76.413 118.450  0.00  0.00    -0.311 N 
ATOM     14  C   LIG d   1      -9.863  76.361 119.593  0.00  0.00     0.210 C 
ATOM     15  C   LIG d   1     -10.954  77.426 119.744  0.00  0.00     0.109 C 
ATOM     16  O   LIG d   1      -9.647  75.554 120.509  0.00  0.00    -0.276 OA
ATOM     17  H   LIG d   1      -9.401  77.120 117.776  0.00  0.00     0.149 HD
ENDBRANCH   6  13
BRANCH   5  18
ATOM     18  N   LIG d   1      -6.503  76.207 119.906  0.00  0.00     0.381 N 
ATOM     19  H   LIG d   1      -5.685  76.761 120.066  0.00  0.00    -0.090 HD
ATOM     20  H   LIG d   1      -6.369  75.313 120.344  0.00  0.00    -0.090 HD
ATOM     21  H   LIG d   1      -7.301  76.660 120.295  0.00  0.00    -0.090 HD
ENDBRANCH   5  18
BRANCH   3  22
ATOM     22  C   LIG d   1      -4.655  74.284 115.928  0.00  0.00     0.382 C 
ATOM     23  O   LIG d   1      -3.663  73.796 116.521  0.00  0.00    -0.241 OA
ATOM     24  O   LIG d   1      -4.594  74.495 114.702  0.00  0.00    -0.241 OA
ENDBRANCH   3  22
TORSDOF 7
ENDMDL
MODEL 2
REMARK VINA RESULT:      -5.5      2.059      5.045
REMARK  7 active torsions:
REMARK  status: ('A' for Active; 'I' for Inactive)
REMARK    1  A    between atoms: C_2  and  C_3 
REMARK    2  A    between atoms: C_3  and  O_6 
REMARK    3  A    between atoms: C_3  and  C_4 
REMARK    4  A    between atoms: C_7  and  O_6 
REMARK    5  A    between atoms: C_9  and  C_10 
REMARK    6  A    between atoms: N_15  and  C_14 
REMARK    7  A    between atoms: N_20  and  C_19 
REMARK       I    between atoms: C_22  and  N_20 
ROOT
ATOM      1  C   LIG d   1      -8.829  75.110 118.140  0.00  0.00     0.161 C 
ATOM      2  C   LIG d   1     -10.186  75.261 118.472  0.00  0.00     0.016 C 
ATOM      3  C   LIG d   1     -10.762  76.497 118.847  0.00  0.00     0.038 C 
ATOM      4  C   LIG d   1     -10.048  77.702 118.768  0.00  0.00     0.028 C 
ATOM      5  C   LIG d   1      -8.541  77.525 118.923  0.00  0.00    -0.047 C 
ATOM      6  C   LIG d   1      -8.060  76.433 117.941  0.00  0.00     0.091 C 
ENDROOT
BRANCH   1   7
ATOM      7  O   LIG d   1      -8.702  74.276 116.971  0.00  0.00    -0.368 OA
BRANCH   7   8
ATOM      8  C   LIG d   1      -8.371  72.887 117.212  0.00  0.00     0.119 C 
BRANCH   8   9
ATOM      9  C   LIG d   1      -7.401  72.442 116.100  0.00  0.00     0.028 C 
ATOM     10  C   LIG d   1      -6.706  73.632 115.417  0.00  0.00     0.006 C 
ENDBRANCH   8   9
BRANCH   8  11
ATOM     11  C   LIG d   1      -9.600  71.986 117.062  0.00  0.00     0.028 C 
ATOM     12  C   LIG d   1      -9.251  70.581 116.546  0.00  0.00     0.006 C 
ENDBRANCH   8  11
ENDBRANCH   7   8
ENDBRANCH   1   7
BRANCH   6  13
ATOM     13  N   LIG d   1      -6.611  76.138 118.087  0.00  0.00    -0.311 N 
ATOM     14  C   LIG d   1      -5.672  76.673 117.308  0.00  0.00     0.210 C 
ATOM     15  C   LIG d   1      -4.242  76.219 117.616  0.00  0.00     0.109 C 
ATOM     16  O   LIG d   1      -5.884  77.505 116.414  0.00  0.00    -0.276 OA
ATOM     17  H   LIG d   1      -6.347  75.496 118.809  0.00  0.00     0.149 HD
ENDBRANCH   6  13
BRANCH   5  18
ATOM     18  N   LIG d   1      -7.912  78.837 118.683  0.00  0.00     0.381 N 
ATOM     19  H   LIG d   1      -8.154  79.167 117.770  0.00  0.00    -0.090 HD
ATOM     20  H   LIG d   1      -6.913  78.731 118.726  0.00  0.00    -0.090 HD
ATOM     21  H   LIG d   1      -8.213  79.491 119.372  0.00  0.00    -0.090 HD
ENDBRANCH   5  18
BRANCH   3  22
ATOM     22  C   LIG d   1     -12.055  76.529 119.345  0.00  0.00     0.382 C 
ATOM     23  O   LIG d   1     -12.263  76.888 120.529  0.00  0.00    -0.241 OA
ATOM     24  O   LIG d   1     -13.013  76.161 118.639  0.00  0.00    -0.241 OA
ENDBRANCH   3  22
TORSDOF 7
ENDMDL
MODEL 3
REMARK VINA RESULT:      -5.3      2.384      5.354
REMARK  7 active torsions:
REMARK  status: ('A' for Active; 'I' for Inactive)
REMARK    1  A    between atoms: C_2  and  C_3 
REMARK    2  A    between atoms: C_3  and  O_6 
REMARK    3  A    between atoms: C_3  and  C_4 
REMARK    4  A    between atoms: C_7  and  O_6 
REMARK    5  A    between atoms: C_9  and  C_10 
REMARK    6  A    between atoms: N_15  and  C_14 
REMARK    7  A    between atoms: N_20  and  C_19 
REMARK       I    between atoms: C_22  and  N_20 
ROOT
ATOM      1  C   LIG d   1      -8.198  75.277 117.487  0.00  0.00     0.161 C 
ATOM      2  C   LIG d   1      -8.250  76.611 117.925  0.00  0.00     0.016 C 
ATOM      3  C   LIG d   1      -9.431  77.229 118.397  0.00  0.00     0.038 C 
ATOM      4  C   LIG d   1     -10.614  76.505 118.607  0.00  0.00     0.028 C 
ATOM      5  C   LIG d   1     -10.744  75.282 117.705  0.00  0.00    -0.047 C 
ATOM      6  C   LIG d   1      -9.452  74.440 117.813  0.00  0.00     0.091 C 
ENDROOT
BRANCH   1   7
ATOM      7  O   LIG d   1      -7.018  74.637 118.012  0.00  0.00    -0.368 OA
BRANCH   7   8
ATOM      8  C   LIG d   1      -5.862  74.617 117.139  0.00  0.00     0.119 C 
BRANCH   8   9
ATOM      9  C   LIG d   1      -6.226  73.764 115.908  0.00  0.00     0.028 C 
ATOM     10  C   LIG d   1      -6.076  74.541 114.590  0.00  0.00     0.006 C 
ENDBRANCH   8   9
BRANCH   8  11
ATOM     11  C   LIG d   1      -4.680  73.898 117.796  0.00  0.00     0.028 C 
ATOM     12  C   LIG d   1      -3.331  74.260 117.154  0.00  0.00     0.006 C 
ENDBRANCH   8  11
ENDBRANCH   7   8
ENDBRANCH   1   7
BRANCH   6  13
ATOM     13  N   LIG d   1      -9.461  73.268 116.899  0.00  0.00    -0.311 N 
ATOM     14  C   LIG d   1      -9.393  72.007 117.322  0.00  0.00     0.210 C 
ATOM     15  C   LIG d   1      -9.397  70.951 116.212  0.00  0.00     0.109 C 
ATOM     16  O   LIG d   1      -9.362  71.662 118.513  0.00  0.00    -0.276 OA
ATOM     17  H   LIG d   1      -9.516  73.456 115.917  0.00  0.00     0.149 HD
ENDBRANCH   6  13
BRANCH   5  18
ATOM     18  N   LIG d   1     -11.951  74.546 118.124  0.00  0.00     0.381 N 
ATOM     19  H   LIG d   1     -12.711  74.764 117.511  0.00  0.00    -0.090 HD
ATOM     20  H   LIG d   1     -12.203  74.836 119.053  0.00  0.00    -0.090 HD
ATOM     21  H   LIG d   1     -11.775  73.565 118.111  0.00  0.00    -0.090 HD
ENDBRANCH   5  18
BRANCH   3  22
ATOM     22  C   LIG d   1      -9.446  78.597 118.626  0.00  0.00     0.382 C 
ATOM     23  O   LIG d   1     -10.532  79.182 118.855  0.00  0.00    -0.241 OA
ATOM     24  O   LIG d   1      -8.393  79.259 118.563  0.00  0.00    -0.241 OA
ENDBRANCH   3  22
TORSDOF 7
ENDMDL
MODEL 4
REMARK VINA RESULT:      -5.2      2.330      4.058
REMARK  7 active torsions:
REMARK  status: ('A' for Active; 'I' for Inactive)
REMARK    1  A    between atoms: C_2  and  C_3 
REMARK    2  A    between atoms: C_3  and  O_6 
REMARK    3  A    between atoms: C_3  and  C_4 
REMARK    4  A    between atoms: C_7  and  O_6 
REMARK    5  A    between atoms: C_9  and  C_10 
REMARK    6  A    between atoms: N_15  and  C_14 
REMARK    7  A    between atoms: N_20  and  C_19 
REMARK       I    between atoms: C_22  and  N_20 
ROOT
ATOM      1  C   LIG d   1      -8.348  75.332 116.801  0.00  0.00     0.161 C 
ATOM      2  C   LIG d   1      -8.786  74.016 116.578  0.00  0.00     0.016 C 
ATOM      3  C   LIG d   1      -7.908  72.914 116.454  0.00  0.00     0.038 C 
ATOM      4  C   LIG d   1      -6.532  73.032 116.697  0.00  0.00     0.028 C 
ATOM      5  C   LIG d   1      -5.987  74.431 116.426  0.00  0.00    -0.047 C 
ATOM      6  C   LIG d   1      -6.858  75.463 117.178  0.00  0.00     0.091 C 
ENDROOT
BRANCH   1   7
ATOM      7  O   LIG d   1      -9.175  75.960 117.800  0.00  0.00    -0.368 OA
BRANCH   7   8
ATOM      8  C   LIG d   1      -9.943  75.067 118.644  0.00  0.00     0.119 C 
BRANCH   8   9
ATOM      9  C   LIG d   1     -11.422  75.487 118.537  0.00  0.00     0.028 C 
ATOM     10  C   LIG d   1     -12.259  74.487 117.722  0.00  0.00     0.006 C 
ENDBRANCH   8   9
BRANCH   8  11
ATOM     11  C   LIG d   1      -9.578  75.244 120.121  0.00  0.00     0.028 C 
ATOM     12  C   LIG d   1      -8.419  76.230 120.334  0.00  0.00     0.006 C 
ENDBRANCH   8  11
ENDBRANCH   7   8
ENDBRANCH   1   7
BRANCH   6  13
ATOM     13  N   LIG d   1      -6.444  76.863 116.900  0.00  0.00    -0.311 N 
ATOM     14  C   LIG d   1      -5.622  77.555 117.688  0.00  0.00     0.210 C 
ATOM     15  C   LIG d   1      -5.342  78.989 117.229  0.00  0.00     0.109 C 
ATOM     16  O   LIG d   1      -5.074  77.106 118.706  0.00  0.00    -0.276 OA
ATOM     17  H   LIG d   1      -6.818  77.294 116.078  0.00  0.00     0.149 HD
ENDBRANCH   6  13
BRANCH   5  18
ATOM     18  N   LIG d   1      -4.574  74.448 116.850  0.00  0.00     0.381 N 
ATOM     19  H   LIG d   1      -4.304  75.381 117.091  0.00  0.00    -0.090 HD
ATOM     20  H   LIG d   1      -4.001  74.142 116.084  0.00  0.00    -0.090 HD
ATOM     21  H   LIG d   1      -4.445  73.845 117.633  0.00  0.00    -0.090 HD
ENDBRANCH   5  18
BRANCH   3  22
ATOM     22  C   LIG d   1      -8.402  71.685 116.045  0.00  0.00     0.382 C 
ATOM     23  O   LIG d   1      -9.636  71.460 116.084  0.00  0.00    -0.241 OA
ATOM     24  O   LIG d   1      -7.626  70.783 115.678  0.00  0.00    -0.241 OA
ENDBRANCH   3  22
TORSDOF 7
ENDMDL
MODEL 5
REMARK VINA RESULT:      -5.2     16.762     18.820
REMARK  7 active torsions:
REMARK  status: ('A' for Active; 'I' for Inactive)
REMARK    1  A    between atoms: C_2  and  C_3 
REMARK    2  A    between atoms: C_3  and  O_6 
REMARK    3  A    between atoms: C_3  and  C_4 
REMARK    4  A    between atoms: C_7  and  O_6 
REMARK    5  A    between atoms: C_9  and  C_10 
REMARK    6  A    between atoms: N_15  and  C_14 
REMARK    7  A    between atoms: N_20  and  C_19 
REMARK       I    between atoms: C_22  and  N_20 
ROOT
ATOM      1  C   LIG d   1      -5.098  92.749 118.599  0.00  0.00     0.161 C 
ATOM      2  C   LIG d   1      -4.889  93.443 119.802  0.00  0.00     0.016 C 
ATOM      3  C   LIG d   1      -5.797  94.397 120.317  0.00  0.00     0.038 C 
ATOM      4  C   LIG d   1      -7.056  94.612 119.736  0.00  0.00     0.028 C 
ATOM      5  C   LIG d   1      -7.095  94.302 118.244  0.00  0.00    -0.047 C 
ATOM      6  C   LIG d   1      -6.517  92.888 118.009  0.00  0.00     0.091 C 
ENDROOT
BRANCH   1   7
ATOM      7  O   LIG d   1      -4.762  91.358 118.773  0.00  0.00    -0.368 OA
BRANCH   7   8
ATOM      8  C   LIG d   1      -3.432  90.965 118.354  0.00  0.00     0.119 C 
BRANCH   8   9
ATOM      9  C   LIG d   1      -3.586  90.042 117.130  0.00  0.00     0.028 C 
ATOM     10  C   LIG d   1      -2.414  89.057 116.986  0.00  0.00     0.006 C 
ENDBRANCH   8   9
BRANCH   8  11
ATOM     11  C   LIG d   1      -2.740  90.113 119.421  0.00  0.00     0.028 C 
ATOM     12  C   LIG d   1      -1.735  90.913 120.264  0.00  0.00     0.006 C 
ENDBRANCH   8  11
ENDBRANCH   7   8
ENDBRANCH   1   7
BRANCH   6  13
ATOM     13  N   LIG d   1      -6.440  92.539 116.566  0.00  0.00    -0.311 N 
ATOM     14  C   LIG d   1      -6.892  91.390 116.065  0.00  0.00     0.210 C 
ATOM     15  C   LIG d   1      -6.697  91.223 114.555  0.00  0.00     0.109 C 
ATOM     16  O   LIG d   1      -7.464  90.508 116.723  0.00  0.00    -0.276 OA
ATOM     17  H   LIG d   1      -6.019  93.211 115.956  0.00  0.00     0.149 HD
ENDBRANCH   6  13
BRANCH   5  18
ATOM     18  N   LIG d   1      -8.495  94.436 117.797  0.00  0.00     0.381 N 
ATOM     19  H   LIG d   1      -8.538  94.391 116.799  0.00  0.00    -0.090 HD
ATOM     20  H   LIG d   1      -8.844  95.332 118.088  0.00  0.00    -0.090 HD
ATOM     21  H   LIG d   1      -9.050  93.710 118.194  0.00  0.00    -0.090 HD
ENDBRANCH   5  18
BRANCH   3  22
ATOM     22  C   LIG d   1      -5.431  95.177 121.403  0.00  0.00     0.382 C 
ATOM     23  O   LIG d   1      -4.599  96.105 121.257  0.00  0.00    -0.241 OA
ATOM     24  O   LIG d   1      -5.889  94.937 122.536  0.00  0.00    -0.241 OA
ENDBRANCH   3  22
TORSDOF 7
ENDMDL
MODEL 6
REMARK VINA RESULT:      -5.1      1.124      2.020
REMARK  7 active torsions:
REMARK  status: ('A' for Active; 'I' for Inactive)
REMARK    1  A    between atoms: C_2  and  C_3 
REMARK    2  A    between atoms: C_3  and  O_6 
REMARK    3  A    between atoms: C_3  and  C_4 
REMARK    4  A    between atoms: C_7  and  O_6 
REMARK    5  A    between atoms: C_9  and  C_10 
REMARK    6  A    between atoms: N_15  and  C_14 
REMARK    7  A    between atoms: N_20  and  C_19 
REMARK       I    between atoms: C_22  and  N_20 
ROOT
ATOM      1  C   LIG d   1      -7.026  74.737 117.256  0.00  0.00     0.161 C 
ATOM      2  C   LIG d   1      -5.811  74.171 116.837  0.00  0.00     0.016 C 
ATOM      3  C   LIG d   1      -4.548  74.606 117.302  0.00  0.00     0.038 C 
ATOM      4  C   LIG d   1      -4.422  75.543 118.338  0.00  0.00     0.028 C 
ATOM      5  C   LIG d   1      -5.603  76.504 118.433  0.00  0.00    -0.047 C 
ATOM      6  C   LIG d   1      -6.914  75.685 118.469  0.00  0.00     0.091 C 
ENDROOT
BRANCH   1   7
ATOM      7  O   LIG d   1      -7.985  73.695 117.522  0.00  0.00    -0.368 OA
BRANCH   7   8
ATOM      8  C   LIG d   1      -8.906  73.386 116.446  0.00  0.00     0.119 C 
BRANCH   8   9
ATOM      9  C   LIG d   1     -10.227  74.121 116.743  0.00  0.00     0.028 C 
ATOM     10  C   LIG d   1     -11.005  73.484 117.906  0.00  0.00     0.006 C 
ENDBRANCH   8   9
BRANCH   8  11
ATOM     11  C   LIG d   1      -9.265  71.897 116.430  0.00  0.00     0.028 C 
ATOM     12  C   LIG d   1      -8.047  70.994 116.180  0.00  0.00     0.006 C 
ENDBRANCH   8  11
ENDBRANCH   7   8
ENDBRANCH   1   7
BRANCH   6  13
ATOM     13  N   LIG d   1      -8.122  76.550 118.476  0.00  0.00    -0.311 N 
ATOM     14  C   LIG d   1      -9.113  76.418 119.356  0.00  0.00     0.210 C 
ATOM     15  C   LIG d   1     -10.275  77.399 119.175  0.00  0.00     0.109 C 
ATOM     16  O   LIG d   1      -9.126  75.601 120.290  0.00  0.00    -0.276 OA
ATOM     17  H   LIG d   1      -8.180  77.260 117.772  0.00  0.00     0.149 HD
ENDBRANCH   6  13
BRANCH   5  18
ATOM     18  N   LIG d   1      -5.407  77.334 119.637  0.00  0.00     0.381 N 
ATOM     19  H   LIG d   1      -5.536  78.299 119.407  0.00  0.00    -0.090 HD
ATOM     20  H   LIG d   1      -4.466  77.211 119.966  0.00  0.00    -0.090 HD
ATOM     21  H   LIG d   1      -6.053  77.064 120.346  0.00  0.00    -0.090 HD
ENDBRANCH   5  18
BRANCH   3  22
ATOM     22  C   LIG d   1      -3.393  74.131 116.700  0.00  0.00     0.382 C 
ATOM     23  O   LIG d   1      -2.518  73.555 117.390  0.00  0.00    -0.241 OA
ATOM     24  O   LIG d   1      -3.195  74.310 115.483  0.00  0.00    -0.241 OA
ENDBRANCH   3  22
TORSDOF 7
ENDMDL
MODEL 7
REMARK VINA RESULT:      -5.1      2.111      4.947
REMARK  7 active torsions:
REMARK  status: ('A' for Active; 'I' for Inactive)
REMARK    1  A    between atoms: C_2  and  C_3 
REMARK    2  A    between atoms: C_3  and  O_6 
REMARK    3  A    between atoms: C_3  and  C_4 
REMARK    4  A    between atoms: C_7  and  O_6 
REMARK    5  A    between atoms: C_9  and  C_10 
REMARK    6  A    between atoms: N_15  and  C_14 
REMARK    7  A    between atoms: N_20  and  C_19 
REMARK       I    between atoms: C_22  and  N_20 
ROOT
ATOM      1  C   LIG d   1      -8.170  75.962 117.839  0.00  0.00     0.161 C 
ATOM      2  C   LIG d   1      -9.237  76.685 118.397  0.00  0.00     0.016 C 
ATOM      3  C   LIG d   1      -9.184  78.073 118.660  0.00  0.00     0.038 C 
ATOM      4  C   LIG d   1      -8.106  78.867 118.240  0.00  0.00     0.028 C 
ATOM      5  C   LIG d   1      -6.795  78.097 118.129  0.00  0.00    -0.047 C 
ATOM      6  C   LIG d   1      -7.027  76.831 117.272  0.00  0.00     0.091 C 
ENDROOT
BRANCH   1   7
ATOM      7  O   LIG d   1      -8.664  75.063 116.827  0.00  0.00    -0.368 OA
BRANCH   7   8
ATOM      8  C   LIG d   1      -8.674  73.656 117.174  0.00  0.00     0.119 C 
BRANCH   8   9
ATOM      9  C   LIG d   1      -7.696  72.939 116.224  0.00  0.00     0.028 C 
ATOM     10  C   LIG d   1      -7.910  71.416 116.201  0.00  0.00     0.006 C 
ENDBRANCH   8   9
BRANCH   8  11
ATOM     11  C   LIG d   1     -10.042  73.024 116.901  0.00  0.00     0.028 C 
ATOM     12  C   LIG d   1     -11.172  73.673 117.716  0.00  0.00     0.006 C 
ENDBRANCH   8  11
ENDBRANCH   7   8
ENDBRANCH   1   7
BRANCH   6  13
ATOM     13  N   LIG d   1      -5.815  75.976 117.183  0.00  0.00    -0.311 N 
ATOM     14  C   LIG d   1      -5.181  75.720 116.039  0.00  0.00     0.210 C 
ATOM     15  C   LIG d   1      -3.964  74.799 116.167  0.00  0.00     0.109 C 
ATOM     16  O   LIG d   1      -5.493  76.194 114.937  0.00  0.00    -0.276 OA
ATOM     17  H   LIG d   1      -5.475  75.576 118.035  0.00  0.00     0.149 HD
ENDBRANCH   6  13
BRANCH   5  18
ATOM     18  N   LIG d   1      -5.790  79.009 117.551  0.00  0.00     0.381 N 
ATOM     19  H   LIG d   1      -5.440  78.629 116.694  0.00  0.00    -0.090 HD
ATOM     20  H   LIG d   1      -5.022  79.096 118.194  0.00  0.00    -0.090 HD
ATOM     21  H   LIG d   1      -6.197  79.903 117.385  0.00  0.00    -0.090 HD
ENDBRANCH   5  18
BRANCH   3  22
ATOM     22  C   LIG d   1     -10.201  78.674 119.386  0.00  0.00     0.382 C 
ATOM     23  O   LIG d   1     -10.716  78.073 120.360  0.00  0.00    -0.241 OA
ATOM     24  O   LIG d   1     -10.640  79.791 119.053  0.00  0.00    -0.241 OA
ENDBRANCH   3  22
TORSDOF 7
ENDMDL
MODEL 8
REMARK VINA RESULT:      -5.0     16.527     18.344
REMARK  7 active torsions:
REMARK  status: ('A' for Active; 'I' for Inactive)
REMARK    1  A    between atoms: C_2  and  C_3 
REMARK    2  A    between atoms: C_3  and  O_6 
REMARK    3  A    between atoms: C_3  and  C_4 
REMARK    4  A    between atoms: C_7  and  O_6 
REMARK    5  A    between atoms: C_9  and  C_10 
REMARK    6  A    between atoms: N_15  and  C_14 
REMARK    7  A    between atoms: N_20  and  C_19 
REMARK       I    between atoms: C_22  and  N_20 
ROOT
ATOM      1  C   LIG d   1      -4.413  91.441 118.089  0.00  0.00     0.161 C 
ATOM      2  C   LIG d   1      -5.312  90.868 117.173  0.00  0.00     0.016 C 
ATOM      3  C   LIG d   1      -6.471  91.529 116.705  0.00  0.00     0.038 C 
ATOM      4  C   LIG d   1      -6.731  92.874 117.007  0.00  0.00     0.028 C 
ATOM      5  C   LIG d   1      -6.120  93.327 118.328  0.00  0.00    -0.047 C 
ATOM      6  C   LIG d   1      -4.621  92.948 118.344  0.00  0.00     0.091 C 
ENDROOT
BRANCH   1   7
ATOM      7  O   LIG d   1      -3.058  91.186 117.668  0.00  0.00    -0.368 OA
BRANCH   7   8
ATOM      8  C   LIG d   1      -2.307  90.245 118.473  0.00  0.00     0.119 C 
BRANCH   8   9
ATOM      9  C   LIG d   1      -0.861  90.768 118.569  0.00  0.00     0.028 C 
ATOM     10  C   LIG d   1      -0.748  92.253 118.187  0.00  0.00     0.006 C 
ENDBRANCH   8   9
BRANCH   8  11
ATOM     11  C   LIG d   1      -2.200  88.882 117.783  0.00  0.00     0.028 C 
ATOM     12  C   LIG d   1      -0.960  88.765 116.883  0.00  0.00     0.006 C 
ENDBRANCH   8  11
ENDBRANCH   7   8
ENDBRANCH   1   7
BRANCH   6  13
ATOM     13  N   LIG d   1      -3.966  93.281 119.636  0.00  0.00    -0.311 N 
ATOM     14  C   LIG d   1      -3.292  94.410 119.846  0.00  0.00     0.210 C 
ATOM     15  C   LIG d   1      -2.677  94.545 121.243  0.00  0.00     0.109 C 
ATOM     16  O   LIG d   1      -3.171  95.326 119.019  0.00  0.00    -0.276 OA
ATOM     17  H   LIG d   1      -4.041  92.606 120.372  0.00  0.00     0.149 HD
ENDBRANCH   6  13
BRANCH   5  18
ATOM     18  N   LIG d   1      -6.350  94.779 118.451  0.00  0.00     0.381 N 
ATOM     19  H   LIG d   1      -6.972  94.960 119.214  0.00  0.00    -0.090 HD
ATOM     20  H   LIG d   1      -6.782  95.112 117.607  0.00  0.00    -0.090 HD
ATOM     21  H   LIG d   1      -5.485  95.250 118.599  0.00  0.00    -0.090 HD
ENDBRANCH   5  18
BRANCH   3  22
ATOM     22  C   LIG d   1      -7.405  90.829 115.957  0.00  0.00     0.382 C 
ATOM     23  O   LIG d   1      -7.776  91.273 114.843  0.00  0.00    -0.241 OA
ATOM     24  O   LIG d   1      -7.915  89.782 116.401  0.00  0.00    -0.241 OA
ENDBRANCH   3  22
TORSDOF 7
ENDMDL
MODEL 9
REMARK VINA RESULT:      -5.0      2.474      6.153
REMARK  7 active torsions:
REMARK  status: ('A' for Active; 'I' for Inactive)
REMARK    1  A    between atoms: C_2  and  C_3 
REMARK    2  A    between atoms: C_3  and  O_6 
REMARK    3  A    between atoms: C_3  and  C_4 
REMARK    4  A    between atoms: C_7  and  O_6 
REMARK    5  A    between atoms: C_9  and  C_10 
REMARK    6  A    between atoms: N_15  and  C_14 
REMARK    7  A    between atoms: N_20  and  C_19 
REMARK       I    between atoms: C_22  and  N_20 
ROOT
ATOM      1  C   LIG d   1      -8.720  76.397 117.617  0.00  0.00     0.161 C 
ATOM      2  C   LIG d   1      -9.853  76.725 118.379  0.00  0.00     0.016 C 
ATOM      3  C   LIG d   1     -10.951  75.852 118.556  0.00  0.00     0.038 C 
ATOM      4  C   LIG d   1     -10.923  74.524 118.105  0.00  0.00     0.028 C 
ATOM      5  C   LIG d   1     -10.013  74.313 116.900  0.00  0.00    -0.047 C 
ATOM      6  C   LIG d   1      -8.622  74.911 117.210  0.00  0.00     0.091 C 
ENDROOT
BRANCH   1   7
ATOM      7  O   LIG d   1      -7.527  76.804 118.316  0.00  0.00    -0.368 OA
BRANCH   7   8
ATOM      8  C   LIG d   1      -6.723  77.819 117.666  0.00  0.00     0.119 C 
BRANCH   8   9
ATOM      9  C   LIG d   1      -5.266  77.316 117.649  0.00  0.00     0.028 C 
ATOM     10  C   LIG d   1      -5.002  76.247 118.723  0.00  0.00     0.006 C 
ENDBRANCH   8   9
BRANCH   8  11
ATOM     11  C   LIG d   1      -6.694  79.115 118.483  0.00  0.00     0.028 C 
ATOM     12  C   LIG d   1      -7.921  80.006 118.231  0.00  0.00     0.006 C 
ENDBRANCH   8  11
ENDBRANCH   7   8
ENDBRANCH   1   7
BRANCH   6  13
ATOM     13  N   LIG d   1      -7.695  74.822 116.051  0.00  0.00    -0.311 N 
ATOM     14  C   LIG d   1      -6.573  74.105 116.064  0.00  0.00     0.210 C 
ATOM     15  C   LIG d   1      -5.753  74.167 114.771  0.00  0.00     0.109 C 
ATOM     16  O   LIG d   1      -6.196  73.398 117.010  0.00  0.00    -0.276 OA
ATOM     17  H   LIG d   1      -7.941  75.340 115.230  0.00  0.00     0.149 HD
ENDBRANCH   6  13
BRANCH   5  18
ATOM     18  N   LIG d   1      -9.971  72.865 116.621  0.00  0.00     0.381 N 
ATOM     19  H   LIG d   1     -10.798  72.428 116.975  0.00  0.00    -0.090 HD
ATOM     20  H   LIG d   1      -9.178  72.467 117.092  0.00  0.00    -0.090 HD
ATOM     21  H   LIG d   1      -9.897  72.708 115.640  0.00  0.00    -0.090 HD
ENDBRANCH   5  18
BRANCH   3  22
ATOM     22  C   LIG d   1     -12.110  76.319 119.157  0.00  0.00     0.382 C 
ATOM     23  O   LIG d   1     -12.049  76.911 120.262  0.00  0.00    -0.241 OA
ATOM     24  O   LIG d   1     -13.221  76.118 118.630  0.00  0.00    -0.241 OA
ENDBRANCH   3  22
TORSDOF 7
ENDMDL
