MODEL 1
REMARK VINA RESULT:      -5.9      0.000      0.000
REMARK  7 active torsions:
REMARK  status: ('A' for Active; 'I' for Inactive)
REMARK    1  A    between atoms: C_2  and  C_3 
REMARK    2  A    between atoms: C_3  and  O_6 
REMARK    3  A    between atoms: C_3  and  C_4 
REMARK    4  A    between atoms: C_7  and  O_6 
REMARK    5  A    between atoms: C_9  and  C_10 
REMARK    6  A    between atoms: N_15  and  C_14 
REMARK    7  A    between atoms: N_20  and  C_19 
REMARK       I    between atoms: C_22  and  N_20 
ROOT
ATOM      1  C   LIG d   1      -6.703  77.945 117.114  0.00  0.00     0.161 C 
ATOM      2  C   LIG d   1      -5.957  77.753 115.939  0.00  0.00     0.016 C 
ATOM      3  C   LIG d   1      -5.937  76.536 115.220  0.00  0.00     0.038 C 
ATOM      4  C   LIG d   1      -6.784  75.467 115.548  0.00  0.00     0.028 C 
ATOM      5  C   LIG d   1      -7.179  75.436 117.020  0.00  0.00    -0.047 C 
ATOM      6  C   LIG d   1      -7.720  76.826 117.424  0.00  0.00     0.091 C 
ENDROOT
BRANCH   1   7
ATOM      7  O   LIG d   1      -7.363  79.225 117.071  0.00  0.00    -0.368 OA
BRANCH   7   8
ATOM      8  C   LIG d   1      -6.575  80.364 117.495  0.00  0.00     0.119 C 
BRANCH   8   9
ATOM      9  C   LIG d   1      -6.037  80.055 118.905  0.00  0.00     0.028 C 
ATOM     10  C   LIG d   1      -5.239  81.229 119.499  0.00  0.00     0.006 C 
ENDBRANCH   8   9
BRANCH   8  11
ATOM     11  C   LIG d   1      -7.444  81.614 117.657  0.00  0.00     0.028 C 
ATOM     12  C   LIG d   1      -8.914  81.283 117.960  0.00  0.00     0.006 C 
ENDBRANCH   8  11
ENDBRANCH   7   8
ENDBRANCH   1   7
BRANCH   6  13
ATOM     13  N   LIG d   1      -8.050  76.908 118.871  0.00  0.00    -0.311 N 
ATOM     14  C   LIG d   1      -9.197  77.400 119.335  0.00  0.00     0.210 C 
ATOM     15  C   LIG d   1      -9.327  77.410 120.861  0.00  0.00     0.109 C 
ATOM     16  O   LIG d   1     -10.133  77.801 118.626  0.00  0.00    -0.276 OA
ATOM     17  H   LIG d   1      -7.360  76.576 119.516  0.00  0.00     0.149 HD
ENDBRANCH   6  13
BRANCH   5  18
ATOM     18  N   LIG d   1      -8.170  74.357 117.193  0.00  0.00     0.381 N 
ATOM     19  H   LIG d   1      -7.804  73.499 116.832  0.00  0.00    -0.090 HD
ATOM     20  H   LIG d   1      -8.998  74.590 116.674  0.00  0.00    -0.090 HD
ATOM     21  H   LIG d   1      -8.393  74.251 118.159  0.00  0.00    -0.090 HD
ENDBRANCH   5  18
BRANCH   3  22
ATOM     22  C   LIG d   1      -5.031  76.364 114.184  0.00  0.00     0.382 C 
ATOM     23  O   LIG d   1      -5.199  76.969 113.098  0.00  0.00    -0.241 OA
ATOM     24  O   LIG d   1      -4.072  75.579 114.307  0.00  0.00    -0.241 OA
ENDBRANCH   3  22
TORSDOF 7
ENDMDL
MODEL 2
REMARK VINA RESULT:      -5.9     18.976     20.932
REMARK  7 active torsions:
REMARK  status: ('A' for Active; 'I' for Inactive)
REMARK    1  A    between atoms: C_2  and  C_3 
REMARK    2  A    between atoms: C_3  and  O_6 
REMARK    3  A    between atoms: C_3  and  C_4 
REMARK    4  A    between atoms: C_7  and  O_6 
REMARK    5  A    between atoms: C_9  and  C_10 
REMARK    6  A    between atoms: N_15  and  C_14 
REMARK    7  A    between atoms: N_20  and  C_19 
REMARK       I    between atoms: C_22  and  N_20 
ROOT
ATOM      1  C   LIG d   1      -0.172  58.576 118.133  0.00  0.00     0.161 C 
ATOM      2  C   LIG d   1      -0.183  59.305 116.933  0.00  0.00     0.016 C 
ATOM      3  C   LIG d   1      -0.503  58.736 115.679  0.00  0.00     0.038 C 
ATOM      4  C   LIG d   1      -0.983  57.423 115.562  0.00  0.00     0.028 C 
ATOM      5  C   LIG d   1      -0.505  56.501 116.680  0.00  0.00    -0.047 C 
ATOM      6  C   LIG d   1      -0.801  57.170 118.042  0.00  0.00     0.091 C 
ENDROOT
BRANCH   1   7
ATOM      7  O   LIG d   1      -0.807  59.342 119.176  0.00  0.00    -0.368 OA
BRANCH   7   8
ATOM      8  C   LIG d   1      -2.198  59.030 119.439  0.00  0.00     0.119 C 
BRANCH   8   9
ATOM      9  C   LIG d   1      -3.047  60.178 118.859  0.00  0.00     0.028 C 
ATOM     10  C   LIG d   1      -3.698  59.806 117.516  0.00  0.00     0.006 C 
ENDBRANCH   8   9
BRANCH   8  11
ATOM     11  C   LIG d   1      -2.494  59.026 120.942  0.00  0.00     0.028 C 
ATOM     12  C   LIG d   1      -3.517  57.953 121.344  0.00  0.00     0.006 C 
ENDBRANCH   8  11
ENDBRANCH   7   8
ENDBRANCH   1   7
BRANCH   6  13
ATOM     13  N   LIG d   1      -0.289  56.373 119.187  0.00  0.00    -0.311 N 
ATOM     14  C   LIG d   1      -1.029  55.487 119.852  0.00  0.00     0.210 C 
ATOM     15  C   LIG d   1      -0.313  54.789 121.013  0.00  0.00     0.109 C 
ATOM     16  O   LIG d   1      -2.199  55.190 119.571  0.00  0.00    -0.276 OA
ATOM     17  H   LIG d   1       0.661  56.528 119.462  0.00  0.00     0.149 HD
ENDBRANCH   6  13
BRANCH   5  18
ATOM     18  N   LIG d   1      -1.189  55.205 116.511  0.00  0.00     0.381 N 
ATOM     19  H   LIG d   1      -2.135  55.356 116.223  0.00  0.00    -0.090 HD
ATOM     20  H   LIG d   1      -1.201  54.727 117.395  0.00  0.00    -0.090 HD
ATOM     21  H   LIG d   1      -0.712  54.653 115.833  0.00  0.00    -0.090 HD
ENDBRANCH   5  18
BRANCH   3  22
ATOM     22  C   LIG d   1      -0.304  59.470 114.520  0.00  0.00     0.382 C 
ATOM     23  O   LIG d   1      -1.258  60.107 114.011  0.00  0.00    -0.241 OA
ATOM     24  O   LIG d   1       0.804  59.468 113.952  0.00  0.00    -0.241 OA
ENDBRANCH   3  22
TORSDOF 7
ENDMDL
MODEL 3
REMARK VINA RESULT:      -5.6      2.490      5.970
REMARK  7 active torsions:
REMARK  status: ('A' for Active; 'I' for Inactive)
REMARK    1  A    between atoms: C_2  and  C_3 
REMARK    2  A    between atoms: C_3  and  O_6 
REMARK    3  A    between atoms: C_3  and  C_4 
REMARK    4  A    between atoms: C_7  and  O_6 
REMARK    5  A    between atoms: C_9  and  C_10 
REMARK    6  A    between atoms: N_15  and  C_14 
REMARK    7  A    between atoms: N_20  and  C_19 
REMARK       I    between atoms: C_22  and  N_20 
ROOT
ATOM      1  C   LIG d   1      -6.003  76.885 117.996  0.00  0.00     0.161 C 
ATOM      2  C   LIG d   1      -7.322  76.554 118.346  0.00  0.00     0.016 C 
ATOM      3  C   LIG d   1      -8.380  77.492 118.371  0.00  0.00     0.038 C 
ATOM      4  C   LIG d   1      -8.219  78.803 117.897  0.00  0.00     0.028 C 
ATOM      5  C   LIG d   1      -6.788  79.317 118.011  0.00  0.00    -0.047 C 
ATOM      6  C   LIG d   1      -5.832  78.285 117.369  0.00  0.00     0.091 C 
ENDROOT
BRANCH   1   7
ATOM      7  O   LIG d   1      -5.462  75.875 117.121  0.00  0.00    -0.368 OA
BRANCH   7   8
ATOM      8  C   LIG d   1      -6.341  75.405 116.070  0.00  0.00     0.119 C 
BRANCH   8   9
ATOM      9  C   LIG d   1      -6.242  73.867 116.037  0.00  0.00     0.028 C 
ATOM     10  C   LIG d   1      -7.378  73.189 116.820  0.00  0.00     0.006 C 
ENDBRANCH   8   9
BRANCH   8  11
ATOM     11  C   LIG d   1      -5.862  75.872 114.692  0.00  0.00     0.028 C 
ATOM     12  C   LIG d   1      -7.007  76.390 113.807  0.00  0.00     0.006 C 
ENDBRANCH   8  11
ENDBRANCH   7   8
ENDBRANCH   1   7
BRANCH   6  13
ATOM     13  N   LIG d   1      -4.404  78.670 117.512  0.00  0.00    -0.311 N 
ATOM     14  C   LIG d   1      -3.611  78.943 116.477  0.00  0.00     0.210 C 
ATOM     15  C   LIG d   1      -2.168  79.300 116.844  0.00  0.00     0.109 C 
ATOM     16  O   LIG d   1      -3.975  78.956 115.291  0.00  0.00    -0.276 OA
ATOM     17  H   LIG d   1      -4.034  78.715 118.441  0.00  0.00     0.149 HD
ENDBRANCH   6  13
BRANCH   5  18
ATOM     18  N   LIG d   1      -6.736  80.638 117.357  0.00  0.00     0.381 N 
ATOM     19  H   LIG d   1      -7.283  80.623 116.519  0.00  0.00    -0.090 HD
ATOM     20  H   LIG d   1      -5.783  80.840 117.108  0.00  0.00    -0.090 HD
ATOM     21  H   LIG d   1      -7.081  81.338 117.975  0.00  0.00    -0.090 HD
ENDBRANCH   5  18
BRANCH   3  22
ATOM     22  C   LIG d   1      -9.605  77.132 118.911  0.00  0.00     0.382 C 
ATOM     23  O   LIG d   1     -10.543  76.778 118.157  0.00  0.00    -0.241 OA
ATOM     24  O   LIG d   1      -9.798  77.200 120.140  0.00  0.00    -0.241 OA
ENDBRANCH   3  22
TORSDOF 7
ENDMDL
MODEL 4
REMARK VINA RESULT:      -5.5     13.082     15.548
REMARK  7 active torsions:
REMARK  status: ('A' for Active; 'I' for Inactive)
REMARK    1  A    between atoms: C_2  and  C_3 
REMARK    2  A    between atoms: C_3  and  O_6 
REMARK    3  A    between atoms: C_3  and  C_4 
REMARK    4  A    between atoms: C_7  and  O_6 
REMARK    5  A    between atoms: C_9  and  C_10 
REMARK    6  A    between atoms: N_15  and  C_14 
REMARK    7  A    between atoms: N_20  and  C_19 
REMARK       I    between atoms: C_22  and  N_20 
ROOT
ATOM      1  C   LIG d   1      -5.501  92.210 118.364  0.00  0.00     0.161 C 
ATOM      2  C   LIG d   1      -5.954  91.421 117.294  0.00  0.00     0.016 C 
ATOM      3  C   LIG d   1      -6.992  91.817 116.420  0.00  0.00     0.038 C 
ATOM      4  C   LIG d   1      -7.550  93.103 116.466  0.00  0.00     0.028 C 
ATOM      5  C   LIG d   1      -7.476  93.746 117.846  0.00  0.00    -0.047 C 
ATOM      6  C   LIG d   1      -6.021  93.662 118.362  0.00  0.00     0.091 C 
ENDROOT
BRANCH   1   7
ATOM      7  O   LIG d   1      -4.061  92.193 118.409  0.00  0.00    -0.368 OA
BRANCH   7   8
ATOM      8  C   LIG d   1      -3.461  91.191 119.266  0.00  0.00     0.119 C 
BRANCH   8   9
ATOM      9  C   LIG d   1      -2.789  91.929 120.441  0.00  0.00     0.028 C 
ATOM     10  C   LIG d   1      -2.317  93.340 120.054  0.00  0.00     0.006 C 
ENDBRANCH   8   9
BRANCH   8  11
ATOM     11  C   LIG d   1      -2.327  90.451 118.551  0.00  0.00     0.028 C 
ATOM     12  C   LIG d   1      -2.805  89.177 117.835  0.00  0.00     0.006 C 
ENDBRANCH   8  11
ENDBRANCH   7   8
ENDBRANCH   1   7
BRANCH   6  13
ATOM     13  N   LIG d   1      -5.878  94.194 119.743  0.00  0.00    -0.311 N 
ATOM     14  C   LIG d   1      -5.474  95.434 120.013  0.00  0.00     0.210 C 
ATOM     15  C   LIG d   1      -5.375  95.771 121.504  0.00  0.00     0.109 C 
ATOM     16  O   LIG d   1      -5.219  96.296 119.159  0.00  0.00    -0.276 OA
ATOM     17  H   LIG d   1      -6.094  93.570 120.496  0.00  0.00     0.149 HD
ENDBRANCH   6  13
BRANCH   5  18
ATOM     18  N   LIG d   1      -7.965  95.132 117.719  0.00  0.00     0.381 N 
ATOM     19  H   LIG d   1      -8.873  95.210 118.133  0.00  0.00    -0.090 HD
ATOM     20  H   LIG d   1      -8.042  95.362 116.744  0.00  0.00    -0.090 HD
ATOM     21  H   LIG d   1      -7.334  95.759 118.167  0.00  0.00    -0.090 HD
ENDBRANCH   5  18
BRANCH   3  22
ATOM     22  C   LIG d   1      -7.511  90.906 115.512  0.00  0.00     0.382 C 
ATOM     23  O   LIG d   1      -8.570  91.172 114.893  0.00  0.00    -0.241 OA
ATOM     24  O   LIG d   1      -6.958  89.804 115.336  0.00  0.00    -0.241 OA
ENDBRANCH   3  22
TORSDOF 7
ENDMDL
MODEL 5
REMARK VINA RESULT:      -5.4     14.118     16.266
REMARK  7 active torsions:
REMARK  status: ('A' for Active; 'I' for Inactive)
REMARK    1  A    between atoms: C_2  and  C_3 
REMARK    2  A    between atoms: C_3  and  O_6 
REMARK    3  A    between atoms: C_3  and  C_4 
REMARK    4  A    between atoms: C_7  and  O_6 
REMARK    5  A    between atoms: C_9  and  C_10 
REMARK    6  A    between atoms: N_15  and  C_14 
REMARK    7  A    between atoms: N_20  and  C_19 
REMARK       I    between atoms: C_22  and  N_20 
ROOT
ATOM      1  C   LIG d   1      -7.564  94.015 117.805  0.00  0.00     0.161 C 
ATOM      2  C   LIG d   1      -7.915  93.377 116.604  0.00  0.00     0.016 C 
ATOM      3  C   LIG d   1      -7.225  92.257 116.087  0.00  0.00     0.038 C 
ATOM      4  C   LIG d   1      -6.224  91.601 116.818  0.00  0.00     0.028 C 
ATOM      5  C   LIG d   1      -5.499  92.510 117.803  0.00  0.00    -0.047 C 
ATOM      6  C   LIG d   1      -6.545  93.245 118.672  0.00  0.00     0.091 C 
ENDROOT
BRANCH   1   7
ATOM      7  O   LIG d   1      -8.751  94.307 118.569  0.00  0.00    -0.368 OA
BRANCH   7   8
ATOM      8  C   LIG d   1      -9.233  95.671 118.501  0.00  0.00     0.119 C 
BRANCH   8   9
ATOM      9  C   LIG d   1      -8.015  96.580 118.243  0.00  0.00     0.028 C 
ATOM     10  C   LIG d   1      -7.723  97.519 119.425  0.00  0.00     0.006 C 
ENDBRANCH   8   9
BRANCH   8  11
ATOM     11  C   LIG d   1      -9.802  96.129 119.847  0.00  0.00     0.028 C 
ATOM     12  C   LIG d   1     -10.386  94.970 120.672  0.00  0.00     0.006 C 
ENDBRANCH   8  11
ENDBRANCH   7   8
ENDBRANCH   1   7
BRANCH   6  13
ATOM     13  N   LIG d   1      -5.923  94.219 119.606  0.00  0.00    -0.311 N 
ATOM     14  C   LIG d   1      -6.286  94.346 120.882  0.00  0.00     0.210 C 
ATOM     15  C   LIG d   1      -5.531  95.424 121.665  0.00  0.00     0.109 C 
ATOM     16  O   LIG d   1      -7.139  93.645 121.447  0.00  0.00    -0.276 OA
ATOM     17  H   LIG d   1      -5.200  94.806 119.239  0.00  0.00     0.149 HD
ENDBRANCH   6  13
BRANCH   5  18
ATOM     18  N   LIG d   1      -4.580  91.669 118.593  0.00  0.00     0.381 N 
ATOM     19  H   LIG d   1      -3.664  91.696 118.190  0.00  0.00    -0.090 HD
ATOM     20  H   LIG d   1      -4.907  90.719 118.569  0.00  0.00    -0.090 HD
ATOM     21  H   LIG d   1      -4.546  91.993 119.535  0.00  0.00    -0.090 HD
ENDBRANCH   5  18
BRANCH   3  22
ATOM     22  C   LIG d   1      -7.509  91.806 114.806  0.00  0.00     0.382 C 
ATOM     23  O   LIG d   1      -6.857  92.247 113.828  0.00  0.00    -0.241 OA
ATOM     24  O   LIG d   1      -8.437  90.999 114.612  0.00  0.00    -0.241 OA
ENDBRANCH   3  22
TORSDOF 7
ENDMDL
MODEL 6
REMARK VINA RESULT:      -5.3      4.198      6.303
REMARK  7 active torsions:
REMARK  status: ('A' for Active; 'I' for Inactive)
REMARK    1  A    between atoms: C_2  and  C_3 
REMARK    2  A    between atoms: C_3  and  O_6 
REMARK    3  A    between atoms: C_3  and  C_4 
REMARK    4  A    between atoms: C_7  and  O_6 
REMARK    5  A    between atoms: C_9  and  C_10 
REMARK    6  A    between atoms: N_15  and  C_14 
REMARK    7  A    between atoms: N_20  and  C_19 
REMARK       I    between atoms: C_22  and  N_20 
ROOT
ATOM      1  C   LIG d   1      -3.179  77.298 116.116  0.00  0.00     0.161 C 
ATOM      2  C   LIG d   1      -3.301  78.164 115.017  0.00  0.00     0.016 C 
ATOM      3  C   LIG d   1      -2.303  78.309 114.025  0.00  0.00     0.038 C 
ATOM      4  C   LIG d   1      -1.173  77.479 113.985  0.00  0.00     0.028 C 
ATOM      5  C   LIG d   1      -0.766  76.941 115.353  0.00  0.00    -0.047 C 
ATOM      6  C   LIG d   1      -2.002  76.304 116.028  0.00  0.00     0.091 C 
ENDROOT
BRANCH   1   7
ATOM      7  O   LIG d   1      -4.418  76.590 116.320  0.00  0.00    -0.368 OA
BRANCH   7   8
ATOM      8  C   LIG d   1      -5.532  77.003 115.490  0.00  0.00     0.119 C 
BRANCH   8   9
ATOM      9  C   LIG d   1      -6.654  77.487 116.429  0.00  0.00     0.028 C 
ATOM     10  C   LIG d   1      -7.829  76.497 116.498  0.00  0.00     0.006 C 
ENDBRANCH   8   9
BRANCH   8  11
ATOM     11  C   LIG d   1      -6.126  75.817 114.726  0.00  0.00     0.028 C 
ATOM     12  C   LIG d   1      -5.232  74.568 114.774  0.00  0.00     0.006 C 
ENDBRANCH   8  11
ENDBRANCH   7   8
ENDBRANCH   1   7
BRANCH   6  13
ATOM     13  N   LIG d   1      -1.712  75.827 117.406  0.00  0.00    -0.311 N 
ATOM     14  C   LIG d   1      -1.219  74.620 117.676  0.00  0.00     0.210 C 
ATOM     15  C   LIG d   1      -1.013  74.323 119.164  0.00  0.00     0.109 C 
ATOM     16  O   LIG d   1      -0.902  73.778 116.822  0.00  0.00    -0.276 OA
ATOM     17  H   LIG d   1      -1.910  76.458 118.158  0.00  0.00     0.149 HD
ENDBRANCH   6  13
BRANCH   5  18
ATOM     18  N   LIG d   1       0.338  75.985 115.146  0.00  0.00     0.381 N 
ATOM     19  H   LIG d   1       0.046  75.262 114.519  0.00  0.00    -0.090 HD
ATOM     20  H   LIG d   1       0.571  75.563 116.027  0.00  0.00    -0.090 HD
ATOM     21  H   LIG d   1       1.132  76.457 114.775  0.00  0.00    -0.090 HD
ENDBRANCH   5  18
BRANCH   3  22
ATOM     22  C   LIG d   1      -2.412  79.320 113.083  0.00  0.00     0.382 C 
ATOM     23  O   LIG d   1      -3.001  80.388 113.375  0.00  0.00    -0.241 OA
ATOM     24  O   LIG d   1      -1.968  79.160 111.930  0.00  0.00    -0.241 OA
ENDBRANCH   3  22
TORSDOF 7
ENDMDL
MODEL 7
REMARK VINA RESULT:      -5.3      2.374      4.539
REMARK  7 active torsions:
REMARK  status: ('A' for Active; 'I' for Inactive)
REMARK    1  A    between atoms: C_2  and  C_3 
REMARK    2  A    between atoms: C_3  and  O_6 
REMARK    3  A    between atoms: C_3  and  C_4 
REMARK    4  A    between atoms: C_7  and  O_6 
REMARK    5  A    between atoms: C_9  and  C_10 
REMARK    6  A    between atoms: N_15  and  C_14 
REMARK    7  A    between atoms: N_20  and  C_19 
REMARK       I    between atoms: C_22  and  N_20 
ROOT
ATOM      1  C   LIG d   1      -6.722  77.187 116.846  0.00  0.00     0.161 C 
ATOM      2  C   LIG d   1      -8.069  76.956 117.171  0.00  0.00     0.016 C 
ATOM      3  C   LIG d   1      -8.667  75.675 117.146  0.00  0.00     0.038 C 
ATOM      4  C   LIG d   1      -7.914  74.509 116.939  0.00  0.00     0.028 C 
ATOM      5  C   LIG d   1      -6.655  74.741 116.111  0.00  0.00    -0.047 C 
ATOM      6  C   LIG d   1      -5.858  75.914 116.726  0.00  0.00     0.091 C 
ENDROOT
BRANCH   1   7
ATOM      7  O   LIG d   1      -6.140  78.100 117.797  0.00  0.00    -0.368 OA
BRANCH   7   8
ATOM      8  C   LIG d   1      -5.768  79.403 117.284  0.00  0.00     0.119 C 
BRANCH   8   9
ATOM      9  C   LIG d   1      -4.526  79.872 118.067  0.00  0.00     0.028 C 
ATOM     10  C   LIG d   1      -3.224  79.260 117.521  0.00  0.00     0.006 C 
ENDBRANCH   8   9
BRANCH   8  11
ATOM     11  C   LIG d   1      -6.850  80.447 117.579  0.00  0.00     0.028 C 
ATOM     12  C   LIG d   1      -6.513  81.328 118.792  0.00  0.00     0.006 C 
ENDBRANCH   8  11
ENDBRANCH   7   8
ENDBRANCH   1   7
BRANCH   6  13
ATOM     13  N   LIG d   1      -4.654  76.262 115.928  0.00  0.00    -0.311 N 
ATOM     14  C   LIG d   1      -3.450  75.738 116.151  0.00  0.00     0.210 C 
ATOM     15  C   LIG d   1      -2.340  76.248 115.226  0.00  0.00     0.109 C 
ATOM     16  O   LIG d   1      -3.201  74.876 117.008  0.00  0.00    -0.276 OA
ATOM     17  H   LIG d   1      -4.771  76.930 115.192  0.00  0.00     0.149 HD
ENDBRANCH   6  13
BRANCH   5  18
ATOM     18  N   LIG d   1      -5.896  73.476 116.090  0.00  0.00     0.381 N 
ATOM     19  H   LIG d   1      -6.385  72.797 115.541  0.00  0.00    -0.090 HD
ATOM     20  H   LIG d   1      -5.821  73.126 117.029  0.00  0.00    -0.090 HD
ATOM     21  H   LIG d   1      -4.988  73.629 115.711  0.00  0.00    -0.090 HD
ENDBRANCH   5  18
BRANCH   3  22
ATOM     22  C   LIG d   1     -10.041  75.555 117.290  0.00  0.00     0.382 C 
ATOM     23  O   LIG d   1     -10.680  76.416 117.940  0.00  0.00    -0.241 OA
ATOM     24  O   LIG d   1     -10.642  74.572 116.816  0.00  0.00    -0.241 OA
ENDBRANCH   3  22
TORSDOF 7
ENDMDL
MODEL 8
REMARK VINA RESULT:      -5.3     13.760     15.761
REMARK  7 active torsions:
REMARK  status: ('A' for Active; 'I' for Inactive)
REMARK    1  A    between atoms: C_2  and  C_3 
REMARK    2  A    between atoms: C_3  and  O_6 
REMARK    3  A    between atoms: C_3  and  C_4 
REMARK    4  A    between atoms: C_7  and  O_6 
REMARK    5  A    between atoms: C_9  and  C_10 
REMARK    6  A    between atoms: N_15  and  C_14 
REMARK    7  A    between atoms: N_20  and  C_19 
REMARK       I    between atoms: C_22  and  N_20 
ROOT
ATOM      1  C   LIG d   1      -5.786  92.890 118.093  0.00  0.00     0.161 C 
ATOM      2  C   LIG d   1      -5.703  91.990 117.017  0.00  0.00     0.016 C 
ATOM      3  C   LIG d   1      -6.718  91.845 116.044  0.00  0.00     0.038 C 
ATOM      4  C   LIG d   1      -7.826  92.704 115.994  0.00  0.00     0.028 C 
ATOM      5  C   LIG d   1      -8.199  93.290 117.352  0.00  0.00    -0.047 C 
ATOM      6  C   LIG d   1      -6.937  93.913 117.993  0.00  0.00     0.091 C 
ENDROOT
BRANCH   1   7
ATOM      7  O   LIG d   1      -4.526  93.569 118.261  0.00  0.00    -0.368 OA
BRANCH   7   8
ATOM      8  C   LIG d   1      -3.749  93.192 119.425  0.00  0.00     0.119 C 
BRANCH   8   9
ATOM      9  C   LIG d   1      -2.579  92.317 118.936  0.00  0.00     0.028 C 
ATOM     10  C   LIG d   1      -1.209  92.898 119.325  0.00  0.00     0.006 C 
ENDBRANCH   8   9
BRANCH   8  11
ATOM     11  C   LIG d   1      -4.558  92.297 120.369  0.00  0.00     0.028 C 
ATOM     12  C   LIG d   1      -4.836  92.961 121.726  0.00  0.00     0.006 C 
ENDBRANCH   8  11
ENDBRANCH   7   8
ENDBRANCH   1   7
BRANCH   6  13
ATOM     13  N   LIG d   1      -7.195  94.435 119.360  0.00  0.00    -0.311 N 
ATOM     14  C   LIG d   1      -6.953  95.694 119.722  0.00  0.00     0.210 C 
ATOM     15  C   LIG d   1      -7.272  96.019 121.184  0.00  0.00     0.109 C 
ATOM     16  O   LIG d   1      -6.536  96.580 118.962  0.00  0.00    -0.276 OA
ATOM     17  H   LIG d   1      -7.564  93.791 120.032  0.00  0.00     0.149 HD
ENDBRANCH   6  13
BRANCH   5  18
ATOM     18  N   LIG d   1      -9.279  94.270 117.132  0.00  0.00     0.381 N 
ATOM     19  H   LIG d   1     -10.166  93.841 117.306  0.00  0.00    -0.090 HD
ATOM     20  H   LIG d   1      -9.256  94.570 116.173  0.00  0.00    -0.090 HD
ATOM     21  H   LIG d   1      -9.158  95.053 117.736  0.00  0.00    -0.090 HD
ENDBRANCH   5  18
BRANCH   3  22
ATOM     22  C   LIG d   1      -6.649  90.806 115.129  0.00  0.00     0.382 C 
ATOM     23  O   LIG d   1      -5.855  89.853 115.321  0.00  0.00    -0.241 OA
ATOM     24  O   LIG d   1      -7.338  90.830 114.092  0.00  0.00    -0.241 OA
ENDBRANCH   3  22
TORSDOF 7
ENDMDL
MODEL 9
REMARK VINA RESULT:      -5.1      1.920      4.472
REMARK  7 active torsions:
REMARK  status: ('A' for Active; 'I' for Inactive)
REMARK    1  A    between atoms: C_2  and  C_3 
REMARK    2  A    between atoms: C_3  and  O_6 
REMARK    3  A    between atoms: C_3  and  C_4 
REMARK    4  A    between atoms: C_7  and  O_6 
REMARK    5  A    between atoms: C_9  and  C_10 
REMARK    6  A    between atoms: N_15  and  C_14 
REMARK    7  A    between atoms: N_20  and  C_19 
REMARK       I    between atoms: C_22  and  N_20 
ROOT
ATOM      1  C   LIG d   1      -6.910  77.247 116.852  0.00  0.00     0.161 C 
ATOM      2  C   LIG d   1      -8.246  76.948 117.167  0.00  0.00     0.016 C 
ATOM      3  C   LIG d   1      -8.774  75.637 117.155  0.00  0.00     0.038 C 
ATOM      4  C   LIG d   1      -7.957  74.511 116.973  0.00  0.00     0.028 C 
ATOM      5  C   LIG d   1      -6.703  74.798 116.154  0.00  0.00    -0.047 C 
ATOM      6  C   LIG d   1      -5.978  76.022 116.759  0.00  0.00     0.091 C 
ENDROOT
BRANCH   1   7
ATOM      7  O   LIG d   1      -6.388  78.204 117.795  0.00  0.00    -0.368 OA
BRANCH   7   8
ATOM      8  C   LIG d   1      -7.308  79.235 118.233  0.00  0.00     0.119 C 
BRANCH   8   9
ATOM      9  C   LIG d   1      -6.883  80.552 117.554  0.00  0.00     0.028 C 
ATOM     10  C   LIG d   1      -7.251  81.788 118.391  0.00  0.00     0.006 C 
ENDBRANCH   8   9
BRANCH   8  11
ATOM     11  C   LIG d   1      -7.180  79.494 119.737  0.00  0.00     0.028 C 
ATOM     12  C   LIG d   1      -8.232  78.738 120.563  0.00  0.00     0.006 C 
ENDBRANCH   8  11
ENDBRANCH   7   8
ENDBRANCH   1   7
BRANCH   6  13
ATOM     13  N   LIG d   1      -4.785  76.422 115.968  0.00  0.00    -0.311 N 
ATOM     14  C   LIG d   1      -4.840  76.765 114.682  0.00  0.00     0.210 C 
ATOM     15  C   LIG d   1      -3.491  77.125 114.051  0.00  0.00     0.109 C 
ATOM     16  O   LIG d   1      -5.882  76.836 114.013  0.00  0.00    -0.276 OA
ATOM     17  H   LIG d   1      -3.903  76.423 116.441  0.00  0.00     0.149 HD
ENDBRANCH   6  13
BRANCH   5  18
ATOM     18  N   LIG d   1      -5.877  73.576 116.159  0.00  0.00     0.381 N 
ATOM     19  H   LIG d   1      -5.030  73.737 115.653  0.00  0.00    -0.090 HD
ATOM     20  H   LIG d   1      -6.384  72.840 115.699  0.00  0.00    -0.090 HD
ATOM     21  H   LIG d   1      -5.667  73.310 117.096  0.00  0.00    -0.090 HD
ENDBRANCH   5  18
BRANCH   3  22
ATOM     22  C   LIG d   1     -10.140  75.444 117.287  0.00  0.00     0.382 C 
ATOM     23  O   LIG d   1     -10.684  74.437 116.774  0.00  0.00    -0.241 OA
ATOM     24  O   LIG d   1     -10.843  76.288 117.875  0.00  0.00    -0.241 OA
ENDBRANCH   3  22
TORSDOF 7
ENDMDL
