MODEL 1
REMARK VINA RESULT:      -5.8      0.000      0.000
REMARK  7 active torsions:
REMARK  status: ('A' for Active; 'I' for Inactive)
REMARK    1  A    between atoms: C_2  and  C_3 
REMARK    2  A    between atoms: C_3  and  O_6 
REMARK    3  A    between atoms: C_3  and  C_4 
REMARK    4  A    between atoms: C_7  and  O_6 
REMARK    5  A    between atoms: C_9  and  C_10 
REMARK    6  A    between atoms: N_15  and  C_14 
REMARK    7  A    between atoms: N_20  and  C_19 
REMARK       I    between atoms: C_22  and  N_20 
ROOT
ATOM      1  C   LIG d   1      -5.245  75.309 116.030  0.00  0.00     0.161 C 
ATOM      2  C   LIG d   1      -4.050  74.634 115.727  0.00  0.00     0.016 C 
ATOM      3  C   LIG d   1      -2.846  74.824 116.443  0.00  0.00     0.038 C 
ATOM      4  C   LIG d   1      -2.794  75.593 117.615  0.00  0.00     0.028 C 
ATOM      5  C   LIG d   1      -3.851  76.691 117.667  0.00  0.00    -0.047 C 
ATOM      6  C   LIG d   1      -5.235  76.068 117.374  0.00  0.00     0.091 C 
ENDROOT
BRANCH   1   7
ATOM      7  O   LIG d   1      -6.352  74.387 115.984  0.00  0.00    -0.368 OA
BRANCH   7   8
ATOM      8  C   LIG d   1      -6.425  73.423 117.063  0.00  0.00     0.119 C 
BRANCH   8   9
ATOM      9  C   LIG d   1      -6.626  72.033 116.429  0.00  0.00     0.028 C 
ATOM     10  C   LIG d   1      -8.009  71.439 116.744  0.00  0.00     0.006 C 
ENDBRANCH   8   9
BRANCH   8  11
ATOM     11  C   LIG d   1      -7.663  73.655 117.934  0.00  0.00     0.028 C 
ATOM     12  C   LIG d   1      -7.348  73.617 119.438  0.00  0.00     0.006 C 
ENDBRANCH   8  11
ENDBRANCH   7   8
ENDBRANCH   1   7
BRANCH   6  13
ATOM     13  N   LIG d   1      -6.316  77.087 117.322  0.00  0.00    -0.311 N 
ATOM     14  C   LIG d   1      -7.045  77.437 118.380  0.00  0.00     0.210 C 
ATOM     15  C   LIG d   1      -8.121  78.492 118.104  0.00  0.00     0.109 C 
ATOM     16  O   LIG d   1      -6.881  76.998 119.528  0.00  0.00    -0.276 OA
ATOM     17  H   LIG d   1      -6.495  77.517 116.436  0.00  0.00     0.149 HD
ENDBRANCH   6  13
BRANCH   5  18
ATOM     18  N   LIG d   1      -3.772  77.324 118.997  0.00  0.00     0.381 N 
ATOM     19  H   LIG d   1      -4.008  76.656 119.704  0.00  0.00    -0.090 HD
ATOM     20  H   LIG d   1      -4.437  78.076 119.039  0.00  0.00    -0.090 HD
ATOM     21  H   LIG d   1      -2.853  77.674 119.154  0.00  0.00    -0.090 HD
ENDBRANCH   5  18
BRANCH   3  22
ATOM     22  C   LIG d   1      -1.668  74.271 115.965  0.00  0.00     0.382 C 
ATOM     23  O   LIG d   1      -1.337  74.441 114.767  0.00  0.00    -0.241 OA
ATOM     24  O   LIG d   1      -0.954  73.568 116.705  0.00  0.00    -0.241 OA
ENDBRANCH   3  22
TORSDOF 7
ENDMDL
MODEL 2
REMARK VINA RESULT:      -5.6     15.937     17.742
REMARK  7 active torsions:
REMARK  status: ('A' for Active; 'I' for Inactive)
REMARK    1  A    between atoms: C_2  and  C_3 
REMARK    2  A    between atoms: C_3  and  O_6 
REMARK    3  A    between atoms: C_3  and  C_4 
REMARK    4  A    between atoms: C_7  and  O_6 
REMARK    5  A    between atoms: C_9  and  C_10 
REMARK    6  A    between atoms: N_15  and  C_14 
REMARK    7  A    between atoms: N_20  and  C_19 
REMARK       I    between atoms: C_22  and  N_20 
ROOT
ATOM      1  C   LIG d   1      -0.528  59.060 119.696  0.00  0.00     0.161 C 
ATOM      2  C   LIG d   1      -1.916  59.215 119.542  0.00  0.00     0.016 C 
ATOM      3  C   LIG d   1      -2.569  59.187 118.288  0.00  0.00     0.038 C 
ATOM      4  C   LIG d   1      -1.891  58.849 117.107  0.00  0.00     0.028 C 
ATOM      5  C   LIG d   1      -0.403  59.181 117.146  0.00  0.00    -0.047 C 
ATOM      6  C   LIG d   1       0.212  58.579 118.430  0.00  0.00     0.091 C 
ENDROOT
BRANCH   1   7
ATOM      7  O   LIG d   1      -0.255  58.177 120.802  0.00  0.00    -0.368 OA
BRANCH   7   8
ATOM      8  C   LIG d   1       0.176  58.812 122.031  0.00  0.00     0.119 C 
BRANCH   8   9
ATOM      9  C   LIG d   1      -1.088  59.138 122.851  0.00  0.00     0.028 C 
ATOM     10  C   LIG d   1      -1.324  60.652 122.988  0.00  0.00     0.006 C 
ENDBRANCH   8   9
BRANCH   8  11
ATOM     11  C   LIG d   1       0.842  60.163 121.758  0.00  0.00     0.028 C 
ATOM     12  C   LIG d   1       2.368  60.121 121.932  0.00  0.00     0.006 C 
ENDBRANCH   8  11
ENDBRANCH   7   8
ENDBRANCH   1   7
BRANCH   6  13
ATOM     13  N   LIG d   1       1.648  58.930 118.589  0.00  0.00    -0.311 N 
ATOM     14  C   LIG d   1       2.632  58.034 118.532  0.00  0.00     0.210 C 
ATOM     15  C   LIG d   1       4.038  58.604 118.742  0.00  0.00     0.109 C 
ATOM     16  O   LIG d   1       2.476  56.827 118.297  0.00  0.00    -0.276 OA
ATOM     17  H   LIG d   1       1.867  59.893 118.752  0.00  0.00     0.149 HD
ENDBRANCH   6  13
BRANCH   5  18
ATOM     18  N   LIG d   1       0.204  58.652 115.911  0.00  0.00     0.381 N 
ATOM     19  H   LIG d   1       1.194  58.794 115.932  0.00  0.00    -0.090 HD
ATOM     20  H   LIG d   1      -0.169  59.154 115.124  0.00  0.00    -0.090 HD
ATOM     21  H   LIG d   1       0.003  57.681 115.821  0.00  0.00    -0.090 HD
ENDBRANCH   5  18
BRANCH   3  22
ATOM     22  C   LIG d   1      -3.907  59.539 118.202  0.00  0.00     0.382 C 
ATOM     23  O   LIG d   1      -4.746  59.004 118.966  0.00  0.00    -0.241 OA
ATOM     24  O   LIG d   1      -4.292  60.351 117.340  0.00  0.00    -0.241 OA
ENDBRANCH   3  22
TORSDOF 7
ENDMDL
MODEL 3
REMARK VINA RESULT:      -5.6     15.495     18.563
REMARK  7 active torsions:
REMARK  status: ('A' for Active; 'I' for Inactive)
REMARK    1  A    between atoms: C_2  and  C_3 
REMARK    2  A    between atoms: C_3  and  O_6 
REMARK    3  A    between atoms: C_3  and  C_4 
REMARK    4  A    between atoms: C_7  and  O_6 
REMARK    5  A    between atoms: C_9  and  C_10 
REMARK    6  A    between atoms: N_15  and  C_14 
REMARK    7  A    between atoms: N_20  and  C_19 
REMARK       I    between atoms: C_22  and  N_20 
ROOT
ATOM      1  C   LIG d   1      -6.215  93.200 117.459  0.00  0.00     0.161 C 
ATOM      2  C   LIG d   1      -6.729  92.033 116.869  0.00  0.00     0.016 C 
ATOM      3  C   LIG d   1      -5.917  90.961 116.430  0.00  0.00     0.038 C 
ATOM      4  C   LIG d   1      -4.539  90.920 116.689  0.00  0.00     0.028 C 
ATOM      5  C   LIG d   1      -3.908  92.301 116.830  0.00  0.00    -0.047 C 
ATOM      6  C   LIG d   1      -4.725  93.125 117.851  0.00  0.00     0.091 C 
ENDROOT
BRANCH   1   7
ATOM      7  O   LIG d   1      -7.016  93.564 118.601  0.00  0.00    -0.368 OA
BRANCH   7   8
ATOM      8  C   LIG d   1      -8.121  94.465 118.343  0.00  0.00     0.119 C 
BRANCH   8   9
ATOM      9  C   LIG d   1      -7.534  95.878 118.162  0.00  0.00     0.028 C 
ATOM     10  C   LIG d   1      -7.831  96.795 119.360  0.00  0.00     0.006 C 
ENDBRANCH   8   9
BRANCH   8  11
ATOM     11  C   LIG d   1      -9.052  94.565 119.555  0.00  0.00     0.028 C 
ATOM     12  C   LIG d   1      -8.889  93.389 120.531  0.00  0.00     0.006 C 
ENDBRANCH   8  11
ENDBRANCH   7   8
ENDBRANCH   1   7
BRANCH   6  13
ATOM     13  N   LIG d   1      -4.224  94.518 117.985  0.00  0.00    -0.311 N 
ATOM     14  C   LIG d   1      -4.035  95.119 119.159  0.00  0.00     0.210 C 
ATOM     15  C   LIG d   1      -3.532  96.563 119.072  0.00  0.00     0.109 C 
ATOM     16  O   LIG d   1      -4.205  94.582 120.264  0.00  0.00    -0.276 OA
ATOM     17  H   LIG d   1      -4.031  95.017 117.139  0.00  0.00     0.149 HD
ENDBRANCH   6  13
BRANCH   5  18
ATOM     18  N   LIG d   1      -2.502  92.109 117.234  0.00  0.00     0.381 N 
ATOM     19  H   LIG d   1      -2.064  92.998 117.368  0.00  0.00    -0.090 HD
ATOM     20  H   LIG d   1      -2.016  91.625 116.500  0.00  0.00    -0.090 HD
ATOM     21  H   LIG d   1      -2.459  91.579 118.077  0.00  0.00    -0.090 HD
ENDBRANCH   5  18
BRANCH   3  22
ATOM     22  C   LIG d   1      -6.479  89.934 115.687  0.00  0.00     0.382 C 
ATOM     23  O   LIG d   1      -7.697  89.970 115.387  0.00  0.00    -0.241 OA
ATOM     24  O   LIG d   1      -5.793  88.950 115.350  0.00  0.00    -0.241 OA
ENDBRANCH   3  22
TORSDOF 7
ENDMDL
MODEL 4
REMARK VINA RESULT:      -5.4     14.699     17.211
REMARK  7 active torsions:
REMARK  status: ('A' for Active; 'I' for Inactive)
REMARK    1  A    between atoms: C_2  and  C_3 
REMARK    2  A    between atoms: C_3  and  O_6 
REMARK    3  A    between atoms: C_3  and  C_4 
REMARK    4  A    between atoms: C_7  and  O_6 
REMARK    5  A    between atoms: C_9  and  C_10 
REMARK    6  A    between atoms: N_15  and  C_14 
REMARK    7  A    between atoms: N_20  and  C_19 
REMARK       I    between atoms: C_22  and  N_20 
ROOT
ATOM      1  C   LIG d   1      -3.316  92.237 117.220  0.00  0.00     0.161 C 
ATOM      2  C   LIG d   1      -4.535  92.875 116.940  0.00  0.00     0.016 C 
ATOM      3  C   LIG d   1      -5.595  92.254 116.238  0.00  0.00     0.038 C 
ATOM      4  C   LIG d   1      -5.563  90.893 115.900  0.00  0.00     0.028 C 
ATOM      5  C   LIG d   1      -4.151  90.348 115.716  0.00  0.00    -0.047 C 
ATOM      6  C   LIG d   1      -3.305  90.717 116.956  0.00  0.00     0.091 C 
ENDROOT
BRANCH   1   7
ATOM      7  O   LIG d   1      -2.921  92.512 118.579  0.00  0.00    -0.368 OA
BRANCH   7   8
ATOM      8  C   LIG d   1      -3.510  91.666 119.597  0.00  0.00     0.119 C 
BRANCH   8   9
ATOM      9  C   LIG d   1      -4.369  92.566 120.506  0.00  0.00     0.028 C 
ATOM     10  C   LIG d   1      -5.876  92.309 120.331  0.00  0.00     0.006 C 
ENDBRANCH   8   9
BRANCH   8  11
ATOM     11  C   LIG d   1      -2.437  91.070 120.514  0.00  0.00     0.028 C 
ATOM     12  C   LIG d   1      -1.024  91.575 120.185  0.00  0.00     0.006 C 
ENDBRANCH   8  11
ENDBRANCH   7   8
ENDBRANCH   1   7
BRANCH   6  13
ATOM     13  N   LIG d   1      -1.887  90.293 116.822  0.00  0.00    -0.311 N 
ATOM     14  C   LIG d   1      -1.407  89.164 117.339  0.00  0.00     0.210 C 
ATOM     15  C   LIG d   1       0.088  88.928 117.101  0.00  0.00     0.109 C 
ATOM     16  O   LIG d   1      -2.084  88.320 117.946  0.00  0.00    -0.276 OA
ATOM     17  H   LIG d   1      -1.275  90.904 116.318  0.00  0.00     0.149 HD
ENDBRANCH   6  13
BRANCH   5  18
ATOM     18  N   LIG d   1      -4.260  88.892 115.503  0.00  0.00     0.381 N 
ATOM     19  H   LIG d   1      -3.528  88.422 115.997  0.00  0.00    -0.090 HD
ATOM     20  H   LIG d   1      -4.155  88.698 114.523  0.00  0.00    -0.090 HD
ATOM     21  H   LIG d   1      -5.147  88.567 115.820  0.00  0.00    -0.090 HD
ENDBRANCH   5  18
BRANCH   3  22
ATOM     22  C   LIG d   1      -6.686  93.009 115.834  0.00  0.00     0.382 C 
ATOM     23  O   LIG d   1      -7.029  93.017 114.627  0.00  0.00    -0.241 OA
ATOM     24  O   LIG d   1      -7.303  93.716 116.652  0.00  0.00    -0.241 OA
ENDBRANCH   3  22
TORSDOF 7
ENDMDL
MODEL 5
REMARK VINA RESULT:      -5.4      1.439      2.197
REMARK  7 active torsions:
REMARK  status: ('A' for Active; 'I' for Inactive)
REMARK    1  A    between atoms: C_2  and  C_3 
REMARK    2  A    between atoms: C_3  and  O_6 
REMARK    3  A    between atoms: C_3  and  C_4 
REMARK    4  A    between atoms: C_7  and  O_6 
REMARK    5  A    between atoms: C_9  and  C_10 
REMARK    6  A    between atoms: N_15  and  C_14 
REMARK    7  A    between atoms: N_20  and  C_19 
REMARK       I    between atoms: C_22  and  N_20 
ROOT
ATOM      1  C   LIG d   1      -4.932  75.907 117.398  0.00  0.00     0.161 C 
ATOM      2  C   LIG d   1      -4.032  75.120 116.661  0.00  0.00     0.016 C 
ATOM      3  C   LIG d   1      -2.635  75.126 116.878  0.00  0.00     0.038 C 
ATOM      4  C   LIG d   1      -2.055  75.811 117.956  0.00  0.00     0.028 C 
ATOM      5  C   LIG d   1      -2.867  77.017 118.414  0.00  0.00    -0.047 C 
ATOM      6  C   LIG d   1      -4.330  76.577 118.651  0.00  0.00     0.091 C 
ENDROOT
BRANCH   1   7
ATOM      7  O   LIG d   1      -6.088  75.123 117.755  0.00  0.00    -0.368 OA
BRANCH   7   8
ATOM      8  C   LIG d   1      -6.861  74.589 116.652  0.00  0.00     0.119 C 
BRANCH   8   9
ATOM      9  C   LIG d   1      -8.065  75.527 116.435  0.00  0.00     0.028 C 
ATOM     10  C   LIG d   1      -8.592  76.120 117.752  0.00  0.00     0.006 C 
ENDBRANCH   8   9
BRANCH   8  11
ATOM     11  C   LIG d   1      -7.467  73.227 117.004  0.00  0.00     0.028 C 
ATOM     12  C   LIG d   1      -6.734  72.057 116.328  0.00  0.00     0.006 C 
ENDBRANCH   8  11
ENDBRANCH   7   8
ENDBRANCH   1   7
BRANCH   6  13
ATOM     13  N   LIG d   1      -5.212  77.715 119.020  0.00  0.00    -0.311 N 
ATOM     14  C   LIG d   1      -5.943  77.744 120.133  0.00  0.00     0.210 C 
ATOM     15  C   LIG d   1      -6.798  79.002 120.312  0.00  0.00     0.109 C 
ATOM     16  O   LIG d   1      -5.940  76.862 121.005  0.00  0.00    -0.276 OA
ATOM     17  H   LIG d   1      -5.251  78.487 118.384  0.00  0.00     0.149 HD
ENDBRANCH   6  13
BRANCH   5  18
ATOM     18  N   LIG d   1      -2.222  77.555 119.627  0.00  0.00     0.381 N 
ATOM     19  H   LIG d   1      -2.752  77.297 120.435  0.00  0.00    -0.090 HD
ATOM     20  H   LIG d   1      -2.204  78.558 119.568  0.00  0.00    -0.090 HD
ATOM     21  H   LIG d   1      -1.293  77.202 119.704  0.00  0.00    -0.090 HD
ENDBRANCH   5  18
BRANCH   3  22
ATOM     22  C   LIG d   1      -1.798  74.471 115.987  0.00  0.00     0.382 C 
ATOM     23  O   LIG d   1      -0.981  73.617 116.406  0.00  0.00    -0.241 OA
ATOM     24  O   LIG d   1      -1.819  74.757 114.775  0.00  0.00    -0.241 OA
ENDBRANCH   3  22
TORSDOF 7
ENDMDL
MODEL 6
REMARK VINA RESULT:      -5.4     15.424     17.016
REMARK  7 active torsions:
REMARK  status: ('A' for Active; 'I' for Inactive)
REMARK    1  A    between atoms: C_2  and  C_3 
REMARK    2  A    between atoms: C_3  and  O_6 
REMARK    3  A    between atoms: C_3  and  C_4 
REMARK    4  A    between atoms: C_7  and  O_6 
REMARK    5  A    between atoms: C_9  and  C_10 
REMARK    6  A    between atoms: N_15  and  C_14 
REMARK    7  A    between atoms: N_20  and  C_19 
REMARK       I    between atoms: C_22  and  N_20 
ROOT
ATOM      1  C   LIG d   1       0.047  59.441 120.356  0.00  0.00     0.161 C 
ATOM      2  C   LIG d   1       1.420  59.161 120.258  0.00  0.00     0.016 C 
ATOM      3  C   LIG d   1       2.017  58.583 119.114  0.00  0.00     0.038 C 
ATOM      4  C   LIG d   1       1.300  58.383 117.925  0.00  0.00     0.028 C 
ATOM      5  C   LIG d   1      -0.195  58.183 118.146  0.00  0.00    -0.047 C 
ATOM      6  C   LIG d   1      -0.731  59.334 119.028  0.00  0.00     0.091 C 
ENDROOT
BRANCH   1   7
ATOM      7  O   LIG d   1      -0.145  60.743 120.945  0.00  0.00    -0.368 OA
BRANCH   7   8
ATOM      8  C   LIG d   1      -0.069  60.806 122.390  0.00  0.00     0.119 C 
BRANCH   8   9
ATOM      9  C   LIG d   1      -1.496  61.046 122.919  0.00  0.00     0.028 C 
ATOM     10  C   LIG d   1      -1.550  62.161 123.978  0.00  0.00     0.006 C 
ENDBRANCH   8   9
BRANCH   8  11
ATOM     11  C   LIG d   1       0.745  62.018 122.853  0.00  0.00     0.028 C 
ATOM     12  C   LIG d   1       2.248  61.718 122.969  0.00  0.00     0.006 C 
ENDBRANCH   8  11
ENDBRANCH   7   8
ENDBRANCH   1   7
BRANCH   6  13
ATOM     13  N   LIG d   1      -2.170  59.169 119.362  0.00  0.00    -0.311 N 
ATOM     14  C   LIG d   1      -3.155  59.713 118.649  0.00  0.00     0.210 C 
ATOM     15  C   LIG d   1      -4.565  59.436 119.179  0.00  0.00     0.109 C 
ATOM     16  O   LIG d   1      -2.996  60.371 117.611  0.00  0.00    -0.276 OA
ATOM     17  H   LIG d   1      -2.391  58.623 120.172  0.00  0.00     0.149 HD
ENDBRANCH   6  13
BRANCH   5  18
ATOM     18  N   LIG d   1      -0.838  58.125 116.819  0.00  0.00     0.381 N 
ATOM     19  H   LIG d   1      -0.281  58.620 116.151  0.00  0.00    -0.090 HD
ATOM     20  H   LIG d   1      -1.736  58.571 116.873  0.00  0.00    -0.090 HD
ATOM     21  H   LIG d   1      -0.947  57.176 116.534  0.00  0.00    -0.090 HD
ENDBRANCH   5  18
BRANCH   3  22
ATOM     22  C   LIG d   1       3.337  58.160 119.167  0.00  0.00     0.382 C 
ATOM     23  O   LIG d   1       3.857  57.606 118.169  0.00  0.00    -0.241 OA
ATOM     24  O   LIG d   1       3.999  58.286 120.214  0.00  0.00    -0.241 OA
ENDBRANCH   3  22
TORSDOF 7
ENDMDL
MODEL 7
REMARK VINA RESULT:      -5.3     15.116     17.861
REMARK  7 active torsions:
REMARK  status: ('A' for Active; 'I' for Inactive)
REMARK    1  A    between atoms: C_2  and  C_3 
REMARK    2  A    between atoms: C_3  and  O_6 
REMARK    3  A    between atoms: C_3  and  C_4 
REMARK    4  A    between atoms: C_7  and  O_6 
REMARK    5  A    between atoms: C_9  and  C_10 
REMARK    6  A    between atoms: N_15  and  C_14 
REMARK    7  A    between atoms: N_20  and  C_19 
REMARK       I    between atoms: C_22  and  N_20 
ROOT
ATOM      1  C   LIG d   1      -3.913  92.018 117.554  0.00  0.00     0.161 C 
ATOM      2  C   LIG d   1      -4.106  91.008 116.597  0.00  0.00     0.016 C 
ATOM      3  C   LIG d   1      -5.373  90.664 116.073  0.00  0.00     0.038 C 
ATOM      4  C   LIG d   1      -6.523  91.414 116.362  0.00  0.00     0.028 C 
ATOM      5  C   LIG d   1      -6.461  92.124 117.710  0.00  0.00    -0.047 C 
ATOM      6  C   LIG d   1      -5.140  92.921 117.798  0.00  0.00     0.091 C 
ENDROOT
BRANCH   1   7
ATOM      7  O   LIG d   1      -2.766  92.816 117.198  0.00  0.00    -0.368 OA
BRANCH   7   8
ATOM      8  C   LIG d   1      -1.505  92.420 117.792  0.00  0.00     0.119 C 
BRANCH   8   9
ATOM      9  C   LIG d   1      -1.502  92.920 119.249  0.00  0.00     0.028 C 
ATOM     10  C   LIG d   1      -1.403  91.770 120.265  0.00  0.00     0.006 C 
ENDBRANCH   8   9
BRANCH   8  11
ATOM     11  C   LIG d   1      -0.326  93.126 117.117  0.00  0.00     0.028 C 
ATOM     12  C   LIG d   1       1.026  92.471 117.442  0.00  0.00     0.006 C 
ENDBRANCH   8  11
ENDBRANCH   7   8
ENDBRANCH   1   7
BRANCH   6  13
ATOM     13  N   LIG d   1      -4.960  93.578 119.119  0.00  0.00    -0.311 N 
ATOM     14  C   LIG d   1      -5.331  94.832 119.371  0.00  0.00     0.210 C 
ATOM     15  C   LIG d   1      -5.037  95.320 120.793  0.00  0.00     0.109 C 
ATOM     16  O   LIG d   1      -5.906  95.576 118.562  0.00  0.00    -0.276 OA
ATOM     17  H   LIG d   1      -4.531  93.036 119.843  0.00  0.00     0.149 HD
ENDBRANCH   6  13
BRANCH   5  18
ATOM     18  N   LIG d   1      -7.660  92.976 117.821  0.00  0.00     0.381 N 
ATOM     19  H   LIG d   1      -8.093  92.838 118.712  0.00  0.00    -0.090 HD
ATOM     20  H   LIG d   1      -8.315  92.710 117.107  0.00  0.00    -0.090 HD
ATOM     21  H   LIG d   1      -7.408  93.934 117.711  0.00  0.00    -0.090 HD
ENDBRANCH   5  18
BRANCH   3  22
ATOM     22  C   LIG d   1      -5.506  89.534 115.282  0.00  0.00     0.382 C 
ATOM     23  O   LIG d   1      -6.519  89.392 114.555  0.00  0.00    -0.241 OA
ATOM     24  O   LIG d   1      -4.647  88.632 115.319  0.00  0.00    -0.241 OA
ENDBRANCH   3  22
TORSDOF 7
ENDMDL
MODEL 8
REMARK VINA RESULT:      -5.1     15.042     17.714
REMARK  7 active torsions:
REMARK  status: ('A' for Active; 'I' for Inactive)
REMARK    1  A    between atoms: C_2  and  C_3 
REMARK    2  A    between atoms: C_3  and  O_6 
REMARK    3  A    between atoms: C_3  and  C_4 
REMARK    4  A    between atoms: C_7  and  O_6 
REMARK    5  A    between atoms: C_9  and  C_10 
REMARK    6  A    between atoms: N_15  and  C_14 
REMARK    7  A    between atoms: N_20  and  C_19 
REMARK       I    between atoms: C_22  and  N_20 
ROOT
ATOM      1  C   LIG d   1      -4.578  92.698 116.725  0.00  0.00     0.161 C 
ATOM      2  C   LIG d   1      -5.768  92.092 116.289  0.00  0.00     0.016 C 
ATOM      3  C   LIG d   1      -5.885  90.709 116.021  0.00  0.00     0.038 C 
ATOM      4  C   LIG d   1      -4.853  89.806 116.319  0.00  0.00     0.028 C 
ATOM      5  C   LIG d   1      -3.466  90.439 116.284  0.00  0.00    -0.047 C 
ATOM      6  C   LIG d   1      -3.474  91.712 117.161  0.00  0.00     0.091 C 
ENDROOT
BRANCH   1   7
ATOM      7  O   LIG d   1      -4.864  93.631 117.785  0.00  0.00    -0.368 OA
BRANCH   7   8
ATOM      8  C   LIG d   1      -6.246  93.704 118.214  0.00  0.00     0.119 C 
BRANCH   8   9
ATOM      9  C   LIG d   1      -6.813  95.050 117.721  0.00  0.00     0.028 C 
ATOM     10  C   LIG d   1      -6.610  96.181 118.743  0.00  0.00     0.006 C 
ENDBRANCH   8   9
BRANCH   8  11
ATOM     11  C   LIG d   1      -6.355  93.753 119.741  0.00  0.00     0.028 C 
ATOM     12  C   LIG d   1      -6.404  92.357 120.380  0.00  0.00     0.006 C 
ENDBRANCH   8  11
ENDBRANCH   7   8
ENDBRANCH   1   7
BRANCH   6  13
ATOM     13  N   LIG d   1      -2.178  92.440 117.115  0.00  0.00    -0.311 N 
ATOM     14  C   LIG d   1      -1.165  92.186 117.941  0.00  0.00     0.210 C 
ATOM     15  C   LIG d   1       0.073  93.065 117.736  0.00  0.00     0.109 C 
ATOM     16  O   LIG d   1      -1.162  91.294 118.803  0.00  0.00    -0.276 OA
ATOM     17  H   LIG d   1      -2.083  93.159 116.425  0.00  0.00     0.149 HD
ENDBRANCH   6  13
BRANCH   5  18
ATOM     18  N   LIG d   1      -2.501  89.424 116.746  0.00  0.00     0.381 N 
ATOM     19  H   LIG d   1      -1.745  89.870 117.227  0.00  0.00    -0.090 HD
ATOM     20  H   LIG d   1      -2.127  88.943 115.947  0.00  0.00    -0.090 HD
ATOM     21  H   LIG d   1      -2.953  88.775 117.352  0.00  0.00    -0.090 HD
ENDBRANCH   5  18
BRANCH   3  22
ATOM     22  C   LIG d   1      -7.032  90.221 115.413  0.00  0.00     0.382 C 
ATOM     23  O   LIG d   1      -7.631  90.915 114.556  0.00  0.00    -0.241 OA
ATOM     24  O   LIG d   1      -7.499  89.114 115.741  0.00  0.00    -0.241 OA
ENDBRANCH   3  22
TORSDOF 7
ENDMDL
MODEL 9
REMARK VINA RESULT:      -5.1      2.014      4.788
REMARK  7 active torsions:
REMARK  status: ('A' for Active; 'I' for Inactive)
REMARK    1  A    between atoms: C_2  and  C_3 
REMARK    2  A    between atoms: C_3  and  O_6 
REMARK    3  A    between atoms: C_3  and  C_4 
REMARK    4  A    between atoms: C_7  and  O_6 
REMARK    5  A    between atoms: C_9  and  C_10 
REMARK    6  A    between atoms: N_15  and  C_14 
REMARK    7  A    between atoms: N_20  and  C_19 
REMARK       I    between atoms: C_22  and  N_20 
ROOT
ATOM      1  C   LIG d   1      -5.135  75.001 117.180  0.00  0.00     0.161 C 
ATOM      2  C   LIG d   1      -5.645  73.838 116.579  0.00  0.00     0.016 C 
ATOM      3  C   LIG d   1      -6.885  73.259 116.933  0.00  0.00     0.038 C 
ATOM      4  C   LIG d   1      -7.776  73.893 117.811  0.00  0.00     0.028 C 
ATOM      5  C   LIG d   1      -7.086  74.806 118.819  0.00  0.00    -0.047 C 
ATOM      6  C   LIG d   1      -6.143  75.769 118.061  0.00  0.00     0.091 C 
ENDROOT
BRANCH   1   7
ATOM      7  O   LIG d   1      -4.587  75.873 116.170  0.00  0.00    -0.368 OA
BRANCH   7   8
ATOM      8  C   LIG d   1      -3.301  75.487 115.626  0.00  0.00     0.119 C 
BRANCH   8   9
ATOM      9  C   LIG d   1      -2.266  75.594 116.763  0.00  0.00     0.028 C 
ATOM     10  C   LIG d   1      -1.571  74.253 117.051  0.00  0.00     0.006 C 
ENDBRANCH   8   9
BRANCH   8  11
ATOM     11  C   LIG d   1      -2.831  76.476 114.555  0.00  0.00     0.028 C 
ATOM     12  C   LIG d   1      -1.557  77.233 114.962  0.00  0.00     0.006 C 
ENDBRANCH   8  11
ENDBRANCH   7   8
ENDBRANCH   1   7
BRANCH   6  13
ATOM     13  N   LIG d   1      -5.365  76.640 118.979  0.00  0.00    -0.311 N 
ATOM     14  C   LIG d   1      -5.817  77.803 119.445  0.00  0.00     0.210 C 
ATOM     15  C   LIG d   1      -4.847  78.554 120.362  0.00  0.00     0.109 C 
ATOM     16  O   LIG d   1      -6.943  78.269 119.211  0.00  0.00    -0.276 OA
ATOM     17  H   LIG d   1      -4.453  76.324 119.245  0.00  0.00     0.149 HD
ENDBRANCH   6  13
BRANCH   5  18
ATOM     18  N   LIG d   1      -8.138  75.507 119.580  0.00  0.00     0.381 N 
ATOM     19  H   LIG d   1      -8.982  74.970 119.563  0.00  0.00    -0.090 HD
ATOM     20  H   LIG d   1      -8.319  76.393 119.143  0.00  0.00    -0.090 HD
ATOM     21  H   LIG d   1      -7.843  75.646 120.521  0.00  0.00    -0.090 HD
ENDBRANCH   5  18
BRANCH   3  22
ATOM     22  C   LIG d   1      -7.228  72.011 116.435  0.00  0.00     0.382 C 
ATOM     23  O   LIG d   1      -6.481  71.442 115.602  0.00  0.00    -0.241 OA
ATOM     24  O   LIG d   1      -8.296  71.467 116.774  0.00  0.00    -0.241 OA
ENDBRANCH   3  22
TORSDOF 7
ENDMDL
