MODEL 1
REMARK VINA RESULT:      -5.9      0.000      0.000
REMARK  7 active torsions:
REMARK  status: ('A' for Active; 'I' for Inactive)
REMARK    1  A    between atoms: C_2  and  C_3 
REMARK    2  A    between atoms: C_3  and  O_6 
REMARK    3  A    between atoms: C_3  and  C_4 
REMARK    4  A    between atoms: C_7  and  O_6 
REMARK    5  A    between atoms: C_9  and  C_10 
REMARK    6  A    between atoms: N_15  and  C_14 
REMARK    7  A    between atoms: N_20  and  C_19 
REMARK       I    between atoms: C_22  and  N_20 
ROOT
ATOM      1  C   LIG d   1      -5.015  92.183 117.815  0.00  0.00     0.161 C 
ATOM      2  C   LIG d   1      -4.684  92.659 119.094  0.00  0.00     0.016 C 
ATOM      3  C   LIG d   1      -5.579  93.390 119.909  0.00  0.00     0.038 C 
ATOM      4  C   LIG d   1      -6.926  93.565 119.558  0.00  0.00     0.028 C 
ATOM      5  C   LIG d   1      -7.168  93.539 118.053  0.00  0.00    -0.047 C 
ATOM      6  C   LIG d   1      -6.515  92.269 117.462  0.00  0.00     0.091 C 
ENDROOT
BRANCH   1   7
ATOM      7  O   LIG d   1      -4.540  90.831 117.657  0.00  0.00    -0.368 OA
BRANCH   7   8
ATOM      8  C   LIG d   1      -3.193  90.571 118.124  0.00  0.00     0.119 C 
BRANCH   8   9
ATOM      9  C   LIG d   1      -2.222  91.210 117.113  0.00  0.00     0.028 C 
ATOM     10  C   LIG d   1      -0.750  90.899 117.436  0.00  0.00     0.006 C 
ENDBRANCH   8   9
BRANCH   8  11
ATOM     11  C   LIG d   1      -2.876  89.073 118.102  0.00  0.00     0.028 C 
ATOM     12  C   LIG d   1      -3.085  88.399 119.467  0.00  0.00     0.006 C 
ENDBRANCH   8  11
ENDBRANCH   7   8
ENDBRANCH   1   7
BRANCH   6  13
ATOM     13  N   LIG d   1      -6.633  92.208 115.981  0.00  0.00    -0.311 N 
ATOM     14  C   LIG d   1      -7.158  91.171 115.330  0.00  0.00     0.210 C 
ATOM     15  C   LIG d   1      -7.166  91.303 113.804  0.00  0.00     0.109 C 
ATOM     16  O   LIG d   1      -7.649  90.170 115.873  0.00  0.00    -0.276 OA
ATOM     17  H   LIG d   1      -6.288  92.992 115.463  0.00  0.00     0.149 HD
ENDBRANCH   6  13
BRANCH   5  18
ATOM     18  N   LIG d   1      -8.626  93.594 117.835  0.00  0.00     0.381 N 
ATOM     19  H   LIG d   1      -8.848  93.224 116.933  0.00  0.00    -0.090 HD
ATOM     20  H   LIG d   1      -8.923  94.554 117.864  0.00  0.00    -0.090 HD
ATOM     21  H   LIG d   1      -9.096  93.072 118.542  0.00  0.00    -0.090 HD
ENDBRANCH   5  18
BRANCH   3  22
ATOM     22  C   LIG d   1      -5.117  93.989 121.071  0.00  0.00     0.382 C 
ATOM     23  O   LIG d   1      -3.884  94.091 121.276  0.00  0.00    -0.241 OA
ATOM     24  O   LIG d   1      -5.919  94.387 121.937  0.00  0.00    -0.241 OA
ENDBRANCH   3  22
TORSDOF 7
ENDMDL
MODEL 2
REMARK VINA RESULT:      -5.9      1.691      4.963
REMARK  7 active torsions:
REMARK  status: ('A' for Active; 'I' for Inactive)
REMARK    1  A    between atoms: C_2  and  C_3 
REMARK    2  A    between atoms: C_3  and  O_6 
REMARK    3  A    between atoms: C_3  and  C_4 
REMARK    4  A    between atoms: C_7  and  O_6 
REMARK    5  A    between atoms: C_9  and  C_10 
REMARK    6  A    between atoms: N_15  and  C_14 
REMARK    7  A    between atoms: N_20  and  C_19 
REMARK       I    between atoms: C_22  and  N_20 
ROOT
ATOM      1  C   LIG d   1      -4.744  92.072 117.765  0.00  0.00     0.161 C 
ATOM      2  C   LIG d   1      -5.058  91.545 116.502  0.00  0.00     0.016 C 
ATOM      3  C   LIG d   1      -6.311  91.725 115.873  0.00  0.00     0.038 C 
ATOM      4  C   LIG d   1      -7.290  92.579 116.402  0.00  0.00     0.028 C 
ATOM      5  C   LIG d   1      -7.209  92.728 117.917  0.00  0.00    -0.047 C 
ATOM      6  C   LIG d   1      -5.760  93.099 118.308  0.00  0.00     0.091 C 
ENDROOT
BRANCH   1   7
ATOM      7  O   LIG d   1      -3.420  92.642 117.742  0.00  0.00    -0.368 OA
BRANCH   7   8
ATOM      8  C   LIG d   1      -2.354  91.758 117.316  0.00  0.00     0.119 C 
BRANCH   8   9
ATOM      9  C   LIG d   1      -2.127  90.730 118.442  0.00  0.00     0.028 C 
ATOM     10  C   LIG d   1      -2.175  89.281 117.931  0.00  0.00     0.006 C 
ENDBRANCH   8   9
BRANCH   8  11
ATOM     11  C   LIG d   1      -1.027  92.511 117.182  0.00  0.00     0.028 C 
ATOM     12  C   LIG d   1      -1.206  94.037 117.179  0.00  0.00     0.006 C 
ENDBRANCH   8  11
ENDBRANCH   7   8
ENDBRANCH   1   7
BRANCH   6  13
ATOM     13  N   LIG d   1      -5.574  93.181 119.780  0.00  0.00    -0.311 N 
ATOM     14  C   LIG d   1      -5.672  94.317 120.469  0.00  0.00     0.210 C 
ATOM     15  C   LIG d   1      -5.423  94.183 121.975  0.00  0.00     0.109 C 
ATOM     16  O   LIG d   1      -5.973  95.417 119.981  0.00  0.00    -0.276 OA
ATOM     17  H   LIG d   1      -5.357  92.330 120.261  0.00  0.00     0.149 HD
ENDBRANCH   6  13
BRANCH   5  18
ATOM     18  N   LIG d   1      -8.195  93.749 118.318  0.00  0.00     0.381 N 
ATOM     19  H   LIG d   1      -8.957  93.314 118.799  0.00  0.00    -0.090 HD
ATOM     20  H   LIG d   1      -8.557  94.194 117.493  0.00  0.00    -0.090 HD
ATOM     21  H   LIG d   1      -7.764  94.427 118.908  0.00  0.00    -0.090 HD
ENDBRANCH   5  18
BRANCH   3  22
ATOM     22  C   LIG d   1      -6.610  91.016 114.719  0.00  0.00     0.382 C 
ATOM     23  O   LIG d   1      -7.207  91.581 113.772  0.00  0.00    -0.241 OA
ATOM     24  O   LIG d   1      -6.330  89.805 114.632  0.00  0.00    -0.241 OA
ENDBRANCH   3  22
TORSDOF 7
ENDMDL
MODEL 3
REMARK VINA RESULT:      -5.7     14.140     16.436
REMARK  7 active torsions:
REMARK  status: ('A' for Active; 'I' for Inactive)
REMARK    1  A    between atoms: C_2  and  C_3 
REMARK    2  A    between atoms: C_3  and  O_6 
REMARK    3  A    between atoms: C_3  and  C_4 
REMARK    4  A    between atoms: C_7  and  O_6 
REMARK    5  A    between atoms: C_9  and  C_10 
REMARK    6  A    between atoms: N_15  and  C_14 
REMARK    7  A    between atoms: N_20  and  C_19 
REMARK       I    between atoms: C_22  and  N_20 
ROOT
ATOM      1  C   LIG d   1      -3.046  77.485 116.587  0.00  0.00     0.161 C 
ATOM      2  C   LIG d   1      -3.293  78.410 115.560  0.00  0.00     0.016 C 
ATOM      3  C   LIG d   1      -2.572  78.434 114.344  0.00  0.00     0.038 C 
ATOM      4  C   LIG d   1      -1.650  77.432 114.009  0.00  0.00     0.028 C 
ATOM      5  C   LIG d   1      -1.007  76.770 115.223  0.00  0.00    -0.047 C 
ATOM      6  C   LIG d   1      -2.120  76.315 116.194  0.00  0.00     0.091 C 
ENDROOT
BRANCH   1   7
ATOM      7  O   LIG d   1      -4.294  76.983 117.104  0.00  0.00    -0.368 OA
BRANCH   7   8
ATOM      8  C   LIG d   1      -5.437  77.084 116.220  0.00  0.00     0.119 C 
BRANCH   8   9
ATOM      9  C   LIG d   1      -6.667  77.410 117.088  0.00  0.00     0.028 C 
ATOM     10  C   LIG d   1      -7.792  76.373 116.926  0.00  0.00     0.006 C 
ENDBRANCH   8   9
BRANCH   8  11
ATOM     11  C   LIG d   1      -5.751  75.739 115.560  0.00  0.00     0.028 C 
ATOM     12  C   LIG d   1      -5.339  75.690 114.080  0.00  0.00     0.006 C 
ENDBRANCH   8  11
ENDBRANCH   7   8
ENDBRANCH   1   7
BRANCH   6  13
ATOM     13  N   LIG d   1      -1.574  75.732 117.448  0.00  0.00    -0.311 N 
ATOM     14  C   LIG d   1      -1.330  74.432 117.607  0.00  0.00     0.210 C 
ATOM     15  C   LIG d   1      -0.788  74.040 118.985  0.00  0.00     0.109 C 
ATOM     16  O   LIG d   1      -1.482  73.572 116.727  0.00  0.00    -0.276 OA
ATOM     17  H   LIG d   1      -1.392  76.364 118.203  0.00  0.00     0.149 HD
ENDBRANCH   6  13
BRANCH   5  18
ATOM     18  N   LIG d   1      -0.174  75.655 114.733  0.00  0.00     0.381 N 
ATOM     19  H   LIG d   1       0.707  75.657 115.208  0.00  0.00    -0.090 HD
ATOM     20  H   LIG d   1      -0.004  75.783 113.751  0.00  0.00    -0.090 HD
ATOM     21  H   LIG d   1      -0.641  74.788 114.887  0.00  0.00    -0.090 HD
ENDBRANCH   5  18
BRANCH   3  22
ATOM     22  C   LIG d   1      -2.743  79.493 113.465  0.00  0.00     0.382 C 
ATOM     23  O   LIG d   1      -2.212  79.456 112.328  0.00  0.00    -0.241 OA
ATOM     24  O   LIG d   1      -3.383  80.504 113.810  0.00  0.00    -0.241 OA
ENDBRANCH   3  22
TORSDOF 7
ENDMDL
MODEL 4
REMARK VINA RESULT:      -5.6      2.636      6.067
REMARK  7 active torsions:
REMARK  status: ('A' for Active; 'I' for Inactive)
REMARK    1  A    between atoms: C_2  and  C_3 
REMARK    2  A    between atoms: C_3  and  O_6 
REMARK    3  A    between atoms: C_3  and  C_4 
REMARK    4  A    between atoms: C_7  and  O_6 
REMARK    5  A    between atoms: C_9  and  C_10 
REMARK    6  A    between atoms: N_15  and  C_14 
REMARK    7  A    between atoms: N_20  and  C_19 
REMARK       I    between atoms: C_22  and  N_20 
ROOT
ATOM      1  C   LIG d   1      -5.734  93.089 118.318  0.00  0.00     0.161 C 
ATOM      2  C   LIG d   1      -6.652  92.524 117.416  0.00  0.00     0.016 C 
ATOM      3  C   LIG d   1      -6.283  91.619 116.395  0.00  0.00     0.038 C 
ATOM      4  C   LIG d   1      -4.984  91.096 116.302  0.00  0.00     0.028 C 
ATOM      5  C   LIG d   1      -3.916  92.021 116.875  0.00  0.00    -0.047 C 
ATOM      6  C   LIG d   1      -4.332  92.445 118.302  0.00  0.00     0.091 C 
ENDROOT
BRANCH   1   7
ATOM      7  O   LIG d   1      -6.282  93.065 119.651  0.00  0.00    -0.368 OA
BRANCH   7   8
ATOM      8  C   LIG d   1      -7.123  94.187 120.015  0.00  0.00     0.119 C 
BRANCH   8   9
ATOM      9  C   LIG d   1      -6.257  95.459 119.935  0.00  0.00     0.028 C 
ATOM     10  C   LIG d   1      -6.913  96.563 119.088  0.00  0.00     0.006 C 
ENDBRANCH   8   9
BRANCH   8  11
ATOM     11  C   LIG d   1      -7.574  94.094 121.475  0.00  0.00     0.028 C 
ATOM     12  C   LIG d   1      -6.941  92.909 122.221  0.00  0.00     0.006 C 
ENDBRANCH   8  11
ENDBRANCH   7   8
ENDBRANCH   1   7
BRANCH   6  13
ATOM     13  N   LIG d   1      -3.384  93.418 118.904  0.00  0.00    -0.311 N 
ATOM     14  C   LIG d   1      -2.356  93.061 119.672  0.00  0.00     0.210 C 
ATOM     15  C   LIG d   1      -1.514  94.223 120.207  0.00  0.00     0.109 C 
ATOM     16  O   LIG d   1      -2.044  91.890 119.935  0.00  0.00    -0.276 OA
ATOM     17  H   LIG d   1      -3.545  94.388 118.716  0.00  0.00     0.149 HD
ENDBRANCH   6  13
BRANCH   5  18
ATOM     18  N   LIG d   1      -2.632  91.295 116.839  0.00  0.00     0.381 N 
ATOM     19  H   LIG d   1      -2.565  90.767 115.992  0.00  0.00    -0.090 HD
ATOM     20  H   LIG d   1      -2.598  90.656 117.613  0.00  0.00    -0.090 HD
ATOM     21  H   LIG d   1      -1.875  91.940 116.897  0.00  0.00    -0.090 HD
ENDBRANCH   5  18
BRANCH   3  22
ATOM     22  C   LIG d   1      -7.209  91.258 115.429  0.00  0.00     0.382 C 
ATOM     23  O   LIG d   1      -7.626  92.112 114.610  0.00  0.00    -0.241 OA
ATOM     24  O   LIG d   1      -7.666  90.100 115.393  0.00  0.00    -0.241 OA
ENDBRANCH   3  22
TORSDOF 7
ENDMDL
MODEL 5
REMARK VINA RESULT:      -5.1      2.641      6.155
REMARK  7 active torsions:
REMARK  status: ('A' for Active; 'I' for Inactive)
REMARK    1  A    between atoms: C_2  and  C_3 
REMARK    2  A    between atoms: C_3  and  O_6 
REMARK    3  A    between atoms: C_3  and  C_4 
REMARK    4  A    between atoms: C_7  and  O_6 
REMARK    5  A    between atoms: C_9  and  C_10 
REMARK    6  A    between atoms: N_15  and  C_14 
REMARK    7  A    between atoms: N_20  and  C_19 
REMARK       I    between atoms: C_22  and  N_20 
ROOT
ATOM      1  C   LIG d   1      -5.023  93.203 118.737  0.00  0.00     0.161 C 
ATOM      2  C   LIG d   1      -6.085  92.743 117.941  0.00  0.00     0.016 C 
ATOM      3  C   LIG d   1      -5.913  91.871 116.841  0.00  0.00     0.038 C 
ATOM      4  C   LIG d   1      -4.675  91.277 116.553  0.00  0.00     0.028 C 
ATOM      5  C   LIG d   1      -3.482  92.106 117.019  0.00  0.00    -0.047 C 
ATOM      6  C   LIG d   1      -3.681  92.478 118.506  0.00  0.00     0.091 C 
ENDROOT
BRANCH   1   7
ATOM      7  O   LIG d   1      -5.393  93.142 120.128  0.00  0.00    -0.368 OA
BRANCH   7   8
ATOM      8  C   LIG d   1      -5.144  94.338 120.907  0.00  0.00     0.119 C 
BRANCH   8   9
ATOM      9  C   LIG d   1      -6.207  94.393 122.022  0.00  0.00     0.028 C 
ATOM     10  C   LIG d   1      -7.456  93.562 121.685  0.00  0.00     0.006 C 
ENDBRANCH   8   9
BRANCH   8  11
ATOM     11  C   LIG d   1      -5.367  95.603 120.072  0.00  0.00     0.028 C 
ATOM     12  C   LIG d   1      -4.126  96.508 120.021  0.00  0.00     0.006 C 
ENDBRANCH   8  11
ENDBRANCH   7   8
ENDBRANCH   1   7
BRANCH   6  13
ATOM     13  N   LIG d   1      -2.599  93.360 119.018  0.00  0.00    -0.311 N 
ATOM     14  C   LIG d   1      -1.515  92.903 119.643  0.00  0.00     0.210 C 
ATOM     15  C   LIG d   1      -0.534  93.983 120.108  0.00  0.00     0.109 C 
ATOM     16  O   LIG d   1      -1.258  91.704 119.828  0.00  0.00    -0.276 OA
ATOM     17  H   LIG d   1      -2.712  94.345 118.883  0.00  0.00     0.149 HD
ENDBRANCH   6  13
BRANCH   5  18
ATOM     18  N   LIG d   1      -2.265  91.308 116.780  0.00  0.00     0.381 N 
ATOM     19  H   LIG d   1      -2.503  90.338 116.711  0.00  0.00    -0.090 HD
ATOM     20  H   LIG d   1      -1.642  91.425 117.559  0.00  0.00    -0.090 HD
ATOM     21  H   LIG d   1      -1.820  91.608 115.941  0.00  0.00    -0.090 HD
ENDBRANCH   5  18
BRANCH   3  22
ATOM     22  C   LIG d   1      -6.979  91.618 115.991  0.00  0.00     0.382 C 
ATOM     23  O   LIG d   1      -7.587  90.523 116.059  0.00  0.00    -0.241 OA
ATOM     24  O   LIG d   1      -7.311  92.452 115.128  0.00  0.00    -0.241 OA
ENDBRANCH   3  22
TORSDOF 7
ENDMDL
MODEL 6
REMARK VINA RESULT:      -5.1      3.184      4.787
REMARK  7 active torsions:
REMARK  status: ('A' for Active; 'I' for Inactive)
REMARK    1  A    between atoms: C_2  and  C_3 
REMARK    2  A    between atoms: C_3  and  O_6 
REMARK    3  A    between atoms: C_3  and  C_4 
REMARK    4  A    between atoms: C_7  and  O_6 
REMARK    5  A    between atoms: C_9  and  C_10 
REMARK    6  A    between atoms: N_15  and  C_14 
REMARK    7  A    between atoms: N_20  and  C_19 
REMARK       I    between atoms: C_22  and  N_20 
ROOT
ATOM      1  C   LIG d   1      -0.890  91.396 116.985  0.00  0.00     0.161 C 
ATOM      2  C   LIG d   1       0.290  91.937 117.522  0.00  0.00     0.016 C 
ATOM      3  C   LIG d   1       0.324  93.129 118.282  0.00  0.00     0.038 C 
ATOM      4  C   LIG d   1      -0.848  93.785 118.685  0.00  0.00     0.028 C 
ATOM      5  C   LIG d   1      -2.025  93.556 117.743  0.00  0.00    -0.047 C 
ATOM      6  C   LIG d   1      -2.192  92.037 117.508  0.00  0.00     0.091 C 
ENDROOT
BRANCH   1   7
ATOM      7  O   LIG d   1      -0.913  89.970 117.195  0.00  0.00    -0.368 OA
BRANCH   7   8
ATOM      8  C   LIG d   1      -1.313  89.527 118.515  0.00  0.00     0.119 C 
BRANCH   8   9
ATOM      9  C   LIG d   1      -0.212  88.586 119.041  0.00  0.00     0.028 C 
ATOM     10  C   LIG d   1       0.053  87.404 118.093  0.00  0.00     0.006 C 
ENDBRANCH   8   9
BRANCH   8  11
ATOM     11  C   LIG d   1      -2.582  88.671 118.455  0.00  0.00     0.028 C 
ATOM     12  C   LIG d   1      -3.134  88.325 119.847  0.00  0.00     0.006 C 
ENDBRANCH   8  11
ENDBRANCH   7   8
ENDBRANCH   1   7
BRANCH   6  13
ATOM     13  N   LIG d   1      -3.269  91.729 116.532  0.00  0.00    -0.311 N 
ATOM     14  C   LIG d   1      -4.540  91.533 116.879  0.00  0.00     0.210 C 
ATOM     15  C   LIG d   1      -5.485  91.209 115.718  0.00  0.00     0.109 C 
ATOM     16  O   LIG d   1      -4.980  91.630 118.034  0.00  0.00    -0.276 OA
ATOM     17  H   LIG d   1      -3.005  91.663 115.568  0.00  0.00     0.149 HD
ENDBRANCH   6  13
BRANCH   5  18
ATOM     18  N   LIG d   1      -3.214  94.180 118.355  0.00  0.00     0.381 N 
ATOM     19  H   LIG d   1      -4.040  93.704 118.052  0.00  0.00    -0.090 HD
ATOM     20  H   LIG d   1      -3.272  95.136 118.051  0.00  0.00    -0.090 HD
ATOM     21  H   LIG d   1      -3.145  94.143 119.348  0.00  0.00    -0.090 HD
ENDBRANCH   5  18
BRANCH   3  22
ATOM     22  C   LIG d   1       1.545  93.699 118.611  0.00  0.00     0.382 C 
ATOM     23  O   LIG d   1       1.590  94.660 119.417  0.00  0.00    -0.241 OA
ATOM     24  O   LIG d   1       2.595  93.294 118.079  0.00  0.00    -0.241 OA
ENDBRANCH   3  22
TORSDOF 7
ENDMDL
MODEL 7
REMARK VINA RESULT:      -5.1     12.959     15.904
REMARK  7 active torsions:
REMARK  status: ('A' for Active; 'I' for Inactive)
REMARK    1  A    between atoms: C_2  and  C_3 
REMARK    2  A    between atoms: C_3  and  O_6 
REMARK    3  A    between atoms: C_3  and  C_4 
REMARK    4  A    between atoms: C_7  and  O_6 
REMARK    5  A    between atoms: C_9  and  C_10 
REMARK    6  A    between atoms: N_15  and  C_14 
REMARK    7  A    between atoms: N_20  and  C_19 
REMARK       I    between atoms: C_22  and  N_20 
ROOT
ATOM      1  C   LIG d   1      -6.838  77.404 117.089  0.00  0.00     0.161 C 
ATOM      2  C   LIG d   1      -6.582  76.597 115.968  0.00  0.00     0.016 C 
ATOM      3  C   LIG d   1      -5.300  76.452 115.389  0.00  0.00     0.038 C 
ATOM      4  C   LIG d   1      -4.151  76.990 115.988  0.00  0.00     0.028 C 
ATOM      5  C   LIG d   1      -4.432  78.227 116.835  0.00  0.00    -0.047 C 
ATOM      6  C   LIG d   1      -5.578  77.909 117.823  0.00  0.00     0.091 C 
ENDROOT
BRANCH   1   7
ATOM      7  O   LIG d   1      -7.705  76.707 118.005  0.00  0.00    -0.368 OA
BRANCH   7   8
ATOM      8  C   LIG d   1      -9.127  76.898 117.807  0.00  0.00     0.119 C 
BRANCH   8   9
ATOM      9  C   LIG d   1      -9.666  77.668 119.027  0.00  0.00     0.028 C 
ATOM     10  C   LIG d   1      -9.781  79.179 118.764  0.00  0.00     0.006 C 
ENDBRANCH   8   9
BRANCH   8  11
ATOM     11  C   LIG d   1      -9.874  75.561 117.809  0.00  0.00     0.028 C 
ATOM     12  C   LIG d   1     -11.389  75.725 118.012  0.00  0.00     0.006 C 
ENDBRANCH   8  11
ENDBRANCH   7   8
ENDBRANCH   1   7
BRANCH   6  13
ATOM     13  N   LIG d   1      -5.972  79.092 118.632  0.00  0.00    -0.311 N 
ATOM     14  C   LIG d   1      -6.185  79.043 119.946  0.00  0.00     0.210 C 
ATOM     15  C   LIG d   1      -6.603  80.372 120.583  0.00  0.00     0.109 C 
ATOM     16  O   LIG d   1      -6.036  78.033 120.649  0.00  0.00    -0.276 OA
ATOM     17  H   LIG d   1      -6.085  79.960 118.146  0.00  0.00     0.149 HD
ENDBRANCH   6  13
BRANCH   5  18
ATOM     18  N   LIG d   1      -3.174  78.600 117.509  0.00  0.00     0.381 N 
ATOM     19  H   LIG d   1      -3.375  79.152 118.319  0.00  0.00    -0.090 HD
ATOM     20  H   LIG d   1      -2.620  79.153 116.879  0.00  0.00    -0.090 HD
ATOM     21  H   LIG d   1      -2.672  77.781 117.772  0.00  0.00    -0.090 HD
ENDBRANCH   5  18
BRANCH   3  22
ATOM     22  C   LIG d   1      -5.165  75.796 114.175  0.00  0.00     0.382 C 
ATOM     23  O   LIG d   1      -4.684  74.638 114.139  0.00  0.00    -0.241 OA
ATOM     24  O   LIG d   1      -5.475  76.365 113.111  0.00  0.00    -0.241 OA
ENDBRANCH   3  22
TORSDOF 7
ENDMDL
MODEL 8
REMARK VINA RESULT:      -5.0     19.013     21.626
REMARK  7 active torsions:
REMARK  status: ('A' for Active; 'I' for Inactive)
REMARK    1  A    between atoms: C_2  and  C_3 
REMARK    2  A    between atoms: C_3  and  O_6 
REMARK    3  A    between atoms: C_3  and  C_4 
REMARK    4  A    between atoms: C_7  and  O_6 
REMARK    5  A    between atoms: C_9  and  C_10 
REMARK    6  A    between atoms: N_15  and  C_14 
REMARK    7  A    between atoms: N_20  and  C_19 
REMARK       I    between atoms: C_22  and  N_20 
ROOT
ATOM      1  C   LIG d   1      10.558  79.065 114.911  0.00  0.00     0.161 C 
ATOM      2  C   LIG d   1       9.186  79.293 115.112  0.00  0.00     0.016 C 
ATOM      3  C   LIG d   1       8.290  78.299 115.568  0.00  0.00     0.038 C 
ATOM      4  C   LIG d   1       8.736  77.041 116.000  0.00  0.00     0.028 C 
ATOM      5  C   LIG d   1      10.038  76.600 115.340  0.00  0.00    -0.047 C 
ATOM      6  C   LIG d   1      11.082  77.731 115.483  0.00  0.00     0.091 C 
ENDROOT
BRANCH   1   7
ATOM      7  O   LIG d   1      11.319  80.170 115.437  0.00  0.00    -0.368 OA
BRANCH   7   8
ATOM      8  C   LIG d   1      11.935  81.043 114.459  0.00  0.00     0.119 C 
BRANCH   8   9
ATOM      9  C   LIG d   1      11.653  80.448 113.065  0.00  0.00     0.028 C 
ATOM     10  C   LIG d   1      10.989  81.462 112.118  0.00  0.00     0.006 C 
ENDBRANCH   8   9
BRANCH   8  11
ATOM     11  C   LIG d   1      13.461  81.046 114.597  0.00  0.00     0.028 C 
ATOM     12  C   LIG d   1      14.173  80.497 113.350  0.00  0.00     0.006 C 
ENDBRANCH   8  11
ENDBRANCH   7   8
ENDBRANCH   1   7
BRANCH   6  13
ATOM     13  N   LIG d   1      12.359  77.415 114.791  0.00  0.00    -0.311 N 
ATOM     14  C   LIG d   1      13.531  77.328 115.418  0.00  0.00     0.210 C 
ATOM     15  C   LIG d   1      14.726  77.012 114.514  0.00  0.00     0.109 C 
ATOM     16  O   LIG d   1      13.689  77.450 116.642  0.00  0.00    -0.276 OA
ATOM     17  H   LIG d   1      12.317  77.270 113.801  0.00  0.00     0.149 HD
ENDBRANCH   6  13
BRANCH   5  18
ATOM     18  N   LIG d   1      10.459  75.340 115.982  0.00  0.00     0.381 N 
ATOM     19  H   LIG d   1      11.224  74.941 115.476  0.00  0.00    -0.090 HD
ATOM     20  H   LIG d   1       9.692  74.691 115.958  0.00  0.00    -0.090 HD
ATOM     21  H   LIG d   1      10.729  75.512 116.925  0.00  0.00    -0.090 HD
ENDBRANCH   5  18
BRANCH   3  22
ATOM     22  C   LIG d   1       6.926  78.546 115.556  0.00  0.00     0.382 C 
ATOM     23  O   LIG d   1       6.154  77.832 116.241  0.00  0.00    -0.241 OA
ATOM     24  O   LIG d   1       6.453  79.444 114.834  0.00  0.00    -0.241 OA
ENDBRANCH   3  22
TORSDOF 7
ENDMDL
MODEL 9
REMARK VINA RESULT:      -4.9     12.618     15.196
REMARK  7 active torsions:
REMARK  status: ('A' for Active; 'I' for Inactive)
REMARK    1  A    between atoms: C_2  and  C_3 
REMARK    2  A    between atoms: C_3  and  O_6 
REMARK    3  A    between atoms: C_3  and  C_4 
REMARK    4  A    between atoms: C_7  and  O_6 
REMARK    5  A    between atoms: C_9  and  C_10 
REMARK    6  A    between atoms: N_15  and  C_14 
REMARK    7  A    between atoms: N_20  and  C_19 
REMARK       I    between atoms: C_22  and  N_20 
ROOT
ATOM      1  C   LIG d   1      -7.517  77.144 117.712  0.00  0.00     0.161 C 
ATOM      2  C   LIG d   1      -8.734  76.455 117.582  0.00  0.00     0.016 C 
ATOM      3  C   LIG d   1      -9.949  76.907 118.147  0.00  0.00     0.038 C 
ATOM      4  C   LIG d   1     -10.059  78.165 118.758  0.00  0.00     0.028 C 
ATOM      5  C   LIG d   1      -8.748  78.666 119.354  0.00  0.00    -0.047 C 
ATOM      6  C   LIG d   1      -7.640  78.573 118.280  0.00  0.00     0.091 C 
ENDROOT
BRANCH   1   7
ATOM      7  O   LIG d   1      -6.830  77.166 116.446  0.00  0.00    -0.368 OA
BRANCH   7   8
ATOM      8  C   LIG d   1      -5.702  76.265 116.317  0.00  0.00     0.119 C 
BRANCH   8   9
ATOM      9  C   LIG d   1      -4.468  77.116 115.960  0.00  0.00     0.028 C 
ATOM     10  C   LIG d   1      -3.176  76.569 116.591  0.00  0.00     0.006 C 
ENDBRANCH   8   9
BRANCH   8  11
ATOM     11  C   LIG d   1      -5.888  75.305 115.138  0.00  0.00     0.028 C 
ATOM     12  C   LIG d   1      -5.643  75.978 113.778  0.00  0.00     0.006 C 
ENDBRANCH   8  11
ENDBRANCH   7   8
ENDBRANCH   1   7
BRANCH   6  13
ATOM     13  N   LIG d   1      -6.307  78.965 118.806  0.00  0.00    -0.311 N 
ATOM     14  C   LIG d   1      -5.781  80.177 118.641  0.00  0.00     0.210 C 
ATOM     15  C   LIG d   1      -4.386  80.365 119.245  0.00  0.00     0.109 C 
ATOM     16  O   LIG d   1      -6.350  81.125 118.078  0.00  0.00    -0.276 OA
ATOM     17  H   LIG d   1      -5.789  78.266 119.302  0.00  0.00     0.149 HD
ENDBRANCH   6  13
BRANCH   5  18
ATOM     18  N   LIG d   1      -8.974  80.043 119.834  0.00  0.00     0.381 N 
ATOM     19  H   LIG d   1      -9.649  80.498 119.252  0.00  0.00    -0.090 HD
ATOM     20  H   LIG d   1      -8.111  80.553 119.775  0.00  0.00    -0.090 HD
ATOM     21  H   LIG d   1      -9.295  80.027 120.777  0.00  0.00    -0.090 HD
ENDBRANCH   5  18
BRANCH   3  22
ATOM     22  C   LIG d   1     -11.061  76.079 118.139  0.00  0.00     0.382 C 
ATOM     23  O   LIG d   1     -12.101  76.421 118.751  0.00  0.00    -0.241 OA
ATOM     24  O   LIG d   1     -11.022  74.975 117.565  0.00  0.00    -0.241 OA
ENDBRANCH   3  22
TORSDOF 7
ENDMDL
