MODEL 1
REMARK VINA RESULT:      -5.9      0.000      0.000
REMARK  7 active torsions:
REMARK  status: ('A' for Active; 'I' for Inactive)
REMARK    1  A    between atoms: C_2  and  C_3 
REMARK    2  A    between atoms: C_3  and  O_6 
REMARK    3  A    between atoms: C_3  and  C_4 
REMARK    4  A    between atoms: C_7  and  O_6 
REMARK    5  A    between atoms: C_9  and  C_10 
REMARK    6  A    between atoms: N_15  and  C_14 
REMARK    7  A    between atoms: N_20  and  C_19 
REMARK       I    between atoms: C_22  and  N_20 
ROOT
ATOM      1  C   LIG d   1      -5.781  92.681 117.421  0.00  0.00     0.161 C 
ATOM      2  C   LIG d   1      -6.864  91.891 117.000  0.00  0.00     0.016 C 
ATOM      3  C   LIG d   1      -6.730  90.546 116.584  0.00  0.00     0.038 C 
ATOM      4  C   LIG d   1      -5.519  89.849 116.705  0.00  0.00     0.028 C 
ATOM      5  C   LIG d   1      -4.292  90.753 116.649  0.00  0.00    -0.047 C 
ATOM      6  C   LIG d   1      -4.470  91.905 117.665  0.00  0.00     0.091 C 
ENDROOT
BRANCH   1   7
ATOM      7  O   LIG d   1      -6.149  93.426 118.598  0.00  0.00    -0.368 OA
BRANCH   7   8
ATOM      8  C   LIG d   1      -6.243  94.863 118.439  0.00  0.00     0.119 C 
BRANCH   8   9
ATOM      9  C   LIG d   1      -5.110  95.496 119.270  0.00  0.00     0.028 C 
ATOM     10  C   LIG d   1      -4.752  94.659 120.509  0.00  0.00     0.006 C 
ENDBRANCH   8   9
BRANCH   8  11
ATOM     11  C   LIG d   1      -7.541  95.407 119.043  0.00  0.00     0.028 C 
ATOM     12  C   LIG d   1      -8.785  95.018 118.229  0.00  0.00     0.006 C 
ENDBRANCH   8  11
ENDBRANCH   7   8
ENDBRANCH   1   7
BRANCH   6  13
ATOM     13  N   LIG d   1      -3.352  92.883 117.615  0.00  0.00    -0.311 N 
ATOM     14  C   LIG d   1      -2.290  92.823 118.416  0.00  0.00     0.210 C 
ATOM     15  C   LIG d   1      -1.263  93.941 118.212  0.00  0.00     0.109 C 
ATOM     16  O   LIG d   1      -2.085  91.932 119.254  0.00  0.00    -0.276 OA
ATOM     17  H   LIG d   1      -3.422  93.621 116.942  0.00  0.00     0.149 HD
ENDBRANCH   6  13
BRANCH   5  18
ATOM     18  N   LIG d   1      -3.109  89.916 116.925  0.00  0.00     0.381 N 
ATOM     19  H   LIG d   1      -2.376  90.481 117.306  0.00  0.00    -0.090 HD
ATOM     20  H   LIG d   1      -2.784  89.519 116.061  0.00  0.00    -0.090 HD
ATOM     21  H   LIG d   1      -3.346  89.191 117.565  0.00  0.00    -0.090 HD
ENDBRANCH   5  18
BRANCH   3  22
ATOM     22  C   LIG d   1      -7.809  89.897 116.003  0.00  0.00     0.382 C 
ATOM     23  O   LIG d   1      -8.298  90.330 114.932  0.00  0.00    -0.241 OA
ATOM     24  O   LIG d   1      -8.326  88.909 116.558  0.00  0.00    -0.241 OA
ENDBRANCH   3  22
TORSDOF 7
ENDMDL
MODEL 2
REMARK VINA RESULT:      -5.8      1.019      1.650
REMARK  7 active torsions:
REMARK  status: ('A' for Active; 'I' for Inactive)
REMARK    1  A    between atoms: C_2  and  C_3 
REMARK    2  A    between atoms: C_3  and  O_6 
REMARK    3  A    between atoms: C_3  and  C_4 
REMARK    4  A    between atoms: C_7  and  O_6 
REMARK    5  A    between atoms: C_9  and  C_10 
REMARK    6  A    between atoms: N_15  and  C_14 
REMARK    7  A    between atoms: N_20  and  C_19 
REMARK       I    between atoms: C_22  and  N_20 
ROOT
ATOM      1  C   LIG d   1      -5.768  92.618 117.336  0.00  0.00     0.161 C 
ATOM      2  C   LIG d   1      -6.860  91.839 116.920  0.00  0.00     0.016 C 
ATOM      3  C   LIG d   1      -6.745  90.487 116.523  0.00  0.00     0.038 C 
ATOM      4  C   LIG d   1      -5.545  89.774 116.660  0.00  0.00     0.028 C 
ATOM      5  C   LIG d   1      -4.304  90.658 116.598  0.00  0.00    -0.047 C 
ATOM      6  C   LIG d   1      -4.470  91.826 117.597  0.00  0.00     0.091 C 
ENDROOT
BRANCH   1   7
ATOM      7  O   LIG d   1      -6.130  93.385 118.501  0.00  0.00    -0.368 OA
BRANCH   7   8
ATOM      8  C   LIG d   1      -7.546  93.628 118.690  0.00  0.00     0.119 C 
BRANCH   8   9
ATOM      9  C   LIG d   1      -7.833  95.072 118.236  0.00  0.00     0.028 C 
ATOM     10  C   LIG d   1      -9.012  95.703 118.995  0.00  0.00     0.006 C 
ENDBRANCH   8   9
BRANCH   8  11
ATOM     11  C   LIG d   1      -7.926  93.586 120.173  0.00  0.00     0.028 C 
ATOM     12  C   LIG d   1      -6.838  92.944 121.049  0.00  0.00     0.006 C 
ENDBRANCH   8  11
ENDBRANCH   7   8
ENDBRANCH   1   7
BRANCH   6  13
ATOM     13  N   LIG d   1      -3.337  92.786 117.540  0.00  0.00    -0.311 N 
ATOM     14  C   LIG d   1      -2.278  92.719 118.344  0.00  0.00     0.210 C 
ATOM     15  C   LIG d   1      -1.233  93.819 118.131  0.00  0.00     0.109 C 
ATOM     16  O   LIG d   1      -2.088  91.833 119.192  0.00  0.00    -0.276 OA
ATOM     17  H   LIG d   1      -3.394  93.518 116.860  0.00  0.00     0.149 HD
ENDBRANCH   6  13
BRANCH   5  18
ATOM     18  N   LIG d   1      -3.136  89.807 116.891  0.00  0.00     0.381 N 
ATOM     19  H   LIG d   1      -3.409  89.049 117.484  0.00  0.00    -0.090 HD
ATOM     20  H   LIG d   1      -2.448  90.356 117.378  0.00  0.00    -0.090 HD
ATOM     21  H   LIG d   1      -2.750  89.454 116.043  0.00  0.00    -0.090 HD
ENDBRANCH   5  18
BRANCH   3  22
ATOM     22  C   LIG d   1      -7.830  89.846 115.945  0.00  0.00     0.382 C 
ATOM     23  O   LIG d   1      -8.323  90.286 114.879  0.00  0.00    -0.241 OA
ATOM     24  O   LIG d   1      -8.350  88.859 116.500  0.00  0.00    -0.241 OA
ENDBRANCH   3  22
TORSDOF 7
ENDMDL
MODEL 3
REMARK VINA RESULT:      -5.1      2.005      4.297
REMARK  7 active torsions:
REMARK  status: ('A' for Active; 'I' for Inactive)
REMARK    1  A    between atoms: C_2  and  C_3 
REMARK    2  A    between atoms: C_3  and  O_6 
REMARK    3  A    between atoms: C_3  and  C_4 
REMARK    4  A    between atoms: C_7  and  O_6 
REMARK    5  A    between atoms: C_9  and  C_10 
REMARK    6  A    between atoms: N_15  and  C_14 
REMARK    7  A    between atoms: N_20  and  C_19 
REMARK       I    between atoms: C_22  and  N_20 
ROOT
ATOM      1  C   LIG d   1      -4.371  91.841 117.720  0.00  0.00     0.161 C 
ATOM      2  C   LIG d   1      -4.609  90.899 116.706  0.00  0.00     0.016 C 
ATOM      3  C   LIG d   1      -5.831  90.808 115.999  0.00  0.00     0.038 C 
ATOM      4  C   LIG d   1      -6.850  91.759 116.157  0.00  0.00     0.028 C 
ATOM      5  C   LIG d   1      -6.851  92.425 117.528  0.00  0.00    -0.047 C 
ATOM      6  C   LIG d   1      -5.431  92.956 117.829  0.00  0.00     0.091 C 
ENDROOT
BRANCH   1   7
ATOM      7  O   LIG d   1      -3.057  92.411 117.558  0.00  0.00    -0.368 OA
BRANCH   7   8
ATOM      8  C   LIG d   1      -2.090  92.086 118.586  0.00  0.00     0.119 C 
BRANCH   8   9
ATOM      9  C   LIG d   1      -1.657  93.407 119.250  0.00  0.00     0.028 C 
ATOM     10  C   LIG d   1      -1.995  93.448 120.750  0.00  0.00     0.006 C 
ENDBRANCH   8   9
BRANCH   8  11
ATOM     11  C   LIG d   1      -0.811  91.498 117.981  0.00  0.00     0.028 C 
ATOM     12  C   LIG d   1      -0.924  89.992 117.696  0.00  0.00     0.006 C 
ENDBRANCH   8  11
ENDBRANCH   7   8
ENDBRANCH   1   7
BRANCH   6  13
ATOM     13  N   LIG d   1      -5.323  93.549 119.188  0.00  0.00    -0.311 N 
ATOM     14  C   LIG d   1      -5.495  94.845 119.438  0.00  0.00     0.210 C 
ATOM     15  C   LIG d   1      -5.319  95.250 120.905  0.00  0.00     0.109 C 
ATOM     16  O   LIG d   1      -5.806  95.694 118.589  0.00  0.00    -0.276 OA
ATOM     17  H   LIG d   1      -5.104  92.926 119.941  0.00  0.00     0.149 HD
ENDBRANCH   6  13
BRANCH   5  18
ATOM     18  N   LIG d   1      -7.874  93.487 117.508  0.00  0.00     0.381 N 
ATOM     19  H   LIG d   1      -8.670  93.201 118.042  0.00  0.00    -0.090 HD
ATOM     20  H   LIG d   1      -8.168  93.636 116.558  0.00  0.00    -0.090 HD
ATOM     21  H   LIG d   1      -7.498  94.330 117.883  0.00  0.00    -0.090 HD
ENDBRANCH   5  18
BRANCH   3  22
ATOM     22  C   LIG d   1      -6.057  89.734 115.152  0.00  0.00     0.382 C 
ATOM     23  O   LIG d   1      -7.182  89.582 114.618  0.00  0.00    -0.241 OA
ATOM     24  O   LIG d   1      -5.163  88.890 114.950  0.00  0.00    -0.241 OA
ENDBRANCH   3  22
TORSDOF 7
ENDMDL
MODEL 4
REMARK VINA RESULT:      -5.0      2.209      4.535
REMARK  7 active torsions:
REMARK  status: ('A' for Active; 'I' for Inactive)
REMARK    1  A    between atoms: C_2  and  C_3 
REMARK    2  A    between atoms: C_3  and  O_6 
REMARK    3  A    between atoms: C_3  and  C_4 
REMARK    4  A    between atoms: C_7  and  O_6 
REMARK    5  A    between atoms: C_9  and  C_10 
REMARK    6  A    between atoms: N_15  and  C_14 
REMARK    7  A    between atoms: N_20  and  C_19 
REMARK       I    between atoms: C_22  and  N_20 
ROOT
ATOM      1  C   LIG d   1      -4.419  90.362 117.726  0.00  0.00     0.161 C 
ATOM      2  C   LIG d   1      -5.486  89.857 116.965  0.00  0.00     0.016 C 
ATOM      3  C   LIG d   1      -6.572  90.649 116.525  0.00  0.00     0.038 C 
ATOM      4  C   LIG d   1      -6.588  92.042 116.689  0.00  0.00     0.028 C 
ATOM      5  C   LIG d   1      -5.778  92.519 117.890  0.00  0.00    -0.047 C 
ATOM      6  C   LIG d   1      -4.363  91.901 117.820  0.00  0.00     0.091 C 
ENDROOT
BRANCH   1   7
ATOM      7  O   LIG d   1      -3.172  89.845 117.221  0.00  0.00    -0.368 OA
BRANCH   7   8
ATOM      8  C   LIG d   1      -2.586  88.751 117.968  0.00  0.00     0.119 C 
BRANCH   8   9
ATOM      9  C   LIG d   1      -3.333  88.656 119.313  0.00  0.00     0.028 C 
ATOM     10  C   LIG d   1      -2.432  89.002 120.510  0.00  0.00     0.006 C 
ENDBRANCH   8   9
BRANCH   8  11
ATOM     11  C   LIG d   1      -1.128  89.043 118.334  0.00  0.00     0.028 C 
ATOM     12  C   LIG d   1      -0.441  89.988 117.336  0.00  0.00     0.006 C 
ENDBRANCH   8  11
ENDBRANCH   7   8
ENDBRANCH   1   7
BRANCH   6  13
ATOM     13  N   LIG d   1      -3.533  92.250 119.002  0.00  0.00    -0.311 N 
ATOM     14  C   LIG d   1      -2.342  92.839 118.913  0.00  0.00     0.210 C 
ATOM     15  C   LIG d   1      -1.644  93.092 120.253  0.00  0.00     0.109 C 
ATOM     16  O   LIG d   1      -1.811  93.205 117.853  0.00  0.00    -0.276 OA
ATOM     17  H   LIG d   1      -3.901  92.016 119.903  0.00  0.00     0.149 HD
ENDBRANCH   6  13
BRANCH   5  18
ATOM     18  N   LIG d   1      -5.767  93.994 117.862  0.00  0.00     0.381 N 
ATOM     19  H   LIG d   1      -5.284  94.344 118.665  0.00  0.00    -0.090 HD
ATOM     20  H   LIG d   1      -6.714  94.327 117.894  0.00  0.00    -0.090 HD
ATOM     21  H   LIG d   1      -5.322  94.316 117.031  0.00  0.00    -0.090 HD
ENDBRANCH   5  18
BRANCH   3  22
ATOM     22  C   LIG d   1      -7.676  90.041 115.948  0.00  0.00     0.382 C 
ATOM     23  O   LIG d   1      -8.135  88.981 116.436  0.00  0.00    -0.241 OA
ATOM     24  O   LIG d   1      -8.193  90.516 114.918  0.00  0.00    -0.241 OA
ENDBRANCH   3  22
TORSDOF 7
ENDMDL
MODEL 5
REMARK VINA RESULT:      -4.9      2.639      4.709
REMARK  7 active torsions:
REMARK  status: ('A' for Active; 'I' for Inactive)
REMARK    1  A    between atoms: C_2  and  C_3 
REMARK    2  A    between atoms: C_3  and  O_6 
REMARK    3  A    between atoms: C_3  and  C_4 
REMARK    4  A    between atoms: C_7  and  O_6 
REMARK    5  A    between atoms: C_9  and  C_10 
REMARK    6  A    between atoms: N_15  and  C_14 
REMARK    7  A    between atoms: N_20  and  C_19 
REMARK       I    between atoms: C_22  and  N_20 
ROOT
ATOM      1  C   LIG d   1      -5.845  90.870 119.178  0.00  0.00     0.161 C 
ATOM      2  C   LIG d   1      -5.680  90.177 117.967  0.00  0.00     0.016 C 
ATOM      3  C   LIG d   1      -6.207  90.626 116.735  0.00  0.00     0.038 C 
ATOM      4  C   LIG d   1      -6.812  91.885 116.602  0.00  0.00     0.028 C 
ATOM      5  C   LIG d   1      -7.446  92.392 117.893  0.00  0.00    -0.047 C 
ATOM      6  C   LIG d   1      -6.406  92.300 119.033  0.00  0.00     0.091 C 
ENDROOT
BRANCH   1   7
ATOM      7  O   LIG d   1      -4.600  90.891 119.903  0.00  0.00    -0.368 OA
BRANCH   7   8
ATOM      8  C   LIG d   1      -3.438  90.401 119.189  0.00  0.00     0.119 C 
BRANCH   8   9
ATOM      9  C   LIG d   1      -2.781  89.316 120.063  0.00  0.00     0.028 C 
ATOM     10  C   LIG d   1      -2.915  87.910 119.454  0.00  0.00     0.006 C 
ENDBRANCH   8   9
BRANCH   8  11
ATOM     11  C   LIG d   1      -2.377  91.495 119.034  0.00  0.00     0.028 C 
ATOM     12  C   LIG d   1      -2.689  92.469 117.886  0.00  0.00     0.006 C 
ENDBRANCH   8  11
ENDBRANCH   7   8
ENDBRANCH   1   7
BRANCH   6  13
ATOM     13  N   LIG d   1      -6.970  92.698 120.349  0.00  0.00    -0.311 N 
ATOM     14  C   LIG d   1      -6.883  93.932 120.841  0.00  0.00     0.210 C 
ATOM     15  C   LIG d   1      -7.515  94.123 122.224  0.00  0.00     0.109 C 
ATOM     16  O   LIG d   1      -6.371  94.895 120.251  0.00  0.00    -0.276 OA
ATOM     17  H   LIG d   1      -7.431  91.986 120.881  0.00  0.00     0.149 HD
ENDBRANCH   6  13
BRANCH   5  18
ATOM     18  N   LIG d   1      -7.916  93.769 117.648  0.00  0.00     0.381 N 
ATOM     19  H   LIG d   1      -8.488  94.072 118.411  0.00  0.00    -0.090 HD
ATOM     20  H   LIG d   1      -8.473  93.778 116.812  0.00  0.00    -0.090 HD
ATOM     21  H   LIG d   1      -7.137  94.381 117.544  0.00  0.00    -0.090 HD
ENDBRANCH   5  18
BRANCH   3  22
ATOM     22  C   LIG d   1      -6.168  89.795 115.626  0.00  0.00     0.382 C 
ATOM     23  O   LIG d   1      -7.188  89.658 114.908  0.00  0.00    -0.241 OA
ATOM     24  O   LIG d   1      -5.140  89.144 115.360  0.00  0.00    -0.241 OA
ENDBRANCH   3  22
TORSDOF 7
ENDMDL
MODEL 6
REMARK VINA RESULT:      -4.8      2.140      4.851
REMARK  7 active torsions:
REMARK  status: ('A' for Active; 'I' for Inactive)
REMARK    1  A    between atoms: C_2  and  C_3 
REMARK    2  A    between atoms: C_3  and  O_6 
REMARK    3  A    between atoms: C_3  and  C_4 
REMARK    4  A    between atoms: C_7  and  O_6 
REMARK    5  A    between atoms: C_9  and  C_10 
REMARK    6  A    between atoms: N_15  and  C_14 
REMARK    7  A    between atoms: N_20  and  C_19 
REMARK       I    between atoms: C_22  and  N_20 
ROOT
ATOM      1  C   LIG d   1      -5.478  92.849 118.102  0.00  0.00     0.161 C 
ATOM      2  C   LIG d   1      -6.759  93.403 117.944  0.00  0.00     0.016 C 
ATOM      3  C   LIG d   1      -7.164  94.612 118.553  0.00  0.00     0.038 C 
ATOM      4  C   LIG d   1      -6.261  95.433 119.245  0.00  0.00     0.028 C 
ATOM      5  C   LIG d   1      -5.091  94.668 119.854  0.00  0.00    -0.047 C 
ATOM      6  C   LIG d   1      -4.445  93.786 118.762  0.00  0.00     0.091 C 
ENDROOT
BRANCH   1   7
ATOM      7  O   LIG d   1      -4.988  92.379 116.830  0.00  0.00    -0.368 OA
BRANCH   7   8
ATOM      8  C   LIG d   1      -4.654  90.972 116.756  0.00  0.00     0.119 C 
BRANCH   8   9
ATOM      9  C   LIG d   1      -5.485  90.358 115.613  0.00  0.00     0.028 C 
ATOM     10  C   LIG d   1      -6.105  91.427 114.698  0.00  0.00     0.006 C 
ENDBRANCH   8   9
BRANCH   8  11
ATOM     11  C   LIG d   1      -5.092  90.227 118.021  0.00  0.00     0.028 C 
ATOM     12  C   LIG d   1      -3.938  89.472 118.698  0.00  0.00     0.006 C 
ENDBRANCH   8  11
ENDBRANCH   7   8
ENDBRANCH   1   7
BRANCH   6  13
ATOM     13  N   LIG d   1      -3.345  92.940 119.293  0.00  0.00    -0.311 N 
ATOM     14  C   LIG d   1      -2.134  92.880 118.742  0.00  0.00     0.210 C 
ATOM     15  C   LIG d   1      -1.153  91.930 119.436  0.00  0.00     0.109 C 
ATOM     16  O   LIG d   1      -1.769  93.547 117.762  0.00  0.00    -0.276 OA
ATOM     17  H   LIG d   1      -3.544  92.390 120.105  0.00  0.00     0.149 HD
ENDBRANCH   6  13
BRANCH   5  18
ATOM     18  N   LIG d   1      -4.159  95.659 120.424  0.00  0.00     0.381 N 
ATOM     19  H   LIG d   1      -3.651  96.108 119.689  0.00  0.00    -0.090 HD
ATOM     20  H   LIG d   1      -3.502  95.184 121.017  0.00  0.00    -0.090 HD
ATOM     21  H   LIG d   1      -4.663  96.338 120.951  0.00  0.00    -0.090 HD
ENDBRANCH   5  18
BRANCH   3  22
ATOM     22  C   LIG d   1      -8.497  94.992 118.508  0.00  0.00     0.382 C 
ATOM     23  O   LIG d   1      -9.381  94.145 118.231  0.00  0.00    -0.241 OA
ATOM     24  O   LIG d   1      -8.823  96.179 118.696  0.00  0.00    -0.241 OA
ENDBRANCH   3  22
TORSDOF 7
ENDMDL
MODEL 7
REMARK VINA RESULT:      -4.7     32.620     35.152
REMARK  7 active torsions:
REMARK  status: ('A' for Active; 'I' for Inactive)
REMARK    1  A    between atoms: C_2  and  C_3 
REMARK    2  A    between atoms: C_3  and  O_6 
REMARK    3  A    between atoms: C_3  and  C_4 
REMARK    4  A    between atoms: C_7  and  O_6 
REMARK    5  A    between atoms: C_9  and  C_10 
REMARK    6  A    between atoms: N_15  and  C_14 
REMARK    7  A    between atoms: N_20  and  C_19 
REMARK       I    between atoms: C_22  and  N_20 
ROOT
ATOM      1  C   LIG d   1       1.725  58.071 119.930  0.00  0.00     0.161 C 
ATOM      2  C   LIG d   1       2.418  59.256 119.632  0.00  0.00     0.016 C 
ATOM      3  C   LIG d   1       3.298  59.388 118.533  0.00  0.00     0.038 C 
ATOM      4  C   LIG d   1       3.429  58.383 117.564  0.00  0.00     0.028 C 
ATOM      5  C   LIG d   1       3.136  56.985 118.097  0.00  0.00    -0.047 C 
ATOM      6  C   LIG d   1       1.770  57.000 118.820  0.00  0.00     0.091 C 
ENDROOT
BRANCH   1   7
ATOM      7  O   LIG d   1       0.360  58.377 120.276  0.00  0.00    -0.368 OA
BRANCH   7   8
ATOM      8  C   LIG d   1       0.152  59.600 121.026  0.00  0.00     0.119 C 
BRANCH   8   9
ATOM      9  C   LIG d   1       0.500  59.305 122.498  0.00  0.00     0.028 C 
ATOM     10  C   LIG d   1       1.378  60.401 123.124  0.00  0.00     0.006 C 
ENDBRANCH   8   9
BRANCH   8  11
ATOM     11  C   LIG d   1      -1.326  60.004 121.031  0.00  0.00     0.028 C 
ATOM     12  C   LIG d   1      -1.559  61.415 120.468  0.00  0.00     0.006 C 
ENDBRANCH   8  11
ENDBRANCH   7   8
ENDBRANCH   1   7
BRANCH   6  13
ATOM     13  N   LIG d   1       1.445  55.691 119.445  0.00  0.00    -0.311 N 
ATOM     14  C   LIG d   1       0.754  54.735 118.827  0.00  0.00     0.210 C 
ATOM     15  C   LIG d   1       0.513  53.471 119.658  0.00  0.00     0.109 C 
ATOM     16  O   LIG d   1       0.347  54.800 117.657  0.00  0.00    -0.276 OA
ATOM     17  H   LIG d   1       1.764  55.541 120.382  0.00  0.00     0.149 HD
ENDBRANCH   6  13
BRANCH   5  18
ATOM     18  N   LIG d   1       3.174  56.054 116.953  0.00  0.00     0.381 N 
ATOM     19  H   LIG d   1       2.492  55.334 117.080  0.00  0.00    -0.090 HD
ATOM     20  H   LIG d   1       4.082  55.625 116.913  0.00  0.00    -0.090 HD
ATOM     21  H   LIG d   1       2.994  56.547 116.106  0.00  0.00    -0.090 HD
ENDBRANCH   5  18
BRANCH   3  22
ATOM     22  C   LIG d   1       4.089  60.521 118.418  0.00  0.00     0.382 C 
ATOM     23  O   LIG d   1       4.924  60.611 117.486  0.00  0.00    -0.241 OA
ATOM     24  O   LIG d   1       4.009  61.435 119.261  0.00  0.00    -0.241 OA
ENDBRANCH   3  22
TORSDOF 7
ENDMDL
MODEL 8
REMARK VINA RESULT:      -4.7      2.794      4.636
REMARK  7 active torsions:
REMARK  status: ('A' for Active; 'I' for Inactive)
REMARK    1  A    between atoms: C_2  and  C_3 
REMARK    2  A    between atoms: C_3  and  O_6 
REMARK    3  A    between atoms: C_3  and  C_4 
REMARK    4  A    between atoms: C_7  and  O_6 
REMARK    5  A    between atoms: C_9  and  C_10 
REMARK    6  A    between atoms: N_15  and  C_14 
REMARK    7  A    between atoms: N_20  and  C_19 
REMARK       I    between atoms: C_22  and  N_20 
ROOT
ATOM      1  C   LIG d   1      -5.708  90.643 118.858  0.00  0.00     0.161 C 
ATOM      2  C   LIG d   1      -5.785  90.660 117.456  0.00  0.00     0.016 C 
ATOM      3  C   LIG d   1      -6.466  91.662 116.726  0.00  0.00     0.038 C 
ATOM      4  C   LIG d   1      -6.991  92.805 117.348  0.00  0.00     0.028 C 
ATOM      5  C   LIG d   1      -7.376  92.578 118.806  0.00  0.00    -0.047 C 
ATOM      6  C   LIG d   1      -6.179  91.941 119.548  0.00  0.00     0.091 C 
ENDROOT
BRANCH   1   7
ATOM      7  O   LIG d   1      -4.365  90.316 119.269  0.00  0.00    -0.368 OA
BRANCH   7   8
ATOM      8  C   LIG d   1      -3.470  91.437 119.473  0.00  0.00     0.119 C 
BRANCH   8   9
ATOM      9  C   LIG d   1      -2.377  91.360 118.390  0.00  0.00     0.028 C 
ATOM     10  C   LIG d   1      -2.014  92.743 117.823  0.00  0.00     0.006 C 
ENDBRANCH   8   9
BRANCH   8  11
ATOM     11  C   LIG d   1      -2.727  91.322 120.808  0.00  0.00     0.028 C 
ATOM     12  C   LIG d   1      -3.196  90.123 121.648  0.00  0.00     0.006 C 
ENDBRANCH   8  11
ENDBRANCH   7   8
ENDBRANCH   1   7
BRANCH   6  13
ATOM     13  N   LIG d   1      -6.499  91.609 120.961  0.00  0.00    -0.311 N 
ATOM     14  C   LIG d   1      -6.197  92.402 121.987  0.00  0.00     0.210 C 
ATOM     15  C   LIG d   1      -6.598  91.861 123.363  0.00  0.00     0.109 C 
ATOM     16  O   LIG d   1      -5.664  93.517 121.886  0.00  0.00    -0.276 OA
ATOM     17  H   LIG d   1      -6.960  90.736 121.131  0.00  0.00     0.149 HD
ENDBRANCH   6  13
BRANCH   5  18
ATOM     18  N   LIG d   1      -7.777  93.881 119.369  0.00  0.00     0.381 N 
ATOM     19  H   LIG d   1      -7.170  94.599 119.027  0.00  0.00    -0.090 HD
ATOM     20  H   LIG d   1      -7.690  93.844 120.369  0.00  0.00    -0.090 HD
ATOM     21  H   LIG d   1      -8.719  94.086 119.118  0.00  0.00    -0.090 HD
ENDBRANCH   5  18
BRANCH   3  22
ATOM     22  C   LIG d   1      -6.663  91.505 115.363  0.00  0.00     0.382 C 
ATOM     23  O   LIG d   1      -5.776  91.875 114.555  0.00  0.00    -0.241 OA
ATOM     24  O   LIG d   1      -7.733  91.040 114.928  0.00  0.00    -0.241 OA
ENDBRANCH   3  22
TORSDOF 7
ENDMDL
MODEL 9
REMARK VINA RESULT:      -4.5     31.132     33.468
REMARK  7 active torsions:
REMARK  status: ('A' for Active; 'I' for Inactive)
REMARK    1  A    between atoms: C_2  and  C_3 
REMARK    2  A    between atoms: C_3  and  O_6 
REMARK    3  A    between atoms: C_3  and  C_4 
REMARK    4  A    between atoms: C_7  and  O_6 
REMARK    5  A    between atoms: C_9  and  C_10 
REMARK    6  A    between atoms: N_15  and  C_14 
REMARK    7  A    between atoms: N_20  and  C_19 
REMARK       I    between atoms: C_22  and  N_20 
ROOT
ATOM      1  C   LIG d   1       1.531  60.609 121.907  0.00  0.00     0.161 C 
ATOM      2  C   LIG d   1       0.874  61.413 122.852  0.00  0.00     0.016 C 
ATOM      3  C   LIG d   1      -0.529  61.420 123.028  0.00  0.00     0.038 C 
ATOM      4  C   LIG d   1      -1.363  60.505 122.368  0.00  0.00     0.028 C 
ATOM      5  C   LIG d   1      -0.799  60.022 121.036  0.00  0.00    -0.047 C 
ATOM      6  C   LIG d   1       0.648  59.524 121.255  0.00  0.00     0.091 C 
ENDROOT
BRANCH   1   7
ATOM      7  O   LIG d   1       2.701  60.013 122.501  0.00  0.00    -0.368 OA
BRANCH   7   8
ATOM      8  C   LIG d   1       3.962  60.671 122.224  0.00  0.00     0.119 C 
BRANCH   8   9
ATOM      9  C   LIG d   1       4.597  59.963 121.012  0.00  0.00     0.028 C 
ATOM     10  C   LIG d   1       4.543  60.820 119.737  0.00  0.00     0.006 C 
ENDBRANCH   8   9
BRANCH   8  11
ATOM     11  C   LIG d   1       4.955  60.477 123.374  0.00  0.00     0.028 C 
ATOM     12  C   LIG d   1       6.344  61.059 123.065  0.00  0.00     0.006 C 
ENDBRANCH   8  11
ENDBRANCH   7   8
ENDBRANCH   1   7
BRANCH   6  13
ATOM     13  N   LIG d   1       1.304  59.112 119.987  0.00  0.00    -0.311 N 
ATOM     14  C   LIG d   1       1.339  57.853 119.555  0.00  0.00     0.210 C 
ATOM     15  C   LIG d   1       2.084  57.643 118.233  0.00  0.00     0.109 C 
ATOM     16  O   LIG d   1       0.797  56.894 120.125  0.00  0.00    -0.276 OA
ATOM     17  H   LIG d   1       1.742  59.831 119.446  0.00  0.00     0.149 HD
ENDBRANCH   6  13
BRANCH   5  18
ATOM     18  N   LIG d   1      -1.700  58.973 120.524  0.00  0.00     0.381 N 
ATOM     19  H   LIG d   1      -1.221  58.417 119.844  0.00  0.00    -0.090 HD
ATOM     20  H   LIG d   1      -2.487  59.410 120.077  0.00  0.00    -0.090 HD
ATOM     21  H   LIG d   1      -2.013  58.396 121.274  0.00  0.00    -0.090 HD
ENDBRANCH   5  18
BRANCH   3  22
ATOM     22  C   LIG d   1      -1.116  62.377 123.842  0.00  0.00     0.382 C 
ATOM     23  O   LIG d   1      -0.930  63.596 123.611  0.00  0.00    -0.241 OA
ATOM     24  O   LIG d   1      -1.792  62.036 124.831  0.00  0.00    -0.241 OA
ENDBRANCH   3  22
TORSDOF 7
ENDMDL
