MODEL 1
REMARK VINA RESULT:      -5.7      0.000      0.000
REMARK  7 active torsions:
REMARK  status: ('A' for Active; 'I' for Inactive)
REMARK    1  A    between atoms: C_2  and  C_3 
REMARK    2  A    between atoms: C_3  and  O_6 
REMARK    3  A    between atoms: C_3  and  C_4 
REMARK    4  A    between atoms: C_7  and  O_6 
REMARK    5  A    between atoms: C_9  and  C_10 
REMARK    6  A    between atoms: N_15  and  C_14 
REMARK    7  A    between atoms: N_20  and  C_19 
REMARK       I    between atoms: C_22  and  N_20 
ROOT
ATOM      1  C   LIG d   1      -5.509  92.033 118.822  0.00  0.00     0.161 C 
ATOM      2  C   LIG d   1      -4.459  92.308 119.715  0.00  0.00     0.016 C 
ATOM      3  C   LIG d   1      -3.120  91.919 119.485  0.00  0.00     0.038 C 
ATOM      4  C   LIG d   1      -2.710  91.357 118.267  0.00  0.00     0.028 C 
ATOM      5  C   LIG d   1      -3.821  90.603 117.543  0.00  0.00    -0.047 C 
ATOM      6  C   LIG d   1      -5.062  91.519 117.438  0.00  0.00     0.091 C 
ENDROOT
BRANCH   1   7
ATOM      7  O   LIG d   1      -6.345  93.198 118.678  0.00  0.00    -0.368 OA
BRANCH   7   8
ATOM      8  C   LIG d   1      -6.329  94.135 119.783  0.00  0.00     0.119 C 
BRANCH   8   9
ATOM      9  C   LIG d   1      -7.787  94.341 120.237  0.00  0.00     0.028 C 
ATOM     10  C   LIG d   1      -8.748  94.541 119.053  0.00  0.00     0.006 C 
ENDBRANCH   8   9
BRANCH   8  11
ATOM     11  C   LIG d   1      -5.846  95.518 119.334  0.00  0.00     0.028 C 
ATOM     12  C   LIG d   1      -4.661  96.033 120.165  0.00  0.00     0.006 C 
ENDBRANCH   8  11
ENDBRANCH   7   8
ENDBRANCH   1   7
BRANCH   6  13
ATOM     13  N   LIG d   1      -6.224  90.831 116.817  0.00  0.00    -0.311 N 
ATOM     14  C   LIG d   1      -6.524  90.922 115.523  0.00  0.00     0.210 C 
ATOM     15  C   LIG d   1      -7.775  90.149 115.094  0.00  0.00     0.109 C 
ATOM     16  O   LIG d   1      -5.856  91.543 114.683  0.00  0.00    -0.276 OA
ATOM     17  H   LIG d   1      -6.802  90.279 117.420  0.00  0.00     0.149 HD
ENDBRANCH   6  13
BRANCH   5  18
ATOM     18  N   LIG d   1      -3.295  90.188 116.229  0.00  0.00     0.381 N 
ATOM     19  H   LIG d   1      -3.994  89.674 115.731  0.00  0.00    -0.090 HD
ATOM     20  H   LIG d   1      -2.503  89.587 116.371  0.00  0.00    -0.090 HD
ATOM     21  H   LIG d   1      -3.024  90.989 115.702  0.00  0.00    -0.090 HD
ENDBRANCH   5  18
BRANCH   3  22
ATOM     22  C   LIG d   1      -2.181  92.055 120.496  0.00  0.00     0.382 C 
ATOM     23  O   LIG d   1      -2.380  92.868 121.431  0.00  0.00    -0.241 OA
ATOM     24  O   LIG d   1      -1.118  91.407 120.463  0.00  0.00    -0.241 OA
ENDBRANCH   3  22
TORSDOF 7
ENDMDL
MODEL 2
REMARK VINA RESULT:      -5.5      2.425      6.055
REMARK  7 active torsions:
REMARK  status: ('A' for Active; 'I' for Inactive)
REMARK    1  A    between atoms: C_2  and  C_3 
REMARK    2  A    between atoms: C_3  and  O_6 
REMARK    3  A    between atoms: C_3  and  C_4 
REMARK    4  A    between atoms: C_7  and  O_6 
REMARK    5  A    between atoms: C_9  and  C_10 
REMARK    6  A    between atoms: N_15  and  C_14 
REMARK    7  A    between atoms: N_20  and  C_19 
REMARK       I    between atoms: C_22  and  N_20 
ROOT
ATOM      1  C   LIG d   1      -3.885  91.342 117.880  0.00  0.00     0.161 C 
ATOM      2  C   LIG d   1      -4.178  90.637 116.701  0.00  0.00     0.016 C 
ATOM      3  C   LIG d   1      -5.456  90.625 116.098  0.00  0.00     0.038 C 
ATOM      4  C   LIG d   1      -6.498  91.446 116.553  0.00  0.00     0.028 C 
ATOM      5  C   LIG d   1      -6.397  91.788 118.036  0.00  0.00    -0.047 C 
ATOM      6  C   LIG d   1      -4.980  92.333 118.329  0.00  0.00     0.091 C 
ENDROOT
BRANCH   1   7
ATOM      7  O   LIG d   1      -2.622  92.022 117.742  0.00  0.00    -0.368 OA
BRANCH   7   8
ATOM      8  C   LIG d   1      -1.467  91.335 118.284  0.00  0.00     0.119 C 
BRANCH   8   9
ATOM      9  C   LIG d   1      -1.282  91.815 119.737  0.00  0.00     0.028 C 
ATOM     10  C   LIG d   1       0.184  92.141 120.066  0.00  0.00     0.006 C 
ENDBRANCH   8   9
BRANCH   8  11
ATOM     11  C   LIG d   1      -0.183  91.744 117.556  0.00  0.00     0.028 C 
ATOM     12  C   LIG d   1       0.318  90.667 116.581  0.00  0.00     0.006 C 
ENDBRANCH   8  11
ENDBRANCH   7   8
ENDBRANCH   1   7
BRANCH   6  13
ATOM     13  N   LIG d   1      -4.768  92.613 119.773  0.00  0.00    -0.311 N 
ATOM     14  C   LIG d   1      -4.532  93.831 120.257  0.00  0.00     0.210 C 
ATOM     15  C   LIG d   1      -4.322  93.895 121.773  0.00  0.00     0.109 C 
ATOM     16  O   LIG d   1      -4.507  94.869 119.578  0.00  0.00    -0.276 OA
ATOM     17  H   LIG d   1      -4.803  91.832 120.399  0.00  0.00     0.149 HD
ENDBRANCH   6  13
BRANCH   5  18
ATOM     18  N   LIG d   1      -7.465  92.757 118.344  0.00  0.00     0.381 N 
ATOM     19  H   LIG d   1      -7.208  93.663 118.006  0.00  0.00    -0.090 HD
ATOM     20  H   LIG d   1      -7.575  92.813 119.341  0.00  0.00    -0.090 HD
ATOM     21  H   LIG d   1      -8.320  92.468 117.923  0.00  0.00    -0.090 HD
ENDBRANCH   5  18
BRANCH   3  22
ATOM     22  C   LIG d   1      -5.714  89.754 115.050  0.00  0.00     0.382 C 
ATOM     23  O   LIG d   1      -4.783  89.068 114.562  0.00  0.00    -0.241 OA
ATOM     24  O   LIG d   1      -6.855  89.679 114.557  0.00  0.00    -0.241 OA
ENDBRANCH   3  22
TORSDOF 7
ENDMDL
MODEL 3
REMARK VINA RESULT:      -5.3      1.660      4.571
REMARK  7 active torsions:
REMARK  status: ('A' for Active; 'I' for Inactive)
REMARK    1  A    between atoms: C_2  and  C_3 
REMARK    2  A    between atoms: C_3  and  O_6 
REMARK    3  A    between atoms: C_3  and  C_4 
REMARK    4  A    between atoms: C_7  and  O_6 
REMARK    5  A    between atoms: C_9  and  C_10 
REMARK    6  A    between atoms: N_15  and  C_14 
REMARK    7  A    between atoms: N_20  and  C_19 
REMARK       I    between atoms: C_22  and  N_20 
ROOT
ATOM      1  C   LIG d   1      -5.417  92.892 118.760  0.00  0.00     0.161 C 
ATOM      2  C   LIG d   1      -6.254  92.152 117.909  0.00  0.00     0.016 C 
ATOM      3  C   LIG d   1      -5.778  91.164 117.016  0.00  0.00     0.038 C 
ATOM      4  C   LIG d   1      -4.441  90.741 117.022  0.00  0.00     0.028 C 
ATOM      5  C   LIG d   1      -3.469  91.812 117.508  0.00  0.00    -0.047 C 
ATOM      6  C   LIG d   1      -3.970  92.367 118.861  0.00  0.00     0.091 C 
ENDROOT
BRANCH   1   7
ATOM      7  O   LIG d   1      -6.010  92.982 120.071  0.00  0.00    -0.368 OA
BRANCH   7   8
ATOM      8  C   LIG d   1      -6.418  94.305 120.497  0.00  0.00     0.119 C 
BRANCH   8   9
ATOM      9  C   LIG d   1      -7.954  94.300 120.618  0.00  0.00     0.028 C 
ATOM     10  C   LIG d   1      -8.648  94.680 119.300  0.00  0.00     0.006 C 
ENDBRANCH   8   9
BRANCH   8  11
ATOM     11  C   LIG d   1      -6.099  95.357 119.430  0.00  0.00     0.028 C 
ATOM     12  C   LIG d   1      -5.151  96.454 119.939  0.00  0.00     0.006 C 
ENDBRANCH   8  11
ENDBRANCH   7   8
ENDBRANCH   1   7
BRANCH   6  13
ATOM     13  N   LIG d   1      -3.122  93.478 119.366  0.00  0.00    -0.311 N 
ATOM     14  C   LIG d   1      -2.659  93.538 120.613  0.00  0.00     0.210 C 
ATOM     15  C   LIG d   1      -1.821  94.780 120.932  0.00  0.00     0.109 C 
ATOM     16  O   LIG d   1      -2.835  92.665 121.476  0.00  0.00    -0.276 OA
ATOM     17  H   LIG d   1      -2.905  94.214 118.723  0.00  0.00     0.149 HD
ENDBRANCH   6  13
BRANCH   5  18
ATOM     18  N   LIG d   1      -2.133  91.194 117.595  0.00  0.00     0.381 N 
ATOM     19  H   LIG d   1      -2.192  90.327 118.091  0.00  0.00    -0.090 HD
ATOM     20  H   LIG d   1      -1.523  91.809 118.106  0.00  0.00    -0.090 HD
ATOM     21  H   LIG d   1      -1.769  91.038 116.681  0.00  0.00    -0.090 HD
ENDBRANCH   5  18
BRANCH   3  22
ATOM     22  C   LIG d   1      -6.638  90.617 116.075  0.00  0.00     0.382 C 
ATOM     23  O   LIG d   1      -7.580  91.303 115.612  0.00  0.00    -0.241 OA
ATOM     24  O   LIG d   1      -6.509  89.431 115.717  0.00  0.00    -0.241 OA
ENDBRANCH   3  22
TORSDOF 7
ENDMDL
MODEL 4
REMARK VINA RESULT:      -5.1     14.171     16.757
REMARK  7 active torsions:
REMARK  status: ('A' for Active; 'I' for Inactive)
REMARK    1  A    between atoms: C_2  and  C_3 
REMARK    2  A    between atoms: C_3  and  O_6 
REMARK    3  A    between atoms: C_3  and  C_4 
REMARK    4  A    between atoms: C_7  and  O_6 
REMARK    5  A    between atoms: C_9  and  C_10 
REMARK    6  A    between atoms: N_15  and  C_14 
REMARK    7  A    between atoms: N_20  and  C_19 
REMARK       I    between atoms: C_22  and  N_20 
ROOT
ATOM      1  C   LIG d   1      -6.361  76.456 116.565  0.00  0.00     0.161 C 
ATOM      2  C   LIG d   1      -7.725  76.215 116.798  0.00  0.00     0.016 C 
ATOM      3  C   LIG d   1      -8.521  77.010 117.654  0.00  0.00     0.038 C 
ATOM      4  C   LIG d   1      -8.039  78.200 118.221  0.00  0.00     0.028 C 
ATOM      5  C   LIG d   1      -6.527  78.208 118.418  0.00  0.00    -0.047 C 
ATOM      6  C   LIG d   1      -5.846  77.814 117.087  0.00  0.00     0.091 C 
ENDROOT
BRANCH   1   7
ATOM      7  O   LIG d   1      -6.074  76.319 115.159  0.00  0.00    -0.368 OA
BRANCH   7   8
ATOM      8  C   LIG d   1      -5.380  75.110 114.765  0.00  0.00     0.119 C 
BRANCH   8   9
ATOM      9  C   LIG d   1      -5.462  74.124 115.946  0.00  0.00     0.028 C 
ATOM     10  C   LIG d   1      -6.361  72.915 115.640  0.00  0.00     0.006 C 
ENDBRANCH   8   9
BRANCH   8  11
ATOM     11  C   LIG d   1      -3.885  75.369 114.556  0.00  0.00     0.028 C 
ATOM     12  C   LIG d   1      -3.016  74.790 115.684  0.00  0.00     0.006 C 
ENDBRANCH   8  11
ENDBRANCH   7   8
ENDBRANCH   1   7
BRANCH   6  13
ATOM     13  N   LIG d   1      -4.368  77.716 117.214  0.00  0.00    -0.311 N 
ATOM     14  C   LIG d   1      -3.521  78.478 116.524  0.00  0.00     0.210 C 
ATOM     15  C   LIG d   1      -2.038  78.200 116.790  0.00  0.00     0.109 C 
ATOM     16  O   LIG d   1      -3.857  79.379 115.741  0.00  0.00    -0.276 OA
ATOM     17  H   LIG d   1      -4.009  77.032 117.851  0.00  0.00     0.149 HD
ENDBRANCH   6  13
BRANCH   5  18
ATOM     18  N   LIG d   1      -6.146  79.554 118.886  0.00  0.00     0.381 N 
ATOM     19  H   LIG d   1      -6.883  79.941 119.441  0.00  0.00    -0.090 HD
ATOM     20  H   LIG d   1      -6.006  80.148 118.088  0.00  0.00    -0.090 HD
ATOM     21  H   LIG d   1      -5.307  79.504 119.422  0.00  0.00    -0.090 HD
ENDBRANCH   5  18
BRANCH   3  22
ATOM     22  C   LIG d   1      -9.802  76.596 117.983  0.00  0.00     0.382 C 
ATOM     23  O   LIG d   1     -10.233  75.496 117.561  0.00  0.00    -0.241 OA
ATOM     24  O   LIG d   1     -10.549  77.328 118.659  0.00  0.00    -0.241 OA
ENDBRANCH   3  22
TORSDOF 7
ENDMDL
MODEL 5
REMARK VINA RESULT:      -4.8     33.193     35.142
REMARK  7 active torsions:
REMARK  status: ('A' for Active; 'I' for Inactive)
REMARK    1  A    between atoms: C_2  and  C_3 
REMARK    2  A    between atoms: C_3  and  O_6 
REMARK    3  A    between atoms: C_3  and  C_4 
REMARK    4  A    between atoms: C_7  and  O_6 
REMARK    5  A    between atoms: C_9  and  C_10 
REMARK    6  A    between atoms: N_15  and  C_14 
REMARK    7  A    between atoms: N_20  and  C_19 
REMARK       I    between atoms: C_22  and  N_20 
ROOT
ATOM      1  C   LIG d   1       0.299  58.523 118.984  0.00  0.00     0.161 C 
ATOM      2  C   LIG d   1      -0.978  58.890 118.527  0.00  0.00     0.016 C 
ATOM      3  C   LIG d   1      -1.580  58.337 117.373  0.00  0.00     0.038 C 
ATOM      4  C   LIG d   1      -1.003  57.262 116.679  0.00  0.00     0.028 C 
ATOM      5  C   LIG d   1       0.515  57.202 116.808  0.00  0.00    -0.047 C 
ATOM      6  C   LIG d   1       0.895  57.273 118.304  0.00  0.00     0.091 C 
ENDROOT
BRANCH   1   7
ATOM      7  O   LIG d   1       0.274  58.351 120.415  0.00  0.00    -0.368 OA
BRANCH   7   8
ATOM      8  C   LIG d   1      -0.985  58.642 121.071  0.00  0.00     0.119 C 
BRANCH   8   9
ATOM      9  C   LIG d   1      -0.689  59.608 122.235  0.00  0.00     0.028 C 
ATOM     10  C   LIG d   1      -0.479  61.055 121.759  0.00  0.00     0.006 C 
ENDBRANCH   8   9
BRANCH   8  11
ATOM     11  C   LIG d   1      -1.576  57.389 121.723  0.00  0.00     0.028 C 
ATOM     12  C   LIG d   1      -3.010  57.093 121.254  0.00  0.00     0.006 C 
ENDBRANCH   8  11
ENDBRANCH   7   8
ENDBRANCH   1   7
BRANCH   6  13
ATOM     13  N   LIG d   1       2.366  57.305 118.515  0.00  0.00    -0.311 N 
ATOM     14  C   LIG d   1       3.100  56.215 118.731  0.00  0.00     0.210 C 
ATOM     15  C   LIG d   1       4.595  56.473 118.943  0.00  0.00     0.109 C 
ATOM     16  O   LIG d   1       2.659  55.056 118.735  0.00  0.00    -0.276 OA
ATOM     17  H   LIG d   1       2.810  58.203 118.496  0.00  0.00     0.149 HD
ENDBRANCH   6  13
BRANCH   5  18
ATOM     18  N   LIG d   1       0.969  55.961 116.154  0.00  0.00     0.381 N 
ATOM     19  H   LIG d   1       1.862  56.110 115.727  0.00  0.00    -0.090 HD
ATOM     20  H   LIG d   1       0.313  55.713 115.434  0.00  0.00    -0.090 HD
ATOM     21  H   LIG d   1       1.032  55.226 116.823  0.00  0.00    -0.090 HD
ENDBRANCH   5  18
BRANCH   3  22
ATOM     22  C   LIG d   1      -2.753  58.886 116.879  0.00  0.00     0.382 C 
ATOM     23  O   LIG d   1      -3.802  58.846 117.566  0.00  0.00    -0.241 OA
ATOM     24  O   LIG d   1      -2.786  59.382 115.737  0.00  0.00    -0.241 OA
ENDBRANCH   3  22
TORSDOF 7
ENDMDL
MODEL 6
REMARK VINA RESULT:      -4.8     33.998     36.053
REMARK  7 active torsions:
REMARK  status: ('A' for Active; 'I' for Inactive)
REMARK    1  A    between atoms: C_2  and  C_3 
REMARK    2  A    between atoms: C_3  and  O_6 
REMARK    3  A    between atoms: C_3  and  C_4 
REMARK    4  A    between atoms: C_7  and  O_6 
REMARK    5  A    between atoms: C_9  and  C_10 
REMARK    6  A    between atoms: N_15  and  C_14 
REMARK    7  A    between atoms: N_20  and  C_19 
REMARK       I    between atoms: C_22  and  N_20 
ROOT
ATOM      1  C   LIG d   1      -1.304  56.746 118.842  0.00  0.00     0.161 C 
ATOM      2  C   LIG d   1      -1.007  57.272 117.574  0.00  0.00     0.016 C 
ATOM      3  C   LIG d   1      -1.317  58.596 117.188  0.00  0.00     0.038 C 
ATOM      4  C   LIG d   1      -1.813  59.538 118.102  0.00  0.00     0.028 C 
ATOM      5  C   LIG d   1      -2.597  58.912 119.251  0.00  0.00    -0.047 C 
ATOM      6  C   LIG d   1      -1.744  57.792 119.888  0.00  0.00     0.091 C 
ENDROOT
BRANCH   1   7
ATOM      7  O   LIG d   1      -0.180  55.989 119.332  0.00  0.00    -0.368 OA
BRANCH   7   8
ATOM      8  C   LIG d   1      -0.455  54.620 119.721  0.00  0.00     0.119 C 
BRANCH   8   9
ATOM      9  C   LIG d   1       0.692  53.746 119.178  0.00  0.00     0.028 C 
ATOM     10  C   LIG d   1       1.147  54.180 117.774  0.00  0.00     0.006 C 
ENDBRANCH   8   9
BRANCH   8  11
ATOM     11  C   LIG d   1      -1.723  54.093 119.044  0.00  0.00     0.028 C 
ATOM     12  C   LIG d   1      -2.702  53.443 120.035  0.00  0.00     0.006 C 
ENDBRANCH   8  11
ENDBRANCH   7   8
ENDBRANCH   1   7
BRANCH   6  13
ATOM     13  N   LIG d   1      -2.469  57.071 120.967  0.00  0.00    -0.311 N 
ATOM     14  C   LIG d   1      -2.004  56.949 122.209  0.00  0.00     0.210 C 
ATOM     15  C   LIG d   1      -2.900  56.149 123.159  0.00  0.00     0.109 C 
ATOM     16  O   LIG d   1      -0.949  57.454 122.622  0.00  0.00    -0.276 OA
ATOM     17  H   LIG d   1      -3.349  56.657 120.727  0.00  0.00     0.149 HD
ENDBRANCH   6  13
BRANCH   5  18
ATOM     18  N   LIG d   1      -2.936  59.991 120.198  0.00  0.00     0.381 N 
ATOM     19  H   LIG d   1      -3.847  59.833 120.579  0.00  0.00    -0.090 HD
ATOM     20  H   LIG d   1      -2.947  60.866 119.705  0.00  0.00    -0.090 HD
ATOM     21  H   LIG d   1      -2.263  60.024 120.932  0.00  0.00    -0.090 HD
ENDBRANCH   5  18
BRANCH   3  22
ATOM     22  C   LIG d   1      -1.169  58.979 115.863  0.00  0.00     0.382 C 
ATOM     23  O   LIG d   1      -0.027  59.225 115.406  0.00  0.00    -0.241 OA
ATOM     24  O   LIG d   1      -2.167  59.125 115.132  0.00  0.00    -0.241 OA
ENDBRANCH   3  22
TORSDOF 7
ENDMDL
MODEL 7
REMARK VINA RESULT:      -4.7     13.785     16.064
REMARK  7 active torsions:
REMARK  status: ('A' for Active; 'I' for Inactive)
REMARK    1  A    between atoms: C_2  and  C_3 
REMARK    2  A    between atoms: C_3  and  O_6 
REMARK    3  A    between atoms: C_3  and  C_4 
REMARK    4  A    between atoms: C_7  and  O_6 
REMARK    5  A    between atoms: C_9  and  C_10 
REMARK    6  A    between atoms: N_15  and  C_14 
REMARK    7  A    between atoms: N_20  and  C_19 
REMARK       I    between atoms: C_22  and  N_20 
ROOT
ATOM      1  C   LIG d   1      -6.419  77.360 117.440  0.00  0.00     0.161 C 
ATOM      2  C   LIG d   1      -6.215  78.750 117.432  0.00  0.00     0.016 C 
ATOM      3  C   LIG d   1      -7.180  79.681 117.882  0.00  0.00     0.038 C 
ATOM      4  C   LIG d   1      -8.363  79.274 118.516  0.00  0.00     0.028 C 
ATOM      5  C   LIG d   1      -8.834  77.888 118.089  0.00  0.00    -0.047 C 
ATOM      6  C   LIG d   1      -7.659  76.893 118.231  0.00  0.00     0.091 C 
ENDROOT
BRANCH   1   7
ATOM      7  O   LIG d   1      -5.236  76.695 117.925  0.00  0.00    -0.368 OA
BRANCH   7   8
ATOM      8  C   LIG d   1      -4.529  75.872 116.966  0.00  0.00     0.119 C 
BRANCH   8   9
ATOM      9  C   LIG d   1      -3.161  76.534 116.708  0.00  0.00     0.028 C 
ATOM     10  C   LIG d   1      -3.179  77.458 115.479  0.00  0.00     0.006 C 
ENDBRANCH   8   9
BRANCH   8  11
ATOM     11  C   LIG d   1      -5.238  75.865 115.608  0.00  0.00     0.028 C 
ATOM     12  C   LIG d   1      -5.680  74.458 115.175  0.00  0.00     0.006 C 
ENDBRANCH   8  11
ENDBRANCH   7   8
ENDBRANCH   1   7
BRANCH   6  13
ATOM     13  N   LIG d   1      -8.010  75.530 117.753  0.00  0.00    -0.311 N 
ATOM     14  C   LIG d   1      -8.384  74.543 118.565  0.00  0.00     0.210 C 
ATOM     15  C   LIG d   1      -8.682  73.211 117.869  0.00  0.00     0.109 C 
ATOM     16  O   LIG d   1      -8.528  74.652 119.792  0.00  0.00    -0.276 OA
ATOM     17  H   LIG d   1      -7.951  75.363 116.768  0.00  0.00     0.149 HD
ENDBRANCH   6  13
BRANCH   5  18
ATOM     18  N   LIG d   1      -9.996  77.534 118.926  0.00  0.00     0.381 N 
ATOM     19  H   LIG d   1      -9.982  78.072 119.769  0.00  0.00    -0.090 HD
ATOM     20  H   LIG d   1      -9.936  76.562 119.171  0.00  0.00    -0.090 HD
ATOM     21  H   LIG d   1     -10.841  77.707 118.427  0.00  0.00    -0.090 HD
ENDBRANCH   5  18
BRANCH   3  22
ATOM     22  C   LIG d   1      -6.982  81.036 117.663  0.00  0.00     0.382 C 
ATOM     23  O   LIG d   1      -6.186  81.678 118.390  0.00  0.00    -0.241 OA
ATOM     24  O   LIG d   1      -7.622  81.633 116.778  0.00  0.00    -0.241 OA
ENDBRANCH   3  22
TORSDOF 7
ENDMDL
MODEL 8
REMARK VINA RESULT:      -4.7     33.670     35.728
REMARK  7 active torsions:
REMARK  status: ('A' for Active; 'I' for Inactive)
REMARK    1  A    between atoms: C_2  and  C_3 
REMARK    2  A    between atoms: C_3  and  O_6 
REMARK    3  A    between atoms: C_3  and  C_4 
REMARK    4  A    between atoms: C_7  and  O_6 
REMARK    5  A    between atoms: C_9  and  C_10 
REMARK    6  A    between atoms: N_15  and  C_14 
REMARK    7  A    between atoms: N_20  and  C_19 
REMARK       I    between atoms: C_22  and  N_20 
ROOT
ATOM      1  C   LIG d   1      -1.415  56.599 118.674  0.00  0.00     0.161 C 
ATOM      2  C   LIG d   1      -1.112  57.176 117.429  0.00  0.00     0.016 C 
ATOM      3  C   LIG d   1      -1.368  58.531 117.116  0.00  0.00     0.038 C 
ATOM      4  C   LIG d   1      -1.810  59.445 118.085  0.00  0.00     0.028 C 
ATOM      5  C   LIG d   1      -2.605  58.795 119.212  0.00  0.00    -0.047 C 
ATOM      6  C   LIG d   1      -1.794  57.607 119.779  0.00  0.00     0.091 C 
ENDROOT
BRANCH   1   7
ATOM      7  O   LIG d   1      -0.319  55.769 119.107  0.00  0.00    -0.368 OA
BRANCH   7   8
ATOM      8  C   LIG d   1       0.887  55.836 118.306  0.00  0.00     0.119 C 
BRANCH   8   9
ATOM      9  C   LIG d   1       1.310  54.389 117.986  0.00  0.00     0.028 C 
ATOM     10  C   LIG d   1       1.260  54.083 116.479  0.00  0.00     0.006 C 
ENDBRANCH   8   9
BRANCH   8  11
ATOM     11  C   LIG d   1       2.052  56.432 119.102  0.00  0.00     0.028 C 
ATOM     12  C   LIG d   1       3.124  57.068 118.202  0.00  0.00     0.006 C 
ENDBRANCH   8  11
ENDBRANCH   7   8
ENDBRANCH   1   7
BRANCH   6  13
ATOM     13  N   LIG d   1      -2.536  56.864 120.830  0.00  0.00    -0.311 N 
ATOM     14  C   LIG d   1      -2.415  57.119 122.132  0.00  0.00     0.210 C 
ATOM     15  C   LIG d   1      -3.255  56.222 123.047  0.00  0.00     0.109 C 
ATOM     16  O   LIG d   1      -1.716  58.023 122.614  0.00  0.00    -0.276 OA
ATOM     17  H   LIG d   1      -3.149  56.134 120.526  0.00  0.00     0.149 HD
ENDBRANCH   6  13
BRANCH   5  18
ATOM     18  N   LIG d   1      -2.883  59.837 120.219  0.00  0.00     0.381 N 
ATOM     19  H   LIG d   1      -2.500  59.566 121.102  0.00  0.00    -0.090 HD
ATOM     20  H   LIG d   1      -3.878  59.932 120.323  0.00  0.00    -0.090 HD
ATOM     21  H   LIG d   1      -2.488  60.705 119.929  0.00  0.00    -0.090 HD
ENDBRANCH   5  18
BRANCH   3  22
ATOM     22  C   LIG d   1      -1.221  58.974 115.811  0.00  0.00     0.382 C 
ATOM     23  O   LIG d   1      -0.081  59.257 115.370  0.00  0.00    -0.241 OA
ATOM     24  O   LIG d   1      -2.218  59.137 115.083  0.00  0.00    -0.241 OA
ENDBRANCH   3  22
TORSDOF 7
ENDMDL
MODEL 9
REMARK VINA RESULT:      -4.7      2.537      3.852
REMARK  7 active torsions:
REMARK  status: ('A' for Active; 'I' for Inactive)
REMARK    1  A    between atoms: C_2  and  C_3 
REMARK    2  A    between atoms: C_3  and  O_6 
REMARK    3  A    between atoms: C_3  and  C_4 
REMARK    4  A    between atoms: C_7  and  O_6 
REMARK    5  A    between atoms: C_9  and  C_10 
REMARK    6  A    between atoms: N_15  and  C_14 
REMARK    7  A    between atoms: N_20  and  C_19 
REMARK       I    between atoms: C_22  and  N_20 
ROOT
ATOM      1  C   LIG d   1      -5.211  94.609 120.569  0.00  0.00     0.161 C 
ATOM      2  C   LIG d   1      -3.867  94.257 120.360  0.00  0.00     0.016 C 
ATOM      3  C   LIG d   1      -3.462  93.199 119.514  0.00  0.00     0.038 C 
ATOM      4  C   LIG d   1      -4.373  92.514 118.697  0.00  0.00     0.028 C 
ATOM      5  C   LIG d   1      -5.793  92.499 119.252  0.00  0.00    -0.047 C 
ATOM      6  C   LIG d   1      -6.211  93.945 119.600  0.00  0.00     0.091 C 
ENDROOT
BRANCH   1   7
ATOM      7  O   LIG d   1      -5.352  96.043 120.530  0.00  0.00    -0.368 OA
BRANCH   7   8
ATOM      8  C   LIG d   1      -5.700  96.615 119.245  0.00  0.00     0.119 C 
BRANCH   8   9
ATOM      9  C   LIG d   1      -4.494  97.446 118.765  0.00  0.00     0.028 C 
ATOM     10  C   LIG d   1      -4.916  98.654 117.912  0.00  0.00     0.006 C 
ENDBRANCH   8   9
BRANCH   8  11
ATOM     11  C   LIG d   1      -6.855  97.612 119.373  0.00  0.00     0.028 C 
ATOM     12  C   LIG d   1      -7.500  97.601 120.768  0.00  0.00     0.006 C 
ENDBRANCH   8  11
ENDBRANCH   7   8
ENDBRANCH   1   7
BRANCH   6  13
ATOM     13  N   LIG d   1      -7.557  94.011 120.228  0.00  0.00    -0.311 N 
ATOM     14  C   LIG d   1      -8.685  94.145 119.533  0.00  0.00     0.210 C 
ATOM     15  C   LIG d   1      -9.961  94.212 120.378  0.00  0.00     0.109 C 
ATOM     16  O   LIG d   1      -8.752  94.183 118.295  0.00  0.00    -0.276 OA
ATOM     17  H   LIG d   1      -7.597  93.957 121.227  0.00  0.00     0.149 HD
ENDBRANCH   6  13
BRANCH   5  18
ATOM     18  N   LIG d   1      -6.662  91.874 118.237  0.00  0.00     0.381 N 
ATOM     19  H   LIG d   1      -6.197  91.867 117.351  0.00  0.00    -0.090 HD
ATOM     20  H   LIG d   1      -7.502  92.419 118.148  0.00  0.00    -0.090 HD
ATOM     21  H   LIG d   1      -6.889  90.943 118.509  0.00  0.00    -0.090 HD
ENDBRANCH   5  18
BRANCH   3  22
ATOM     22  C   LIG d   1      -2.137  92.790 119.510  0.00  0.00     0.382 C 
ATOM     23  O   LIG d   1      -1.850  91.593 119.749  0.00  0.00    -0.241 OA
ATOM     24  O   LIG d   1      -1.223  93.614 119.316  0.00  0.00    -0.241 OA
ENDBRANCH   3  22
TORSDOF 7
ENDMDL
