MODEL 1
REMARK VINA RESULT:      -5.1      0.000      0.000
REMARK  7 active torsions:
REMARK  status: ('A' for Active; 'I' for Inactive)
REMARK    1  A    between atoms: C_2  and  C_3 
REMARK    2  A    between atoms: C_3  and  O_6 
REMARK    3  A    between atoms: C_3  and  C_4 
REMARK    4  A    between atoms: C_7  and  O_6 
REMARK    5  A    between atoms: C_9  and  C_10 
REMARK    6  A    between atoms: N_15  and  C_14 
REMARK    7  A    between atoms: N_20  and  C_19 
REMARK       I    between atoms: C_22  and  N_20 
ROOT
ATOM      1  C   LIG d   1      -6.650  93.725 117.936  0.00  0.00     0.161 C 
ATOM      2  C   LIG d   1      -7.257  92.894 116.979  0.00  0.00     0.016 C 
ATOM      3  C   LIG d   1      -6.589  91.822 116.345  0.00  0.00     0.038 C 
ATOM      4  C   LIG d   1      -5.307  91.410 116.739  0.00  0.00     0.028 C 
ATOM      5  C   LIG d   1      -4.470  92.532 117.345  0.00  0.00    -0.047 C 
ATOM      6  C   LIG d   1      -5.288  93.223 118.459  0.00  0.00     0.091 C 
ENDROOT
BRANCH   1   7
ATOM      7  O   LIG d   1      -7.557  93.949 119.034  0.00  0.00    -0.368 OA
BRANCH   7   8
ATOM      8  C   LIG d   1      -8.474  95.061 118.888  0.00  0.00     0.119 C 
BRANCH   8   9
ATOM      9  C   LIG d   1      -7.649  96.285 118.444  0.00  0.00     0.028 C 
ATOM     10  C   LIG d   1      -7.010  97.024 119.631  0.00  0.00     0.006 C 
ENDBRANCH   8   9
BRANCH   8  11
ATOM     11  C   LIG d   1      -9.091  95.455 120.233  0.00  0.00     0.028 C 
ATOM     12  C   LIG d   1      -9.004  94.333 121.280  0.00  0.00     0.006 C 
ENDBRANCH   8  11
ENDBRANCH   7   8
ENDBRANCH   1   7
BRANCH   6  13
ATOM     13  N   LIG d   1      -4.575  94.387 119.048  0.00  0.00    -0.311 N 
ATOM     14  C   LIG d   1      -3.826  94.308 120.146  0.00  0.00     0.210 C 
ATOM     15  C   LIG d   1      -3.196  95.631 120.594  0.00  0.00     0.109 C 
ATOM     16  O   LIG d   1      -3.597  93.263 120.773  0.00  0.00    -0.276 OA
ATOM     17  H   LIG d   1      -4.681  95.268 118.584  0.00  0.00     0.149 HD
ENDBRANCH   6  13
BRANCH   5  18
ATOM     18  N   LIG d   1      -3.213  91.935 117.836  0.00  0.00     0.381 N 
ATOM     19  H   LIG d   1      -2.588  92.658 118.131  0.00  0.00    -0.090 HD
ATOM     20  H   LIG d   1      -2.778  91.430 117.084  0.00  0.00    -0.090 HD
ATOM     21  H   LIG d   1      -3.402  91.319 118.595  0.00  0.00    -0.090 HD
ENDBRANCH   5  18
BRANCH   3  22
ATOM     22  C   LIG d   1      -7.190  91.173 115.277  0.00  0.00     0.382 C 
ATOM     23  O   LIG d   1      -6.824  90.015 114.960  0.00  0.00    -0.241 OA
ATOM     24  O   LIG d   1      -8.062  91.748 114.599  0.00  0.00    -0.241 OA
ENDBRANCH   3  22
TORSDOF 7
ENDMDL
MODEL 2
REMARK VINA RESULT:      -5.1     15.280     17.413
REMARK  7 active torsions:
REMARK  status: ('A' for Active; 'I' for Inactive)
REMARK    1  A    between atoms: C_2  and  C_3 
REMARK    2  A    between atoms: C_3  and  O_6 
REMARK    3  A    between atoms: C_3  and  C_4 
REMARK    4  A    between atoms: C_7  and  O_6 
REMARK    5  A    between atoms: C_9  and  C_10 
REMARK    6  A    between atoms: N_15  and  C_14 
REMARK    7  A    between atoms: N_20  and  C_19 
REMARK       I    between atoms: C_22  and  N_20 
ROOT
ATOM      1  C   LIG d   1      -6.525  76.358 116.866  0.00  0.00     0.161 C 
ATOM      2  C   LIG d   1      -7.871  75.958 116.860  0.00  0.00     0.016 C 
ATOM      3  C   LIG d   1      -8.810  76.370 117.834  0.00  0.00     0.038 C 
ATOM      4  C   LIG d   1      -8.499  77.338 118.800  0.00  0.00     0.028 C 
ATOM      5  C   LIG d   1      -7.016  77.389 119.152  0.00  0.00    -0.047 C 
ATOM      6  C   LIG d   1      -6.195  77.502 117.847  0.00  0.00     0.091 C 
ENDROOT
BRANCH   1   7
ATOM      7  O   LIG d   1      -6.114  76.710 115.530  0.00  0.00    -0.368 OA
BRANCH   7   8
ATOM      8  C   LIG d   1      -6.233  75.668 114.531  0.00  0.00     0.119 C 
BRANCH   8   9
ATOM      9  C   LIG d   1      -5.122  74.636 114.805  0.00  0.00     0.028 C 
ATOM     10  C   LIG d   1      -3.792  75.297 115.204  0.00  0.00     0.006 C 
ENDBRANCH   8   9
BRANCH   8  11
ATOM     11  C   LIG d   1      -5.948  76.207 113.126  0.00  0.00     0.028 C 
ATOM     12  C   LIG d   1      -7.206  76.747 112.428  0.00  0.00     0.006 C 
ENDBRANCH   8  11
ENDBRANCH   7   8
ENDBRANCH   1   7
BRANCH   6  13
ATOM     13  N   LIG d   1      -4.730  77.473 118.096  0.00  0.00    -0.311 N 
ATOM     14  C   LIG d   1      -3.977  78.570 118.174  0.00  0.00     0.210 C 
ATOM     15  C   LIG d   1      -2.486  78.315 118.416  0.00  0.00     0.109 C 
ATOM     16  O   LIG d   1      -4.408  79.730 118.098  0.00  0.00    -0.276 OA
ATOM     17  H   LIG d   1      -4.303  76.574 118.200  0.00  0.00     0.149 HD
ENDBRANCH   6  13
BRANCH   5  18
ATOM     18  N   LIG d   1      -6.813  78.530 120.064  0.00  0.00     0.381 N 
ATOM     19  H   LIG d   1      -6.787  78.207 121.010  0.00  0.00    -0.090 HD
ATOM     20  H   LIG d   1      -7.587  79.164 119.969  0.00  0.00    -0.090 HD
ATOM     21  H   LIG d   1      -5.962  78.998 119.841  0.00  0.00    -0.090 HD
ENDBRANCH   5  18
BRANCH   3  22
ATOM     22  C   LIG d   1     -10.065  75.781 117.872  0.00  0.00     0.382 C 
ATOM     23  O   LIG d   1     -11.021  76.379 118.420  0.00  0.00    -0.241 OA
ATOM     24  O   LIG d   1     -10.241  74.640 117.403  0.00  0.00    -0.241 OA
ENDBRANCH   3  22
TORSDOF 7
ENDMDL
MODEL 3
REMARK VINA RESULT:      -5.0     15.168     17.376
REMARK  7 active torsions:
REMARK  status: ('A' for Active; 'I' for Inactive)
REMARK    1  A    between atoms: C_2  and  C_3 
REMARK    2  A    between atoms: C_3  and  O_6 
REMARK    3  A    between atoms: C_3  and  C_4 
REMARK    4  A    between atoms: C_7  and  O_6 
REMARK    5  A    between atoms: C_9  and  C_10 
REMARK    6  A    between atoms: N_15  and  C_14 
REMARK    7  A    between atoms: N_20  and  C_19 
REMARK       I    between atoms: C_22  and  N_20 
ROOT
ATOM      1  C   LIG d   1      -7.203  76.549 117.155  0.00  0.00     0.161 C 
ATOM      2  C   LIG d   1      -6.729  75.880 116.014  0.00  0.00     0.016 C 
ATOM      3  C   LIG d   1      -5.369  75.871 115.626  0.00  0.00     0.038 C 
ATOM      4  C   LIG d   1      -4.362  76.409 116.442  0.00  0.00     0.028 C 
ATOM      5  C   LIG d   1      -4.853  77.532 117.349  0.00  0.00    -0.047 C 
ATOM      6  C   LIG d   1      -6.104  77.047 118.116  0.00  0.00     0.091 C 
ENDROOT
BRANCH   1   7
ATOM      7  O   LIG d   1      -8.142  75.711 117.858  0.00  0.00    -0.368 OA
BRANCH   7   8
ATOM      8  C   LIG d   1      -9.480  75.652 117.306  0.00  0.00     0.119 C 
BRANCH   8   9
ATOM      9  C   LIG d   1     -10.452  76.151 118.393  0.00  0.00     0.028 C 
ATOM     10  C   LIG d   1     -10.024  77.504 118.985  0.00  0.00     0.006 C 
ENDBRANCH   8   9
BRANCH   8  11
ATOM     11  C   LIG d   1      -9.901  74.207 117.019  0.00  0.00     0.028 C 
ATOM     12  C   LIG d   1      -8.706  73.243 116.941  0.00  0.00     0.006 C 
ENDBRANCH   8  11
ENDBRANCH   7   8
ENDBRANCH   1   7
BRANCH   6  13
ATOM     13  N   LIG d   1      -6.697  78.114 118.964  0.00  0.00    -0.311 N 
ATOM     14  C   LIG d   1      -6.421  78.260 120.259  0.00  0.00     0.210 C 
ATOM     15  C   LIG d   1      -7.157  79.411 120.951  0.00  0.00     0.109 C 
ATOM     16  O   LIG d   1      -5.612  77.565 120.892  0.00  0.00    -0.276 OA
ATOM     17  H   LIG d   1      -7.341  78.742 118.524  0.00  0.00     0.149 HD
ENDBRANCH   6  13
BRANCH   5  18
ATOM     18  N   LIG d   1      -3.737  77.905 118.239  0.00  0.00     0.381 N 
ATOM     19  H   LIG d   1      -3.489  77.126 118.817  0.00  0.00    -0.090 HD
ATOM     20  H   LIG d   1      -4.034  78.657 118.835  0.00  0.00    -0.090 HD
ATOM     21  H   LIG d   1      -2.950  78.190 117.699  0.00  0.00    -0.090 HD
ENDBRANCH   5  18
BRANCH   3  22
ATOM     22  C   LIG d   1      -5.011  75.355 114.390  0.00  0.00     0.382 C 
ATOM     23  O   LIG d   1      -5.187  76.035 113.351  0.00  0.00    -0.241 OA
ATOM     24  O   LIG d   1      -4.554  74.200 114.297  0.00  0.00    -0.241 OA
ENDBRANCH   3  22
TORSDOF 7
ENDMDL
MODEL 4
REMARK VINA RESULT:      -4.8     14.044     16.651
REMARK  7 active torsions:
REMARK  status: ('A' for Active; 'I' for Inactive)
REMARK    1  A    between atoms: C_2  and  C_3 
REMARK    2  A    between atoms: C_3  and  O_6 
REMARK    3  A    between atoms: C_3  and  C_4 
REMARK    4  A    between atoms: C_7  and  O_6 
REMARK    5  A    between atoms: C_9  and  C_10 
REMARK    6  A    between atoms: N_15  and  C_14 
REMARK    7  A    between atoms: N_20  and  C_19 
REMARK       I    between atoms: C_22  and  N_20 
ROOT
ATOM      1  C   LIG d   1      -7.657  77.184 119.471  0.00  0.00     0.161 C 
ATOM      2  C   LIG d   1      -8.846  77.887 119.728  0.00  0.00     0.016 C 
ATOM      3  C   LIG d   1      -9.001  79.270 119.480  0.00  0.00     0.038 C 
ATOM      4  C   LIG d   1      -8.020  80.019 118.813  0.00  0.00     0.028 C 
ATOM      5  C   LIG d   1      -6.610  79.466 118.993  0.00  0.00    -0.047 C 
ATOM      6  C   LIG d   1      -6.613  77.960 118.641  0.00  0.00     0.091 C 
ENDROOT
BRANCH   1   7
ATOM      7  O   LIG d   1      -7.960  75.923 118.842  0.00  0.00    -0.368 OA
BRANCH   7   8
ATOM      8  C   LIG d   1      -8.478  75.994 117.491  0.00  0.00     0.119 C 
BRANCH   8   9
ATOM      9  C   LIG d   1      -9.849  75.290 117.483  0.00  0.00     0.028 C 
ATOM     10  C   LIG d   1      -9.760  73.837 116.986  0.00  0.00     0.006 C 
ENDBRANCH   8   9
BRANCH   8  11
ATOM     11  C   LIG d   1      -7.606  75.194 116.518  0.00  0.00     0.028 C 
ATOM     12  C   LIG d   1      -6.967  76.072 115.430  0.00  0.00     0.006 C 
ENDBRANCH   8  11
ENDBRANCH   7   8
ENDBRANCH   1   7
BRANCH   6  13
ATOM     13  N   LIG d   1      -5.291  77.322 118.871  0.00  0.00    -0.311 N 
ATOM     14  C   LIG d   1      -4.327  77.281 117.952  0.00  0.00     0.210 C 
ATOM     15  C   LIG d   1      -3.049  76.558 118.387  0.00  0.00     0.109 C 
ATOM     16  O   LIG d   1      -4.397  77.804 116.830  0.00  0.00    -0.276 OA
ATOM     17  H   LIG d   1      -5.137  76.901 119.766  0.00  0.00     0.149 HD
ENDBRANCH   6  13
BRANCH   5  18
ATOM     18  N   LIG d   1      -5.708  80.258 118.136  0.00  0.00     0.381 N 
ATOM     19  H   LIG d   1      -5.369  79.691 117.385  0.00  0.00    -0.090 HD
ATOM     20  H   LIG d   1      -4.921  80.560 118.684  0.00  0.00    -0.090 HD
ATOM     21  H   LIG d   1      -6.191  81.049 117.772  0.00  0.00    -0.090 HD
ENDBRANCH   5  18
BRANCH   3  22
ATOM     22  C   LIG d   1     -10.133  79.927 119.937  0.00  0.00     0.382 C 
ATOM     23  O   LIG d   1     -10.917  79.349 120.729  0.00  0.00    -0.241 OA
ATOM     24  O   LIG d   1     -10.405  81.074 119.533  0.00  0.00    -0.241 OA
ENDBRANCH   3  22
TORSDOF 7
ENDMDL
MODEL 5
REMARK VINA RESULT:      -4.8     15.922     18.461
REMARK  7 active torsions:
REMARK  status: ('A' for Active; 'I' for Inactive)
REMARK    1  A    between atoms: C_2  and  C_3 
REMARK    2  A    between atoms: C_3  and  O_6 
REMARK    3  A    between atoms: C_3  and  C_4 
REMARK    4  A    between atoms: C_7  and  O_6 
REMARK    5  A    between atoms: C_9  and  C_10 
REMARK    6  A    between atoms: N_15  and  C_14 
REMARK    7  A    between atoms: N_20  and  C_19 
REMARK       I    between atoms: C_22  and  N_20 
ROOT
ATOM      1  C   LIG d   1      -1.510  75.740 115.130  0.00  0.00     0.161 C 
ATOM      2  C   LIG d   1      -1.349  74.733 116.096  0.00  0.00     0.016 C 
ATOM      3  C   LIG d   1      -0.686  74.935 117.328  0.00  0.00     0.038 C 
ATOM      4  C   LIG d   1      -0.269  76.207 117.746  0.00  0.00     0.028 C 
ATOM      5  C   LIG d   1       0.040  77.153 116.590  0.00  0.00    -0.047 C 
ATOM      6  C   LIG d   1      -1.160  77.163 115.615  0.00  0.00     0.091 C 
ENDROOT
BRANCH   1   7
ATOM      7  O   LIG d   1      -2.853  75.706 114.608  0.00  0.00    -0.368 OA
BRANCH   7   8
ATOM      8  C   LIG d   1      -3.889  75.309 115.539  0.00  0.00     0.119 C 
BRANCH   8   9
ATOM      9  C   LIG d   1      -4.962  74.544 114.740  0.00  0.00     0.028 C 
ATOM     10  C   LIG d   1      -6.379  74.772 115.292  0.00  0.00     0.006 C 
ENDBRANCH   8   9
BRANCH   8  11
ATOM     11  C   LIG d   1      -4.611  76.528 116.123  0.00  0.00     0.028 C 
ATOM     12  C   LIG d   1      -4.182  76.840 117.565  0.00  0.00     0.006 C 
ENDBRANCH   8  11
ENDBRANCH   7   8
ENDBRANCH   1   7
BRANCH   6  13
ATOM     13  N   LIG d   1      -0.906  77.998 114.413  0.00  0.00    -0.311 N 
ATOM     14  C   LIG d   1      -1.719  78.975 114.014  0.00  0.00     0.210 C 
ATOM     15  C   LIG d   1      -1.282  79.699 112.737  0.00  0.00     0.109 C 
ATOM     16  O   LIG d   1      -2.744  79.331 114.614  0.00  0.00    -0.276 OA
ATOM     17  H   LIG d   1      -0.080  77.798 113.884  0.00  0.00     0.149 HD
ENDBRANCH   6  13
BRANCH   5  18
ATOM     18  N   LIG d   1       0.329  78.481 117.165  0.00  0.00     0.381 N 
ATOM     19  H   LIG d   1       0.835  79.034 116.503  0.00  0.00    -0.090 HD
ATOM     20  H   LIG d   1       0.902  78.363 117.982  0.00  0.00    -0.090 HD
ATOM     21  H   LIG d   1      -0.522  78.938 117.410  0.00  0.00    -0.090 HD
ENDBRANCH   5  18
BRANCH   3  22
ATOM     22  C   LIG d   1      -0.399  73.848 118.140  0.00  0.00     0.382 C 
ATOM     23  O   LIG d   1       0.641  73.848 118.843  0.00  0.00    -0.241 OA
ATOM     24  O   LIG d   1      -1.142  72.849 118.145  0.00  0.00    -0.241 OA
ENDBRANCH   3  22
TORSDOF 7
ENDMDL
MODEL 6
REMARK VINA RESULT:      -4.7     19.839     21.864
REMARK  7 active torsions:
REMARK  status: ('A' for Active; 'I' for Inactive)
REMARK    1  A    between atoms: C_2  and  C_3 
REMARK    2  A    between atoms: C_3  and  O_6 
REMARK    3  A    between atoms: C_3  and  C_4 
REMARK    4  A    between atoms: C_7  and  O_6 
REMARK    5  A    between atoms: C_9  and  C_10 
REMARK    6  A    between atoms: N_15  and  C_14 
REMARK    7  A    between atoms: N_20  and  C_19 
REMARK       I    between atoms: C_22  and  N_20 
ROOT
ATOM      1  C   LIG d   1     -25.586  85.186 114.194  0.00  0.00     0.161 C 
ATOM      2  C   LIG d   1     -24.570  86.155 114.139  0.00  0.00     0.016 C 
ATOM      3  C   LIG d   1     -23.242  85.868 113.749  0.00  0.00     0.038 C 
ATOM      4  C   LIG d   1     -22.873  84.614 113.239  0.00  0.00     0.028 C 
ATOM      5  C   LIG d   1     -23.744  83.472 113.752  0.00  0.00    -0.047 C 
ATOM      6  C   LIG d   1     -25.230  83.837 113.534  0.00  0.00     0.091 C 
ENDROOT
BRANCH   1   7
ATOM      7  O   LIG d   1     -26.799  85.718 113.624  0.00  0.00    -0.368 OA
BRANCH   7   8
ATOM      8  C   LIG d   1     -27.358  86.880 114.284  0.00  0.00     0.119 C 
BRANCH   8   9
ATOM      9  C   LIG d   1     -28.576  86.408 115.100  0.00  0.00     0.028 C 
ATOM     10  C   LIG d   1     -28.400  86.648 116.609  0.00  0.00     0.006 C 
ENDBRANCH   8   9
BRANCH   8  11
ATOM     11  C   LIG d   1     -27.913  87.884 113.269  0.00  0.00     0.028 C 
ATOM     12  C   LIG d   1     -27.158  87.858 111.931  0.00  0.00     0.006 C 
ENDBRANCH   8  11
ENDBRANCH   7   8
ENDBRANCH   1   7
BRANCH   6  13
ATOM     13  N   LIG d   1     -26.152  82.810 114.085  0.00  0.00    -0.311 N 
ATOM     14  C   LIG d   1     -26.629  81.794 113.368  0.00  0.00     0.210 C 
ATOM     15  C   LIG d   1     -27.581  80.861 114.123  0.00  0.00     0.109 C 
ATOM     16  O   LIG d   1     -26.329  81.558 112.189  0.00  0.00    -0.276 OA
ATOM     17  H   LIG d   1     -26.424  82.908 115.044  0.00  0.00     0.149 HD
ENDBRANCH   6  13
BRANCH   5  18
ATOM     18  N   LIG d   1     -23.339  82.247 113.036  0.00  0.00     0.381 N 
ATOM     19  H   LIG d   1     -23.266  82.436 112.056  0.00  0.00    -0.090 HD
ATOM     20  H   LIG d   1     -24.044  81.544 113.170  0.00  0.00    -0.090 HD
ATOM     21  H   LIG d   1     -22.464  81.922 113.385  0.00  0.00    -0.090 HD
ENDBRANCH   5  18
BRANCH   3  22
ATOM     22  C   LIG d   1     -22.257  86.831 113.906  0.00  0.00     0.382 C 
ATOM     23  O   LIG d   1     -22.490  87.863 114.580  0.00  0.00    -0.241 OA
ATOM     24  O   LIG d   1     -21.152  86.701 113.345  0.00  0.00    -0.241 OA
ENDBRANCH   3  22
TORSDOF 7
ENDMDL
MODEL 7
REMARK VINA RESULT:      -4.7     18.698     20.677
REMARK  7 active torsions:
REMARK  status: ('A' for Active; 'I' for Inactive)
REMARK    1  A    between atoms: C_2  and  C_3 
REMARK    2  A    between atoms: C_3  and  O_6 
REMARK    3  A    between atoms: C_3  and  C_4 
REMARK    4  A    between atoms: C_7  and  O_6 
REMARK    5  A    between atoms: C_9  and  C_10 
REMARK    6  A    between atoms: N_15  and  C_14 
REMARK    7  A    between atoms: N_20  and  C_19 
REMARK       I    between atoms: C_22  and  N_20 
ROOT
ATOM      1  C   LIG d   1     -23.329  83.330 116.185  0.00  0.00     0.161 C 
ATOM      2  C   LIG d   1     -22.949  84.599 115.717  0.00  0.00     0.016 C 
ATOM      3  C   LIG d   1     -23.114  85.015 114.376  0.00  0.00     0.038 C 
ATOM      4  C   LIG d   1     -23.813  84.238 113.439  0.00  0.00     0.028 C 
ATOM      5  C   LIG d   1     -23.767  82.744 113.737  0.00  0.00    -0.047 C 
ATOM      6  C   LIG d   1     -24.194  82.511 115.204  0.00  0.00     0.091 C 
ENDROOT
BRANCH   1   7
ATOM      7  O   LIG d   1     -23.997  83.457 117.456  0.00  0.00    -0.368 OA
BRANCH   7   8
ATOM      8  C   LIG d   1     -23.239  83.041 118.619  0.00  0.00     0.119 C 
BRANCH   8   9
ATOM      9  C   LIG d   1     -23.439  84.111 119.709  0.00  0.00     0.028 C 
ATOM     10  C   LIG d   1     -22.360  85.205 119.662  0.00  0.00     0.006 C 
ENDBRANCH   8   9
BRANCH   8  11
ATOM     11  C   LIG d   1     -21.735  83.032 118.330  0.00  0.00     0.028 C 
ATOM     12  C   LIG d   1     -21.040  81.755 118.830  0.00  0.00     0.006 C 
ENDBRANCH   8  11
ENDBRANCH   7   8
ENDBRANCH   1   7
BRANCH   6  13
ATOM     13  N   LIG d   1     -24.096  81.082 115.603  0.00  0.00    -0.311 N 
ATOM     14  C   LIG d   1     -25.116  80.390 116.106  0.00  0.00     0.210 C 
ATOM     15  C   LIG d   1     -24.795  78.937 116.470  0.00  0.00     0.109 C 
ATOM     16  O   LIG d   1     -26.266  80.832 116.255  0.00  0.00    -0.276 OA
ATOM     17  H   LIG d   1     -23.207  80.636 115.486  0.00  0.00     0.149 HD
ENDBRANCH   6  13
BRANCH   5  18
ATOM     18  N   LIG d   1     -24.647  82.068 112.765  0.00  0.00     0.381 N 
ATOM     19  H   LIG d   1     -24.544  81.077 112.846  0.00  0.00    -0.090 HD
ATOM     20  H   LIG d   1     -24.374  82.339 111.836  0.00  0.00    -0.090 HD
ATOM     21  H   LIG d   1     -25.596  82.326 112.928  0.00  0.00    -0.090 HD
ENDBRANCH   5  18
BRANCH   3  22
ATOM     22  C   LIG d   1     -22.541  86.203 113.950  0.00  0.00     0.382 C 
ATOM     23  O   LIG d   1     -21.593  86.183 113.129  0.00  0.00    -0.241 OA
ATOM     24  O   LIG d   1     -22.931  87.293 114.410  0.00  0.00    -0.241 OA
ENDBRANCH   3  22
TORSDOF 7
ENDMDL
MODEL 8
REMARK VINA RESULT:      -4.5     11.725     13.382
REMARK  7 active torsions:
REMARK  status: ('A' for Active; 'I' for Inactive)
REMARK    1  A    between atoms: C_2  and  C_3 
REMARK    2  A    between atoms: C_3  and  O_6 
REMARK    3  A    between atoms: C_3  and  C_4 
REMARK    4  A    between atoms: C_7  and  O_6 
REMARK    5  A    between atoms: C_9  and  C_10 
REMARK    6  A    between atoms: N_15  and  C_14 
REMARK    7  A    between atoms: N_20  and  C_19 
REMARK       I    between atoms: C_22  and  N_20 
ROOT
ATOM      1  C   LIG d   1       2.698  86.635 115.577  0.00  0.00     0.161 C 
ATOM      2  C   LIG d   1       2.831  87.891 114.962  0.00  0.00     0.016 C 
ATOM      3  C   LIG d   1       4.037  88.627 114.948  0.00  0.00     0.038 C 
ATOM      4  C   LIG d   1       5.242  88.086 115.421  0.00  0.00     0.028 C 
ATOM      5  C   LIG d   1       5.047  87.028 116.503  0.00  0.00    -0.047 C 
ATOM      6  C   LIG d   1       4.029  85.979 116.001  0.00  0.00     0.091 C 
ENDROOT
BRANCH   1   7
ATOM      7  O   LIG d   1       1.953  85.747 114.720  0.00  0.00    -0.368 OA
BRANCH   7   8
ATOM      8  C   LIG d   1       1.934  86.087 113.312  0.00  0.00     0.119 C 
BRANCH   8   9
ATOM      9  C   LIG d   1       0.626  85.529 112.718  0.00  0.00     0.028 C 
ATOM     10  C   LIG d   1       0.722  84.028 112.396  0.00  0.00     0.006 C 
ENDBRANCH   8   9
BRANCH   8  11
ATOM     11  C   LIG d   1       3.060  85.379 112.552  0.00  0.00     0.028 C 
ATOM     12  C   LIG d   1       4.068  86.359 111.932  0.00  0.00     0.006 C 
ENDBRANCH   8  11
ENDBRANCH   7   8
ENDBRANCH   1   7
BRANCH   6  13
ATOM     13  N   LIG d   1       3.718  84.954 117.031  0.00  0.00    -0.311 N 
ATOM     14  C   LIG d   1       3.732  83.644 116.790  0.00  0.00     0.210 C 
ATOM     15  C   LIG d   1       3.360  82.762 117.986  0.00  0.00     0.109 C 
ATOM     16  O   LIG d   1       4.047  83.128 115.707  0.00  0.00    -0.276 OA
ATOM     17  H   LIG d   1       3.481  85.284 117.946  0.00  0.00     0.149 HD
ENDBRANCH   6  13
BRANCH   5  18
ATOM     18  N   LIG d   1       6.371  86.452 116.805  0.00  0.00     0.381 N 
ATOM     19  H   LIG d   1       6.394  86.136 117.754  0.00  0.00    -0.090 HD
ATOM     20  H   LIG d   1       7.070  87.165 116.693  0.00  0.00    -0.090 HD
ATOM     21  H   LIG d   1       6.560  85.691 116.190  0.00  0.00    -0.090 HD
ENDBRANCH   5  18
BRANCH   3  22
ATOM     22  C   LIG d   1       4.038  89.937 114.493  0.00  0.00     0.382 C 
ATOM     23  O   LIG d   1       4.045  90.172 113.260  0.00  0.00    -0.241 OA
ATOM     24  O   LIG d   1       4.076  90.886 115.299  0.00  0.00    -0.241 OA
ENDBRANCH   3  22
TORSDOF 7
ENDMDL
MODEL 9
REMARK VINA RESULT:      -4.5      8.167     10.952
REMARK  7 active torsions:
REMARK  status: ('A' for Active; 'I' for Inactive)
REMARK    1  A    between atoms: C_2  and  C_3 
REMARK    2  A    between atoms: C_3  and  O_6 
REMARK    3  A    between atoms: C_3  and  C_4 
REMARK    4  A    between atoms: C_7  and  O_6 
REMARK    5  A    between atoms: C_9  and  C_10 
REMARK    6  A    between atoms: N_15  and  C_14 
REMARK    7  A    between atoms: N_20  and  C_19 
REMARK       I    between atoms: C_22  and  N_20 
ROOT
ATOM      1  C   LIG d   1       2.091  89.016 116.746  0.00  0.00     0.161 C 
ATOM      2  C   LIG d   1       2.483  90.319 117.093  0.00  0.00     0.016 C 
ATOM      3  C   LIG d   1       3.653  90.938 116.596  0.00  0.00     0.038 C 
ATOM      4  C   LIG d   1       4.436  90.347 115.592  0.00  0.00     0.028 C 
ATOM      5  C   LIG d   1       4.358  88.824 115.582  0.00  0.00    -0.047 C 
ATOM      6  C   LIG d   1       2.872  88.398 115.567  0.00  0.00     0.091 C 
ENDROOT
BRANCH   1   7
ATOM      7  O   LIG d   1       0.675  88.987 116.478  0.00  0.00    -0.368 OA
BRANCH   7   8
ATOM      8  C   LIG d   1      -0.139  88.256 117.428  0.00  0.00     0.119 C 
BRANCH   8   9
ATOM      9  C   LIG d   1      -0.818  89.290 118.347  0.00  0.00     0.028 C 
ATOM     10  C   LIG d   1      -2.340  89.088 118.433  0.00  0.00     0.006 C 
ENDBRANCH   8   9
BRANCH   8  11
ATOM     11  C   LIG d   1       0.725  87.395 118.355  0.00  0.00     0.028 C 
ATOM     12  C   LIG d   1       0.359  85.904 118.294  0.00  0.00     0.006 C 
ENDBRANCH   8  11
ENDBRANCH   7   8
ENDBRANCH   1   7
BRANCH   6  13
ATOM     13  N   LIG d   1       2.705  86.923 115.642  0.00  0.00    -0.311 N 
ATOM     14  C   LIG d   1       1.986  86.222 114.767  0.00  0.00     0.210 C 
ATOM     15  C   LIG d   1       1.927  84.715 115.039  0.00  0.00     0.109 C 
ATOM     16  O   LIG d   1       1.416  86.700 113.775  0.00  0.00    -0.276 OA
ATOM     17  H   LIG d   1       3.159  86.450 116.398  0.00  0.00     0.149 HD
ENDBRANCH   6  13
BRANCH   5  18
ATOM     18  N   LIG d   1       5.108  88.347 114.405  0.00  0.00     0.381 N 
ATOM     19  H   LIG d   1       6.091  88.451 114.565  0.00  0.00    -0.090 HD
ATOM     20  H   LIG d   1       4.858  88.909 113.611  0.00  0.00    -0.090 HD
ATOM     21  H   LIG d   1       4.892  87.391 114.227  0.00  0.00    -0.090 HD
ENDBRANCH   5  18
BRANCH   3  22
ATOM     22  C   LIG d   1       4.073  92.146 117.132  0.00  0.00     0.382 C 
ATOM     23  O   LIG d   1       3.541  93.218 116.755  0.00  0.00    -0.241 OA
ATOM     24  O   LIG d   1       5.007  92.181 117.955  0.00  0.00    -0.241 OA
ENDBRANCH   3  22
TORSDOF 7
ENDMDL
