@<TRIPOS>MOLECULE
osel.out
 44 44 0 0 0
SMALL
GASTEIGER

@<TRIPOS>ATOM
      1 C           0.0000    0.0000    0.0000 C.3     1  LIG1       -0.0629
      2 H           1.0898    0.0000    0.0000 H       1  LIG1        0.0231
      3 H          -0.3628    1.0278    0.0000 H       1  LIG1        0.0231
      4 H          -0.4014   -0.5676   -0.8401 H       1  LIG1        0.0231
      5 C          -0.5117   -0.7249    1.2561 C.3     1  LIG1       -0.0294
      6 H          -0.0712   -0.2143    2.1128 H       1  LIG1        0.0287
      7 H          -1.6015   -0.7111    1.2488 H       1  LIG1        0.0287
      8 C          -0.0356   -2.1895    1.3246 C.3     1  LIG1        0.0590
      9 H          -0.2471   -2.7009    0.3848 H       1  LIG1        0.0596
     10 C          -0.8334   -2.8215    2.4698 C.3     1  LIG1       -0.0294
     11 H          -1.8362   -2.3940    2.4732 H       1  LIG1        0.0287
     12 H          -0.2720   -2.6284    3.3840 H       1  LIG1        0.0287
     13 C          -0.9509   -4.3481    2.3423 C.3     1  LIG1       -0.0629
     14 H          -1.5069   -4.5956    1.4385 H       1  LIG1        0.0231
     15 H          -1.4751   -4.7459    3.2120 H       1  LIG1        0.0231
     16 H           0.0764   -4.7094    2.2934 H       1  LIG1        0.0231
     17 O           1.3834   -2.1719    1.6171 O.3     1  LIG1       -0.3676
     18 C           2.1540   -3.2650    1.0798 C.3     1  LIG1        0.0946
     19 H           1.4517   -4.0386    0.7711 H       1  LIG1        0.0659
     20 C           2.9782   -3.8043    2.0816 C.2     1  LIG1       -0.0439
     21 H           2.5518   -3.9589    3.0730 H       1  LIG1        0.0603
     22 C           4.3307   -4.1563    1.8712 C.2     1  LIG1        0.0378
     23 C           5.0190   -4.8577    2.8495 C.2     1  LIG1        0.3824
     24 O           5.6805   -5.8776    2.5400 O.co2   1  LIG1       -0.2410
     25 O           4.9498   -4.5104    4.0433 O.co2   1  LIG1       -0.2410
     26 C           4.9993   -3.8498    0.6764 C.3     1  LIG1       -0.0323
     27 H           5.7433   -4.6241    0.4887 H       1  LIG1        0.0300
     28 H           5.4384   -2.8582    0.7898 H       1  LIG1        0.0300
     29 C           4.0722   -3.7674   -0.5316 C.3     1  LIG1       -0.0578
     30 H           3.6731   -4.7607   -0.7397 H       1  LIG1        0.0107
     31 N           4.8756   -3.3068   -1.6798 N.4     1  LIG1        0.3814
     32 H           4.3024   -3.2586   -2.4983 H       1  LIG1       -0.0896
     33 H           5.6112   -3.9706   -1.8495 H       1  LIG1       -0.0896
     34 H           5.2662   -2.4109   -1.4855 H       1  LIG1       -0.0896
     35 C           2.8960   -2.8206   -0.1979 C.3     1  LIG1        0.0404
     36 H           3.3022   -1.8237   -0.0254 H       1  LIG1        0.0510
     37 N           1.8970   -2.7493   -1.2963 N.am    1  LIG1       -0.3115
     38 H           1.0530   -3.2746   -1.1801 H       1  LIG1        0.1490
     39 C           2.0709   -2.0227   -2.3989 C.2     1  LIG1        0.2102
     40 O           3.0912   -1.3679   -2.6610 O.2     1  LIG1       -0.2761
     41 C           0.9091   -2.0733   -3.3958 C.3     1  LIG1        0.0122
     42 H           0.1092   -2.6935   -2.9912 H       1  LIG1        0.0322
     43 H           1.2570   -2.4983   -4.3376 H       1  LIG1        0.0322
     44 H           0.5919   -1.0375   -3.5163 H       1  LIG1        0.0322
@<TRIPOS>BOND
     1    43    41    1
     2    44    41    1
     3    41    42    1
     4    41    39    1
     5    40    39    2
     6    32    31    1
     7    39    37   am
     8    33    31    1
     9    31    34    1
    10    31    29    1
    11    37    38    1
    12    37    35    1
    13     4     1    1
    14    30    29    1
    15    29    35    1
    16    29    26    1
    17    35    36    1
    18    35    18    1
    19     1     2    1
    20     1     3    1
    21     1     5    1
    22     9     8    1
    23    27    26    1
    24    26    28    1
    25    26    22    1
    26    19    18    1
    27    18    17    1
    28    18    20    1
    29     7     5    1
    30     5     8    1
    31     5     6    1
    32     8    17    1
    33     8    10    1
    34    14    13    1
    35    22    20    2
    36    22    23    1
    37    20    21    1
    38    16    13    1
    39    13    10    1
    40    13    15    1
    41    10    11    1
    42    10    12    1
    43    24    23   ar
    44    23    25   ar
