MODEL 1
REMARK VINA RESULT:      -6.8      0.000      0.000
REMARK  7 active torsions:
REMARK  status: ('A' for Active; 'I' for Inactive)
REMARK    1  A    between atoms: C_2  and  C_3 
REMARK    2  A    between atoms: C_3  and  O_6 
REMARK    3  A    between atoms: C_3  and  C_4 
REMARK    4  A    between atoms: C_7  and  O_6 
REMARK    5  A    between atoms: C_9  and  C_10 
REMARK    6  A    between atoms: N_15  and  C_14 
REMARK    7  A    between atoms: N_20  and  C_19 
REMARK       I    between atoms: C_22  and  N_20 
ROOT
ATOM      1  C   LIG d   1       0.267  82.518 111.310  0.00  0.00     0.161 C 
ATOM      2  C   LIG d   1      -0.859  82.325 112.127  0.00  0.00     0.016 C 
ATOM      3  C   LIG d   1      -1.369  81.048 112.460  0.00  0.00     0.038 C 
ATOM      4  C   LIG d   1      -0.692  79.868 112.119  0.00  0.00     0.028 C 
ATOM      5  C   LIG d   1       0.170  80.003 110.869  0.00  0.00    -0.047 C 
ATOM      6  C   LIG d   1       1.083  81.241 111.020  0.00  0.00     0.091 C 
ENDROOT
BRANCH   1   7
ATOM      7  O   LIG d   1       1.114  83.536 111.879  0.00  0.00    -0.368 OA
BRANCH   7   8
ATOM      8  C   LIG d   1       1.205  84.777 111.137  0.00  0.00     0.119 C 
BRANCH   8   9
ATOM      9  C   LIG d   1       0.298  84.644 109.899  0.00  0.00     0.028 C 
ATOM     10  C   LIG d   1      -0.742  85.774 109.809  0.00  0.00     0.006 C 
ENDBRANCH   8   9
BRANCH   8  11
ATOM     11  C   LIG d   1       2.617  84.993 110.583  0.00  0.00     0.028 C 
ATOM     12  C   LIG d   1       3.714  84.697 111.618  0.00  0.00     0.006 C 
ENDBRANCH   8  11
ENDBRANCH   7   8
ENDBRANCH   1   7
BRANCH   6  13
ATOM     13  N   LIG d   1       1.900  81.495 109.805  0.00  0.00    -0.311 N 
ATOM     14  C   LIG d   1       3.231  81.470 109.798  0.00  0.00     0.210 C 
ATOM     15  C   LIG d   1       3.877  81.779 108.444  0.00  0.00     0.109 C 
ATOM     16  O   LIG d   1       3.938  81.189 110.778  0.00  0.00    -0.276 OA
ATOM     17  H   LIG d   1       1.406  81.700 108.958  0.00  0.00     0.149 HD
ENDBRANCH   6  13
BRANCH   5  18
ATOM     18  N   LIG d   1       0.923  78.745 110.708  0.00  0.00     0.381 N 
ATOM     19  H   LIG d   1       1.239  78.658 109.763  0.00  0.00    -0.090 HD
ATOM     20  H   LIG d   1       0.312  77.973 110.910  0.00  0.00    -0.090 HD
ATOM     21  H   LIG d   1       1.702  78.733 111.329  0.00  0.00    -0.090 HD
ENDBRANCH   5  18
BRANCH   3  22
ATOM     22  C   LIG d   1      -2.590  80.944 113.108  0.00  0.00     0.382 C 
ATOM     23  O   LIG d   1      -2.739  80.112 114.036  0.00  0.00    -0.241 OA
ATOM     24  O   LIG d   1      -3.559  81.640 112.747  0.00  0.00    -0.241 OA
ENDBRANCH   3  22
TORSDOF 7
ENDMDL
MODEL 2
REMARK VINA RESULT:      -6.5      0.421      1.804
REMARK  7 active torsions:
REMARK  status: ('A' for Active; 'I' for Inactive)
REMARK    1  A    between atoms: C_2  and  C_3 
REMARK    2  A    between atoms: C_3  and  O_6 
REMARK    3  A    between atoms: C_3  and  C_4 
REMARK    4  A    between atoms: C_7  and  O_6 
REMARK    5  A    between atoms: C_9  and  C_10 
REMARK    6  A    between atoms: N_15  and  C_14 
REMARK    7  A    between atoms: N_20  and  C_19 
REMARK       I    between atoms: C_22  and  N_20 
ROOT
ATOM      1  C   LIG d   1       0.230  82.543 111.275  0.00  0.00     0.161 C 
ATOM      2  C   LIG d   1      -0.892  82.329 112.092  0.00  0.00     0.016 C 
ATOM      3  C   LIG d   1      -1.370  81.043 112.435  0.00  0.00     0.038 C 
ATOM      4  C   LIG d   1      -0.663  79.877 112.107  0.00  0.00     0.028 C 
ATOM      5  C   LIG d   1       0.198  80.023 110.857  0.00  0.00    -0.047 C 
ATOM      6  C   LIG d   1       1.080  81.285 110.999  0.00  0.00     0.091 C 
ENDROOT
BRANCH   1   7
ATOM      7  O   LIG d   1       1.050  83.588 111.837  0.00  0.00    -0.368 OA
BRANCH   7   8
ATOM      8  C   LIG d   1       1.282  84.740 110.990  0.00  0.00     0.119 C 
BRANCH   8   9
ATOM      9  C   LIG d   1       2.548  85.449 111.509  0.00  0.00     0.028 C 
ATOM     10  C   LIG d   1       3.611  84.457 112.012  0.00  0.00     0.006 C 
ENDBRANCH   8   9
BRANCH   8  11
ATOM     11  C   LIG d   1       0.156  85.769 111.129  0.00  0.00     0.028 C 
ATOM     12  C   LIG d   1      -0.748  85.834 109.888  0.00  0.00     0.006 C 
ENDBRANCH   8  11
ENDBRANCH   7   8
ENDBRANCH   1   7
BRANCH   6  13
ATOM     13  N   LIG d   1       1.893  81.549 109.783  0.00  0.00    -0.311 N 
ATOM     14  C   LIG d   1       3.223  81.500 109.767  0.00  0.00     0.210 C 
ATOM     15  C   LIG d   1       3.865  81.825 108.414  0.00  0.00     0.109 C 
ATOM     16  O   LIG d   1       3.932  81.186 110.735  0.00  0.00    -0.276 OA
ATOM     17  H   LIG d   1       1.397  81.780 108.945  0.00  0.00     0.149 HD
ENDBRANCH   6  13
BRANCH   5  18
ATOM     18  N   LIG d   1       0.984  78.783 110.710  0.00  0.00     0.381 N 
ATOM     19  H   LIG d   1       1.939  79.008 110.514  0.00  0.00    -0.090 HD
ATOM     20  H   LIG d   1       0.619  78.257 109.935  0.00  0.00    -0.090 HD
ATOM     21  H   LIG d   1       0.927  78.242 111.544  0.00  0.00    -0.090 HD
ENDBRANCH   5  18
BRANCH   3  22
ATOM     22  C   LIG d   1      -2.590  80.913 113.081  0.00  0.00     0.382 C 
ATOM     23  O   LIG d   1      -2.741  80.037 113.966  0.00  0.00    -0.241 OA
ATOM     24  O   LIG d   1      -3.555  81.632 112.760  0.00  0.00    -0.241 OA
ENDBRANCH   3  22
TORSDOF 7
ENDMDL
MODEL 3
REMARK VINA RESULT:      -6.3      1.745      4.993
REMARK  7 active torsions:
REMARK  status: ('A' for Active; 'I' for Inactive)
REMARK    1  A    between atoms: C_2  and  C_3 
REMARK    2  A    between atoms: C_3  and  O_6 
REMARK    3  A    between atoms: C_3  and  C_4 
REMARK    4  A    between atoms: C_7  and  O_6 
REMARK    5  A    between atoms: C_9  and  C_10 
REMARK    6  A    between atoms: N_15  and  C_14 
REMARK    7  A    between atoms: N_20  and  C_19 
REMARK       I    between atoms: C_22  and  N_20 
ROOT
ATOM      1  C   LIG d   1       1.680  82.419 111.467  0.00  0.00     0.161 C 
ATOM      2  C   LIG d   1       2.497  82.646 110.347  0.00  0.00     0.016 C 
ATOM      3  C   LIG d   1       2.340  81.963 109.118  0.00  0.00     0.038 C 
ATOM      4  C   LIG d   1       1.252  81.110 108.878  0.00  0.00     0.028 C 
ATOM      5  C   LIG d   1       0.695  80.467 110.144  0.00  0.00    -0.047 C 
ATOM      6  C   LIG d   1       0.420  81.573 111.189  0.00  0.00     0.091 C 
ENDROOT
BRANCH   1   7
ATOM      7  O   LIG d   1       1.317  83.677 112.069  0.00  0.00    -0.368 OA
BRANCH   7   8
ATOM      8  C   LIG d   1       1.105  84.782 111.157  0.00  0.00     0.119 C 
BRANCH   8   9
ATOM      9  C   LIG d   1       1.680  86.048 111.822  0.00  0.00     0.028 C 
ATOM     10  C   LIG d   1       3.216  86.028 111.890  0.00  0.00     0.006 C 
ENDBRANCH   8   9
BRANCH   8  11
ATOM     11  C   LIG d   1      -0.388  85.068 110.965  0.00  0.00     0.028 C 
ATOM     12  C   LIG d   1      -0.696  85.748 109.622  0.00  0.00     0.006 C 
ENDBRANCH   8  11
ENDBRANCH   7   8
ENDBRANCH   1   7
BRANCH   6  13
ATOM     13  N   LIG d   1      -0.048  81.022 112.487  0.00  0.00    -0.311 N 
ATOM     14  C   LIG d   1      -1.250  81.276 113.001  0.00  0.00     0.210 C 
ATOM     15  C   LIG d   1      -1.524  80.625 114.360  0.00  0.00     0.109 C 
ATOM     16  O   LIG d   1      -2.128  81.953 112.444  0.00  0.00    -0.276 OA
ATOM     17  H   LIG d   1       0.590  80.437 112.991  0.00  0.00     0.149 HD
ENDBRANCH   6  13
BRANCH   5  18
ATOM     18  N   LIG d   1      -0.516  79.715 109.766  0.00  0.00     0.381 N 
ATOM     19  H   LIG d   1      -0.260  78.808 109.430  0.00  0.00    -0.090 HD
ATOM     20  H   LIG d   1      -0.985  80.205 109.025  0.00  0.00    -0.090 HD
ATOM     21  H   LIG d   1      -1.122  79.628 110.552  0.00  0.00    -0.090 HD
ENDBRANCH   5  18
BRANCH   3  22
ATOM     22  C   LIG d   1       3.300  82.101 108.128  0.00  0.00     0.382 C 
ATOM     23  O   LIG d   1       4.491  82.344 108.439  0.00  0.00    -0.241 OA
ATOM     24  O   LIG d   1       2.983  82.028 106.926  0.00  0.00    -0.241 OA
ENDBRANCH   3  22
TORSDOF 7
ENDMDL
MODEL 4
REMARK VINA RESULT:      -6.0      2.545      4.722
REMARK  7 active torsions:
REMARK  status: ('A' for Active; 'I' for Inactive)
REMARK    1  A    between atoms: C_2  and  C_3 
REMARK    2  A    between atoms: C_3  and  O_6 
REMARK    3  A    between atoms: C_3  and  C_4 
REMARK    4  A    between atoms: C_7  and  O_6 
REMARK    5  A    between atoms: C_9  and  C_10 
REMARK    6  A    between atoms: N_15  and  C_14 
REMARK    7  A    between atoms: N_20  and  C_19 
REMARK       I    between atoms: C_22  and  N_20 
ROOT
ATOM      1  C   LIG d   1       2.784  83.263 111.503  0.00  0.00     0.161 C 
ATOM      2  C   LIG d   1       1.680  82.403 111.627  0.00  0.00     0.016 C 
ATOM      3  C   LIG d   1       0.345  82.814 111.411  0.00  0.00     0.038 C 
ATOM      4  C   LIG d   1       0.033  84.085 110.905  0.00  0.00     0.028 C 
ATOM      5  C   LIG d   1       1.074  85.145 111.248  0.00  0.00    -0.047 C 
ATOM      6  C   LIG d   1       2.473  84.623 110.845  0.00  0.00     0.091 C 
ENDROOT
BRANCH   1   7
ATOM      7  O   LIG d   1       3.847  82.595 110.795  0.00  0.00    -0.368 OA
BRANCH   7   8
ATOM      8  C   LIG d   1       3.439  81.667 109.761  0.00  0.00     0.119 C 
BRANCH   8   9
ATOM      9  C   LIG d   1       4.382  80.450 109.833  0.00  0.00     0.028 C 
ATOM     10  C   LIG d   1       3.658  79.128 109.528  0.00  0.00     0.006 C 
ENDBRANCH   8   9
BRANCH   8  11
ATOM     11  C   LIG d   1       3.649  82.260 108.365  0.00  0.00     0.028 C 
ATOM     12  C   LIG d   1       2.342  82.380 107.565  0.00  0.00     0.006 C 
ENDBRANCH   8  11
ENDBRANCH   7   8
ENDBRANCH   1   7
BRANCH   6  13
ATOM     13  N   LIG d   1       3.559  85.565 111.222  0.00  0.00    -0.311 N 
ATOM     14  C   LIG d   1       3.752  86.001 112.466  0.00  0.00     0.210 C 
ATOM     15  C   LIG d   1       4.916  86.983 112.633  0.00  0.00     0.109 C 
ATOM     16  O   LIG d   1       3.089  85.645 113.451  0.00  0.00    -0.276 OA
ATOM     17  H   LIG d   1       4.164  85.881 110.490  0.00  0.00     0.149 HD
ENDBRANCH   6  13
BRANCH   5  18
ATOM     18  N   LIG d   1       0.695  86.385 110.545  0.00  0.00     0.381 N 
ATOM     19  H   LIG d   1       1.135  86.413 109.647  0.00  0.00    -0.090 HD
ATOM     20  H   LIG d   1       1.018  87.173 111.079  0.00  0.00    -0.090 HD
ATOM     21  H   LIG d   1      -0.294  86.429 110.440  0.00  0.00    -0.090 HD
ENDBRANCH   5  18
BRANCH   3  22
ATOM     22  C   LIG d   1      -0.698  81.962 111.739  0.00  0.00     0.382 C 
ATOM     23  O   LIG d   1      -0.644  80.751 111.415  0.00  0.00    -0.241 OA
ATOM     24  O   LIG d   1      -1.712  82.397 112.317  0.00  0.00    -0.241 OA
ENDBRANCH   3  22
TORSDOF 7
ENDMDL
MODEL 5
REMARK VINA RESULT:      -5.8      2.205      3.019
REMARK  7 active torsions:
REMARK  status: ('A' for Active; 'I' for Inactive)
REMARK    1  A    between atoms: C_2  and  C_3 
REMARK    2  A    between atoms: C_3  and  O_6 
REMARK    3  A    between atoms: C_3  and  C_4 
REMARK    4  A    between atoms: C_7  and  O_6 
REMARK    5  A    between atoms: C_9  and  C_10 
REMARK    6  A    between atoms: N_15  and  C_14 
REMARK    7  A    between atoms: N_20  and  C_19 
REMARK       I    between atoms: C_22  and  N_20 
ROOT
ATOM      1  C   LIG d   1       1.608  83.014 110.700  0.00  0.00     0.161 C 
ATOM      2  C   LIG d   1       1.502  82.453 111.984  0.00  0.00     0.016 C 
ATOM      3  C   LIG d   1       1.087  81.122 112.219  0.00  0.00     0.038 C 
ATOM      4  C   LIG d   1       0.892  80.209 111.171  0.00  0.00     0.028 C 
ATOM      5  C   LIG d   1       0.499  80.873 109.856  0.00  0.00    -0.047 C 
ATOM      6  C   LIG d   1       1.507  82.001 109.541  0.00  0.00     0.091 C 
ENDROOT
BRANCH   1   7
ATOM      7  O   LIG d   1       2.829  83.773 110.598  0.00  0.00    -0.368 OA
BRANCH   7   8
ATOM      8  C   LIG d   1       2.680  85.210 110.496  0.00  0.00     0.119 C 
BRANCH   8   9
ATOM      9  C   LIG d   1       3.609  85.848 111.547  0.00  0.00     0.028 C 
ATOM     10  C   LIG d   1       2.915  86.964 112.345  0.00  0.00     0.006 C 
ENDBRANCH   8   9
BRANCH   8  11
ATOM     11  C   LIG d   1       1.266  85.652 110.885  0.00  0.00     0.028 C 
ATOM     12  C   LIG d   1       0.334  85.802 109.672  0.00  0.00     0.006 C 
ENDBRANCH   8  11
ENDBRANCH   7   8
ENDBRANCH   1   7
BRANCH   6  13
ATOM     13  N   LIG d   1       1.147  82.757 108.313  0.00  0.00    -0.311 N 
ATOM     14  C   LIG d   1       1.906  82.782 107.219  0.00  0.00     0.210 C 
ATOM     15  C   LIG d   1       1.360  83.639 106.072  0.00  0.00     0.109 C 
ATOM     16  O   LIG d   1       2.964  82.150 107.077  0.00  0.00    -0.276 OA
ATOM     17  H   LIG d   1       0.289  83.273 108.330  0.00  0.00     0.149 HD
ENDBRANCH   6  13
BRANCH   5  18
ATOM     18  N   LIG d   1       0.464  79.823 108.820  0.00  0.00     0.381 N 
ATOM     19  H   LIG d   1      -0.320  79.968 108.216  0.00  0.00    -0.090 HD
ATOM     20  H   LIG d   1       0.356  78.929 109.267  0.00  0.00    -0.090 HD
ATOM     21  H   LIG d   1       1.307  79.838 108.290  0.00  0.00    -0.090 HD
ENDBRANCH   5  18
BRANCH   3  22
ATOM     22  C   LIG d   1       0.822  80.703 113.514  0.00  0.00     0.382 C 
ATOM     23  O   LIG d   1       1.640  80.953 114.433  0.00  0.00    -0.241 OA
ATOM     24  O   LIG d   1      -0.202  80.041 113.767  0.00  0.00    -0.241 OA
ENDBRANCH   3  22
TORSDOF 7
ENDMDL
MODEL 6
REMARK VINA RESULT:      -5.6      1.730      2.221
REMARK  7 active torsions:
REMARK  status: ('A' for Active; 'I' for Inactive)
REMARK    1  A    between atoms: C_2  and  C_3 
REMARK    2  A    between atoms: C_3  and  O_6 
REMARK    3  A    between atoms: C_3  and  C_4 
REMARK    4  A    between atoms: C_7  and  O_6 
REMARK    5  A    between atoms: C_9  and  C_10 
REMARK    6  A    between atoms: N_15  and  C_14 
REMARK    7  A    between atoms: N_20  and  C_19 
REMARK       I    between atoms: C_22  and  N_20 
ROOT
ATOM      1  C   LIG d   1       0.965  81.052 110.781  0.00  0.00     0.161 C 
ATOM      2  C   LIG d   1      -0.065  80.357 111.437  0.00  0.00     0.016 C 
ATOM      3  C   LIG d   1      -0.492  79.063 111.062  0.00  0.00     0.038 C 
ATOM      4  C   LIG d   1       0.187  78.309 110.093  0.00  0.00     0.028 C 
ATOM      5  C   LIG d   1       0.913  79.164 109.059  0.00  0.00    -0.047 C 
ATOM      6  C   LIG d   1       1.792  80.201 109.794  0.00  0.00     0.091 C 
ENDROOT
BRANCH   1   7
ATOM      7  O   LIG d   1       1.829  81.675 111.751  0.00  0.00    -0.368 OA
BRANCH   7   8
ATOM      8  C   LIG d   1       1.529  83.054 112.079  0.00  0.00     0.119 C 
BRANCH   8   9
ATOM      9  C   LIG d   1       1.043  83.742 110.788  0.00  0.00     0.028 C 
ATOM     10  C   LIG d   1      -0.100  84.737 111.048  0.00  0.00     0.006 C 
ENDBRANCH   8   9
BRANCH   8  11
ATOM     11  C   LIG d   1       2.791  83.816 112.494  0.00  0.00     0.028 C 
ATOM     12  C   LIG d   1       3.849  83.869 111.380  0.00  0.00     0.006 C 
ENDBRANCH   8  11
ENDBRANCH   7   8
ENDBRANCH   1   7
BRANCH   6  13
ATOM     13  N   LIG d   1       2.472  81.133 108.857  0.00  0.00    -0.311 N 
ATOM     14  C   LIG d   1       3.796  81.251 108.771  0.00  0.00     0.210 C 
ATOM     15  C   LIG d   1       4.289  82.285 107.754  0.00  0.00     0.109 C 
ATOM     16  O   LIG d   1       4.609  80.574 109.418  0.00  0.00    -0.276 OA
ATOM     17  H   LIG d   1       1.888  81.699 108.272  0.00  0.00     0.149 HD
ENDBRANCH   6  13
BRANCH   5  18
ATOM     18  N   LIG d   1       1.690  78.255 108.196  0.00  0.00     0.381 N 
ATOM     19  H   LIG d   1       2.468  77.887 108.705  0.00  0.00    -0.090 HD
ATOM     20  H   LIG d   1       2.043  78.775 107.412  0.00  0.00    -0.090 HD
ATOM     21  H   LIG d   1       1.110  77.511 107.875  0.00  0.00    -0.090 HD
ENDBRANCH   5  18
BRANCH   3  22
ATOM     22  C   LIG d   1      -1.637  78.526 111.630  0.00  0.00     0.382 C 
ATOM     23  O   LIG d   1      -2.547  79.284 112.044  0.00  0.00    -0.241 OA
ATOM     24  O   LIG d   1      -1.752  77.294 111.775  0.00  0.00    -0.241 OA
ENDBRANCH   3  22
TORSDOF 7
ENDMDL
MODEL 7
REMARK VINA RESULT:      -5.4      2.050      3.727
REMARK  7 active torsions:
REMARK  status: ('A' for Active; 'I' for Inactive)
REMARK    1  A    between atoms: C_2  and  C_3 
REMARK    2  A    between atoms: C_3  and  O_6 
REMARK    3  A    between atoms: C_3  and  C_4 
REMARK    4  A    between atoms: C_7  and  O_6 
REMARK    5  A    between atoms: C_9  and  C_10 
REMARK    6  A    between atoms: N_15  and  C_14 
REMARK    7  A    between atoms: N_20  and  C_19 
REMARK       I    between atoms: C_22  and  N_20 
ROOT
ATOM      1  C   LIG d   1       1.723  81.493 112.332  0.00  0.00     0.161 C 
ATOM      2  C   LIG d   1       0.647  80.620 112.561  0.00  0.00     0.016 C 
ATOM      3  C   LIG d   1      -0.703  80.970 112.323  0.00  0.00     0.038 C 
ATOM      4  C   LIG d   1      -1.057  82.172 111.694  0.00  0.00     0.028 C 
ATOM      5  C   LIG d   1      -0.043  83.290 111.909  0.00  0.00    -0.047 C 
ATOM      6  C   LIG d   1       1.365  82.769 111.542  0.00  0.00     0.091 C 
ENDROOT
BRANCH   1   7
ATOM      7  O   LIG d   1       2.797  80.785 111.682  0.00  0.00    -0.368 OA
BRANCH   7   8
ATOM      8  C   LIG d   1       2.802  80.828 110.233  0.00  0.00     0.119 C 
BRANCH   8   9
ATOM      9  C   LIG d   1       2.603  79.386 109.727  0.00  0.00     0.028 C 
ATOM     10  C   LIG d   1       1.192  79.153 109.162  0.00  0.00     0.006 C 
ENDBRANCH   8   9
BRANCH   8  11
ATOM     11  C   LIG d   1       4.169  81.261 109.694  0.00  0.00     0.028 C 
ATOM     12  C   LIG d   1       4.075  81.966 108.331  0.00  0.00     0.006 C 
ENDBRANCH   8  11
ENDBRANCH   7   8
ENDBRANCH   1   7
BRANCH   6  13
ATOM     13  N   LIG d   1       2.428  83.774 111.804  0.00  0.00    -0.311 N 
ATOM     14  C   LIG d   1       2.853  84.646 110.891  0.00  0.00     0.210 C 
ATOM     15  C   LIG d   1       3.971  85.581 111.362  0.00  0.00     0.109 C 
ATOM     16  O   LIG d   1       2.388  84.756 109.747  0.00  0.00    -0.276 OA
ATOM     17  H   LIG d   1       2.839  83.776 112.717  0.00  0.00     0.149 HD
ENDBRANCH   6  13
BRANCH   5  18
ATOM     18  N   LIG d   1      -0.466  84.440 111.088  0.00  0.00     0.381 N 
ATOM     19  H   LIG d   1      -0.102  84.346 110.161  0.00  0.00    -0.090 HD
ATOM     20  H   LIG d   1      -0.092  85.282 111.489  0.00  0.00    -0.090 HD
ATOM     21  H   LIG d   1      -1.461  84.491 111.059  0.00  0.00    -0.090 HD
ENDBRANCH   5  18
BRANCH   3  22
ATOM     22  C   LIG d   1      -1.717  80.127 112.753  0.00  0.00     0.382 C 
ATOM     23  O   LIG d   1      -1.441  78.978 113.175  0.00  0.00    -0.241 OA
ATOM     24  O   LIG d   1      -2.908  80.486 112.684  0.00  0.00    -0.241 OA
ENDBRANCH   3  22
TORSDOF 7
ENDMDL
MODEL 8
REMARK VINA RESULT:      -5.3      2.605      4.880
REMARK  7 active torsions:
REMARK  status: ('A' for Active; 'I' for Inactive)
REMARK    1  A    between atoms: C_2  and  C_3 
REMARK    2  A    between atoms: C_3  and  O_6 
REMARK    3  A    between atoms: C_3  and  C_4 
REMARK    4  A    between atoms: C_7  and  O_6 
REMARK    5  A    between atoms: C_9  and  C_10 
REMARK    6  A    between atoms: N_15  and  C_14 
REMARK    7  A    between atoms: N_20  and  C_19 
REMARK       I    between atoms: C_22  and  N_20 
ROOT
ATOM      1  C   LIG d   1       2.995  82.456 110.940  0.00  0.00     0.161 C 
ATOM      2  C   LIG d   1       3.122  82.529 109.543  0.00  0.00     0.016 C 
ATOM      3  C   LIG d   1       2.032  82.760 108.673  0.00  0.00     0.038 C 
ATOM      4  C   LIG d   1       0.756  83.088 109.155  0.00  0.00     0.028 C 
ATOM      5  C   LIG d   1       0.471  82.529 110.545  0.00  0.00    -0.047 C 
ATOM      6  C   LIG d   1       1.630  82.921 111.490  0.00  0.00     0.091 C 
ENDROOT
BRANCH   1   7
ATOM      7  O   LIG d   1       4.064  83.191 111.568  0.00  0.00    -0.368 OA
BRANCH   7   8
ATOM      8  C   LIG d   1       3.684  84.410 112.252  0.00  0.00     0.119 C 
BRANCH   8   9
ATOM      9  C   LIG d   1       3.762  85.559 111.229  0.00  0.00     0.028 C 
ATOM     10  C   LIG d   1       2.384  86.172 110.928  0.00  0.00     0.006 C 
ENDBRANCH   8   9
BRANCH   8  11
ATOM     11  C   LIG d   1       4.692  84.772 113.347  0.00  0.00     0.028 C 
ATOM     12  C   LIG d   1       4.816  86.288 113.565  0.00  0.00     0.006 C 
ENDBRANCH   8  11
ENDBRANCH   7   8
ENDBRANCH   1   7
BRANCH   6  13
ATOM     13  N   LIG d   1       1.472  82.343 112.850  0.00  0.00    -0.311 N 
ATOM     14  C   LIG d   1       0.976  81.128 113.077  0.00  0.00     0.210 C 
ATOM     15  C   LIG d   1       0.881  80.734 114.554  0.00  0.00     0.109 C 
ATOM     16  O   LIG d   1       0.635  80.327 112.194  0.00  0.00    -0.276 OA
ATOM     17  H   LIG d   1       1.754  82.913 113.624  0.00  0.00     0.149 HD
ENDBRANCH   6  13
BRANCH   5  18
ATOM     18  N   LIG d   1      -0.834  83.060 110.980  0.00  0.00     0.381 N 
ATOM     19  H   LIG d   1      -1.096  83.832 110.400  0.00  0.00    -0.090 HD
ATOM     20  H   LIG d   1      -0.753  83.389 111.926  0.00  0.00    -0.090 HD
ATOM     21  H   LIG d   1      -1.527  82.346 110.928  0.00  0.00    -0.090 HD
ENDBRANCH   5  18
BRANCH   3  22
ATOM     22  C   LIG d   1       2.205  82.626 107.304  0.00  0.00     0.382 C 
ATOM     23  O   LIG d   1       3.084  81.851 106.856  0.00  0.00    -0.241 OA
ATOM     24  O   LIG d   1       1.523  83.303 106.512  0.00  0.00    -0.241 OA
ENDBRANCH   3  22
TORSDOF 7
ENDMDL
MODEL 9
REMARK VINA RESULT:      -5.2      2.872      5.191
REMARK  7 active torsions:
REMARK  status: ('A' for Active; 'I' for Inactive)
REMARK    1  A    between atoms: C_2  and  C_3 
REMARK    2  A    between atoms: C_3  and  O_6 
REMARK    3  A    between atoms: C_3  and  C_4 
REMARK    4  A    between atoms: C_7  and  O_6 
REMARK    5  A    between atoms: C_9  and  C_10 
REMARK    6  A    between atoms: N_15  and  C_14 
REMARK    7  A    between atoms: N_20  and  C_19 
REMARK       I    between atoms: C_22  and  N_20 
ROOT
ATOM      1  C   LIG d   1       2.939  83.853 111.406  0.00  0.00     0.161 C 
ATOM      2  C   LIG d   1       2.662  84.896 112.306  0.00  0.00     0.016 C 
ATOM      3  C   LIG d   1       1.837  85.999 111.987  0.00  0.00     0.038 C 
ATOM      4  C   LIG d   1       1.106  86.058 110.791  0.00  0.00     0.028 C 
ATOM      5  C   LIG d   1       1.749  85.277 109.650  0.00  0.00    -0.047 C 
ATOM      6  C   LIG d   1       2.063  83.844 110.136  0.00  0.00     0.091 C 
ENDROOT
BRANCH   1   7
ATOM      7  O   LIG d   1       2.850  82.585 112.086  0.00  0.00    -0.368 OA
BRANCH   7   8
ATOM      8  C   LIG d   1       1.520  82.025 112.218  0.00  0.00     0.119 C 
BRANCH   8   9
ATOM      9  C   LIG d   1       1.268  81.783 113.719  0.00  0.00     0.028 C 
ATOM     10  C   LIG d   1       0.195  80.709 113.968  0.00  0.00     0.006 C 
ENDBRANCH   8   9
BRANCH   8  11
ATOM     11  C   LIG d   1       1.430  80.643 111.564  0.00  0.00     0.028 C 
ATOM     12  C   LIG d   1       2.766  80.180 110.963  0.00  0.00     0.006 C 
ENDBRANCH   8  11
ENDBRANCH   7   8
ENDBRANCH   1   7
BRANCH   6  13
ATOM     13  N   LIG d   1       2.770  83.038 109.107  0.00  0.00    -0.311 N 
ATOM     14  C   LIG d   1       2.159  82.154 108.320  0.00  0.00     0.210 C 
ATOM     15  C   LIG d   1       3.077  81.416 107.341  0.00  0.00     0.109 C 
ATOM     16  O   LIG d   1       0.938  81.935 108.318  0.00  0.00    -0.276 OA
ATOM     17  H   LIG d   1       3.758  83.175 109.020  0.00  0.00     0.149 HD
ENDBRANCH   6  13
BRANCH   5  18
ATOM     18  N   LIG d   1       0.816  85.309 108.507  0.00  0.00     0.381 N 
ATOM     19  H   LIG d   1       1.239  85.790 107.739  0.00  0.00    -0.090 HD
ATOM     20  H   LIG d   1      -0.012  85.810 108.777  0.00  0.00    -0.090 HD
ATOM     21  H   LIG d   1       0.578  84.380 108.236  0.00  0.00    -0.090 HD
ENDBRANCH   5  18
BRANCH   3  22
ATOM     22  C   LIG d   1       1.767  87.078 112.855  0.00  0.00     0.382 C 
ATOM     23  O   LIG d   1       1.064  87.005 113.892  0.00  0.00    -0.241 OA
ATOM     24  O   LIG d   1       2.363  88.140 112.592  0.00  0.00    -0.241 OA
ENDBRANCH   3  22
TORSDOF 7
ENDMDL
