MODEL 1
REMARK VINA RESULT:      -6.2      0.000      0.000
REMARK  7 active torsions:
REMARK  status: ('A' for Active; 'I' for Inactive)
REMARK    1  A    between atoms: C_2  and  C_3 
REMARK    2  A    between atoms: C_3  and  O_6 
REMARK    3  A    between atoms: C_3  and  C_4 
REMARK    4  A    between atoms: C_7  and  O_6 
REMARK    5  A    between atoms: C_9  and  C_10 
REMARK    6  A    between atoms: N_15  and  C_14 
REMARK    7  A    between atoms: N_20  and  C_19 
REMARK       I    between atoms: C_22  and  N_20 
ROOT
ATOM      1  C   LIG d   1       0.015  82.594 111.598  0.00  0.00     0.161 C 
ATOM      2  C   LIG d   1      -1.126  82.293 112.361  0.00  0.00     0.016 C 
ATOM      3  C   LIG d   1      -1.548  80.973 112.642  0.00  0.00     0.038 C 
ATOM      4  C   LIG d   1      -0.767  79.858 112.304  0.00  0.00     0.028 C 
ATOM      5  C   LIG d   1       0.133  80.092 111.096  0.00  0.00    -0.047 C 
ATOM      6  C   LIG d   1       0.940  81.392 111.315  0.00  0.00     0.091 C 
ENDROOT
BRANCH   1   7
ATOM      7  O   LIG d   1       0.756  83.659 112.227  0.00  0.00    -0.368 OA
BRANCH   7   8
ATOM      8  C   LIG d   1       0.761  84.929 111.530  0.00  0.00     0.119 C 
BRANCH   8   9
ATOM      9  C   LIG d   1      -0.056  84.751 110.236  0.00  0.00     0.028 C 
ATOM     10  C   LIG d   1       0.704  85.237 108.991  0.00  0.00     0.006 C 
ENDBRANCH   8   9
BRANCH   8  11
ATOM     11  C   LIG d   1       2.172  85.307 111.071  0.00  0.00     0.028 C 
ATOM     12  C   LIG d   1       3.271  84.573 111.855  0.00  0.00     0.006 C 
ENDBRANCH   8  11
ENDBRANCH   7   8
ENDBRANCH   1   7
BRANCH   6  13
ATOM     13  N   LIG d   1       1.785  81.740 110.143  0.00  0.00    -0.311 N 
ATOM     14  C   LIG d   1       3.053  81.354 110.013  0.00  0.00     0.210 C 
ATOM     15  C   LIG d   1       3.748  81.838 108.737  0.00  0.00     0.109 C 
ATOM     16  O   LIG d   1       3.658  80.630 110.818  0.00  0.00    -0.276 OA
ATOM     17  H   LIG d   1       1.363  82.299 109.427  0.00  0.00     0.149 HD
ENDBRANCH   6  13
BRANCH   5  18
ATOM     18  N   LIG d   1       0.988  78.900 110.940  0.00  0.00     0.381 N 
ATOM     19  H   LIG d   1       1.392  78.890 110.024  0.00  0.00    -0.090 HD
ATOM     20  H   LIG d   1       0.421  78.077 111.043  0.00  0.00    -0.090 HD
ATOM     21  H   LIG d   1       1.708  78.904 111.628  0.00  0.00    -0.090 HD
ENDBRANCH   5  18
BRANCH   3  22
ATOM     22  C   LIG d   1      -2.783  80.758 113.233  0.00  0.00     0.382 C 
ATOM     23  O   LIG d   1      -2.988  79.712 113.895  0.00  0.00    -0.241 OA
ATOM     24  O   LIG d   1      -3.710  81.576 113.076  0.00  0.00    -0.241 OA
ENDBRANCH   3  22
TORSDOF 7
ENDMDL
MODEL 2
REMARK VINA RESULT:      -6.2      2.734      5.863
REMARK  7 active torsions:
REMARK  status: ('A' for Active; 'I' for Inactive)
REMARK    1  A    between atoms: C_2  and  C_3 
REMARK    2  A    between atoms: C_3  and  O_6 
REMARK    3  A    between atoms: C_3  and  C_4 
REMARK    4  A    between atoms: C_7  and  O_6 
REMARK    5  A    between atoms: C_9  and  C_10 
REMARK    6  A    between atoms: N_15  and  C_14 
REMARK    7  A    between atoms: N_20  and  C_19 
REMARK       I    between atoms: C_22  and  N_20 
ROOT
ATOM      1  C   LIG d   1       2.884  84.036 110.803  0.00  0.00     0.161 C 
ATOM      2  C   LIG d   1       3.529  85.281 110.882  0.00  0.00     0.016 C 
ATOM      3  C   LIG d   1       3.571  86.062 112.060  0.00  0.00     0.038 C 
ATOM      4  C   LIG d   1       3.096  85.578 113.288  0.00  0.00     0.028 C 
ATOM      5  C   LIG d   1       1.988  84.540 113.142  0.00  0.00    -0.047 C 
ATOM      6  C   LIG d   1       2.456  83.441 112.161  0.00  0.00     0.091 C 
ENDROOT
BRANCH   1   7
ATOM      7  O   LIG d   1       3.713  83.100 110.085  0.00  0.00    -0.368 OA
BRANCH   7   8
ATOM      8  C   LIG d   1       3.207  82.652 108.804  0.00  0.00     0.119 C 
BRANCH   8   9
ATOM      9  C   LIG d   1       1.901  83.421 108.528  0.00  0.00     0.028 C 
ATOM     10  C   LIG d   1       1.589  83.528 107.026  0.00  0.00     0.006 C 
ENDBRANCH   8   9
BRANCH   8  11
ATOM     11  C   LIG d   1       2.807  81.175 108.849  0.00  0.00     0.028 C 
ATOM     12  C   LIG d   1       3.639  80.362 109.854  0.00  0.00     0.006 C 
ENDBRANCH   8  11
ENDBRANCH   7   8
ENDBRANCH   1   7
BRANCH   6  13
ATOM     13  N   LIG d   1       1.400  82.430 111.896  0.00  0.00    -0.311 N 
ATOM     14  C   LIG d   1       1.305  81.278 112.558  0.00  0.00     0.210 C 
ATOM     15  C   LIG d   1       0.154  80.370 112.115  0.00  0.00     0.109 C 
ATOM     16  O   LIG d   1       2.046  80.936 113.493  0.00  0.00    -0.276 OA
ATOM     17  H   LIG d   1       0.738  82.640 111.175  0.00  0.00     0.149 HD
ENDBRANCH   6  13
BRANCH   5  18
ATOM     18  N   LIG d   1       1.683  84.021 114.489  0.00  0.00     0.381 N 
ATOM     19  H   LIG d   1       1.956  83.061 114.551  0.00  0.00    -0.090 HD
ATOM     20  H   LIG d   1       0.692  84.078 114.642  0.00  0.00    -0.090 HD
ATOM     21  H   LIG d   1       2.165  84.556 115.177  0.00  0.00    -0.090 HD
ENDBRANCH   5  18
BRANCH   3  22
ATOM     22  C   LIG d   1       4.057  87.360 112.007  0.00  0.00     0.382 C 
ATOM     23  O   LIG d   1       3.274  88.329 112.154  0.00  0.00    -0.241 OA
ATOM     24  O   LIG d   1       5.261  87.574 111.771  0.00  0.00    -0.241 OA
ENDBRANCH   3  22
TORSDOF 7
ENDMDL
MODEL 3
REMARK VINA RESULT:      -6.2      1.832      5.086
REMARK  7 active torsions:
REMARK  status: ('A' for Active; 'I' for Inactive)
REMARK    1  A    between atoms: C_2  and  C_3 
REMARK    2  A    between atoms: C_3  and  O_6 
REMARK    3  A    between atoms: C_3  and  C_4 
REMARK    4  A    between atoms: C_7  and  O_6 
REMARK    5  A    between atoms: C_9  and  C_10 
REMARK    6  A    between atoms: N_15  and  C_14 
REMARK    7  A    between atoms: N_20  and  C_19 
REMARK       I    between atoms: C_22  and  N_20 
ROOT
ATOM      1  C   LIG d   1       1.196  82.205 112.172  0.00  0.00     0.161 C 
ATOM      2  C   LIG d   1       2.261  82.771 111.452  0.00  0.00     0.016 C 
ATOM      3  C   LIG d   1       2.506  82.503 110.086  0.00  0.00     0.038 C 
ATOM      4  C   LIG d   1       1.608  81.764 109.303  0.00  0.00     0.028 C 
ATOM      5  C   LIG d   1       0.789  80.758 110.106  0.00  0.00    -0.047 C 
ATOM      6  C   LIG d   1       0.141  81.484 111.307  0.00  0.00     0.091 C 
ENDROOT
BRANCH   1   7
ATOM      7  O   LIG d   1       0.568  83.213 112.990  0.00  0.00    -0.368 OA
BRANCH   7   8
ATOM      8  C   LIG d   1       0.677  84.578 112.515  0.00  0.00     0.119 C 
BRANCH   8   9
ATOM      9  C   LIG d   1       1.020  85.464 113.728  0.00  0.00     0.028 C 
ATOM     10  C   LIG d   1       2.536  85.652 113.908  0.00  0.00     0.006 C 
ENDBRANCH   8   9
BRANCH   8  11
ATOM     11  C   LIG d   1      -0.668  85.097 112.000  0.00  0.00     0.028 C 
ATOM     12  C   LIG d   1      -0.724  85.192 110.467  0.00  0.00     0.006 C 
ENDBRANCH   8  11
ENDBRANCH   7   8
ENDBRANCH   1   7
BRANCH   6  13
ATOM     13  N   LIG d   1      -0.609  80.556 112.193  0.00  0.00    -0.311 N 
ATOM     14  C   LIG d   1      -1.775  80.864 112.757  0.00  0.00     0.210 C 
ATOM     15  C   LIG d   1      -2.370  79.770 113.651  0.00  0.00     0.109 C 
ATOM     16  O   LIG d   1      -2.390  81.926 112.577  0.00  0.00    -0.276 OA
ATOM     17  H   LIG d   1      -0.198  79.660 112.367  0.00  0.00     0.149 HD
ENDBRANCH   6  13
BRANCH   5  18
ATOM     18  N   LIG d   1      -0.200  80.157 109.192  0.00  0.00     0.381 N 
ATOM     19  H   LIG d   1      -0.715  80.878 108.727  0.00  0.00    -0.090 HD
ATOM     20  H   LIG d   1      -0.845  79.604 109.728  0.00  0.00    -0.090 HD
ATOM     21  H   LIG d   1       0.261  79.583 108.520  0.00  0.00    -0.090 HD
ENDBRANCH   5  18
BRANCH   3  22
ATOM     22  C   LIG d   1       3.682  82.945 109.499  0.00  0.00     0.382 C 
ATOM     23  O   LIG d   1       4.216  84.011 109.890  0.00  0.00    -0.241 OA
ATOM     24  O   LIG d   1       4.193  82.313 108.555  0.00  0.00    -0.241 OA
ENDBRANCH   3  22
TORSDOF 7
ENDMDL
MODEL 4
REMARK VINA RESULT:      -6.1      2.353      4.337
REMARK  7 active torsions:
REMARK  status: ('A' for Active; 'I' for Inactive)
REMARK    1  A    between atoms: C_2  and  C_3 
REMARK    2  A    between atoms: C_3  and  O_6 
REMARK    3  A    between atoms: C_3  and  C_4 
REMARK    4  A    between atoms: C_7  and  O_6 
REMARK    5  A    between atoms: C_9  and  C_10 
REMARK    6  A    between atoms: N_15  and  C_14 
REMARK    7  A    between atoms: N_20  and  C_19 
REMARK       I    between atoms: C_22  and  N_20 
ROOT
ATOM      1  C   LIG d   1       2.098  82.825 112.028  0.00  0.00     0.161 C 
ATOM      2  C   LIG d   1       1.010  81.941 112.115  0.00  0.00     0.016 C 
ATOM      3  C   LIG d   1      -0.340  82.362 112.080  0.00  0.00     0.038 C 
ATOM      4  C   LIG d   1      -0.695  83.691 111.803  0.00  0.00     0.028 C 
ATOM      5  C   LIG d   1       0.372  84.701 112.211  0.00  0.00    -0.047 C 
ATOM      6  C   LIG d   1       1.729  84.266 111.614  0.00  0.00     0.091 C 
ENDROOT
BRANCH   1   7
ATOM      7  O   LIG d   1       3.095  82.287 111.137  0.00  0.00    -0.368 OA
BRANCH   7   8
ATOM      8  C   LIG d   1       2.597  81.613 109.955  0.00  0.00     0.119 C 
BRANCH   8   9
ATOM      9  C   LIG d   1       3.247  80.217 109.909  0.00  0.00     0.028 C 
ATOM     10  C   LIG d   1       2.238  79.090 110.181  0.00  0.00     0.006 C 
ENDBRANCH   8   9
BRANCH   8  11
ATOM     11  C   LIG d   1       3.057  82.318 108.676  0.00  0.00     0.028 C 
ATOM     12  C   LIG d   1       1.907  83.015 107.932  0.00  0.00     0.006 C 
ENDBRANCH   8  11
ENDBRANCH   7   8
ENDBRANCH   1   7
BRANCH   6  13
ATOM     13  N   LIG d   1       2.844  85.154 112.034  0.00  0.00    -0.311 N 
ATOM     14  C   LIG d   1       3.172  86.273 111.392  0.00  0.00     0.210 C 
ATOM     15  C   LIG d   1       4.367  87.030 111.980  0.00  0.00     0.109 C 
ATOM     16  O   LIG d   1       2.567  86.728 110.410  0.00  0.00    -0.276 OA
ATOM     17  H   LIG d   1       3.369  84.876 112.841  0.00  0.00     0.149 HD
ENDBRANCH   6  13
BRANCH   5  18
ATOM     18  N   LIG d   1      -0.068  86.028 111.741  0.00  0.00     0.381 N 
ATOM     19  H   LIG d   1      -1.046  86.142 111.916  0.00  0.00    -0.090 HD
ATOM     20  H   LIG d   1       0.084  86.088 110.749  0.00  0.00    -0.090 HD
ATOM     21  H   LIG d   1       0.446  86.743 112.207  0.00  0.00    -0.090 HD
ENDBRANCH   5  18
BRANCH   3  22
ATOM     22  C   LIG d   1      -1.350  81.456 112.364  0.00  0.00     0.382 C 
ATOM     23  O   LIG d   1      -1.162  80.229 112.180  0.00  0.00    -0.241 OA
ATOM     24  O   LIG d   1      -2.462  81.853 112.761  0.00  0.00    -0.241 OA
ENDBRANCH   3  22
TORSDOF 7
ENDMDL
MODEL 5
REMARK VINA RESULT:      -5.9      1.917      4.784
REMARK  7 active torsions:
REMARK  status: ('A' for Active; 'I' for Inactive)
REMARK    1  A    between atoms: C_2  and  C_3 
REMARK    2  A    between atoms: C_3  and  O_6 
REMARK    3  A    between atoms: C_3  and  C_4 
REMARK    4  A    between atoms: C_7  and  O_6 
REMARK    5  A    between atoms: C_9  and  C_10 
REMARK    6  A    between atoms: N_15  and  C_14 
REMARK    7  A    between atoms: N_20  and  C_19 
REMARK       I    between atoms: C_22  and  N_20 
ROOT
ATOM      1  C   LIG d   1       0.682  82.386 111.092  0.00  0.00     0.161 C 
ATOM      2  C   LIG d   1       1.499  82.728 110.002  0.00  0.00     0.016 C 
ATOM      3  C   LIG d   1       2.095  81.773 109.146  0.00  0.00     0.038 C 
ATOM      4  C   LIG d   1       1.789  80.407 109.232  0.00  0.00     0.028 C 
ATOM      5  C   LIG d   1       1.368  79.968 110.631  0.00  0.00    -0.047 C 
ATOM      6  C   LIG d   1       0.247  80.906 111.135  0.00  0.00     0.091 C 
ENDROOT
BRANCH   1   7
ATOM      7  O   LIG d   1      -0.472  83.248 111.127  0.00  0.00    -0.368 OA
BRANCH   7   8
ATOM      8  C   LIG d   1      -0.524  84.200 112.218  0.00  0.00     0.119 C 
BRANCH   8   9
ATOM      9  C   LIG d   1      -0.643  85.607 111.600  0.00  0.00     0.028 C 
ATOM     10  C   LIG d   1      -0.927  85.562 110.090  0.00  0.00     0.006 C 
ENDBRANCH   8   9
BRANCH   8  11
ATOM     11  C   LIG d   1       0.788  84.214 113.008  0.00  0.00     0.028 C 
ATOM     12  C   LIG d   1       1.037  85.550 113.726  0.00  0.00     0.006 C 
ENDBRANCH   8  11
ENDBRANCH   7   8
ENDBRANCH   1   7
BRANCH   6  13
ATOM     13  N   LIG d   1      -0.165  80.599 112.529  0.00  0.00    -0.311 N 
ATOM     14  C   LIG d   1      -1.217  79.840 112.832  0.00  0.00     0.210 C 
ATOM     15  C   LIG d   1      -1.478  79.666 114.332  0.00  0.00     0.109 C 
ATOM     16  O   LIG d   1      -1.940  79.269 112.002  0.00  0.00    -0.276 OA
ATOM     17  H   LIG d   1       0.385  80.996 113.265  0.00  0.00     0.149 HD
ENDBRANCH   6  13
BRANCH   5  18
ATOM     18  N   LIG d   1       0.946  78.557 110.547  0.00  0.00     0.381 N 
ATOM     19  H   LIG d   1       1.747  77.960 110.606  0.00  0.00    -0.090 HD
ATOM     20  H   LIG d   1       0.503  78.402 109.658  0.00  0.00    -0.090 HD
ATOM     21  H   LIG d   1       0.310  78.346 111.284  0.00  0.00    -0.090 HD
ENDBRANCH   5  18
BRANCH   3  22
ATOM     22  C   LIG d   1       3.039  82.179 108.215  0.00  0.00     0.382 C 
ATOM     23  O   LIG d   1       2.676  82.769 107.170  0.00  0.00    -0.241 OA
ATOM     24  O   LIG d   1       4.246  81.922 108.387  0.00  0.00    -0.241 OA
ENDBRANCH   3  22
TORSDOF 7
ENDMDL
MODEL 6
REMARK VINA RESULT:      -5.6      2.505      4.071
REMARK  7 active torsions:
REMARK  status: ('A' for Active; 'I' for Inactive)
REMARK    1  A    between atoms: C_2  and  C_3 
REMARK    2  A    between atoms: C_3  and  O_6 
REMARK    3  A    between atoms: C_3  and  C_4 
REMARK    4  A    between atoms: C_7  and  O_6 
REMARK    5  A    between atoms: C_9  and  C_10 
REMARK    6  A    between atoms: N_15  and  C_14 
REMARK    7  A    between atoms: N_20  and  C_19 
REMARK       I    between atoms: C_22  and  N_20 
ROOT
ATOM      1  C   LIG d   1       0.240  80.669 111.353  0.00  0.00     0.161 C 
ATOM      2  C   LIG d   1      -0.019  79.304 111.144  0.00  0.00     0.016 C 
ATOM      3  C   LIG d   1      -1.148  78.637 111.671  0.00  0.00     0.038 C 
ATOM      4  C   LIG d   1      -2.181  79.328 112.321  0.00  0.00     0.028 C 
ATOM      5  C   LIG d   1      -1.719  80.616 112.992  0.00  0.00    -0.047 C 
ATOM      6  C   LIG d   1      -0.933  81.463 111.966  0.00  0.00     0.091 C 
ENDROOT
BRANCH   1   7
ATOM      7  O   LIG d   1       0.668  81.280 110.120  0.00  0.00    -0.368 OA
BRANCH   7   8
ATOM      8  C   LIG d   1       2.036  81.757 110.086  0.00  0.00     0.119 C 
BRANCH   8   9
ATOM      9  C   LIG d   1       2.035  83.114 109.357  0.00  0.00     0.028 C 
ATOM     10  C   LIG d   1       1.916  82.962 107.831  0.00  0.00     0.006 C 
ENDBRANCH   8   9
BRANCH   8  11
ATOM     11  C   LIG d   1       2.924  80.842 109.237  0.00  0.00     0.028 C 
ATOM     12  C   LIG d   1       3.562  79.707 110.053  0.00  0.00     0.006 C 
ENDBRANCH   8  11
ENDBRANCH   7   8
ENDBRANCH   1   7
BRANCH   6  13
ATOM     13  N   LIG d   1      -0.372  82.703 112.564  0.00  0.00    -0.311 N 
ATOM     14  C   LIG d   1      -0.450  83.898 111.981  0.00  0.00     0.210 C 
ATOM     15  C   LIG d   1       0.210  85.041 112.759  0.00  0.00     0.109 C 
ATOM     16  O   LIG d   1      -1.032  84.126 110.910  0.00  0.00    -0.276 OA
ATOM     17  H   LIG d   1       0.090  82.614 113.448  0.00  0.00     0.149 HD
ENDBRANCH   6  13
BRANCH   5  18
ATOM     18  N   LIG d   1      -2.917  81.303 113.511  0.00  0.00     0.381 N 
ATOM     19  H   LIG d   1      -2.647  82.137 113.994  0.00  0.00    -0.090 HD
ATOM     20  H   LIG d   1      -3.382  80.697 114.164  0.00  0.00    -0.090 HD
ATOM     21  H   LIG d   1      -3.532  81.530 112.761  0.00  0.00    -0.090 HD
ENDBRANCH   5  18
BRANCH   3  22
ATOM     22  C   LIG d   1      -1.232  77.255 111.584  0.00  0.00     0.382 C 
ATOM     23  O   LIG d   1      -0.464  76.627 110.816  0.00  0.00    -0.241 OA
ATOM     24  O   LIG d   1      -2.096  76.633 112.230  0.00  0.00    -0.241 OA
ENDBRANCH   3  22
TORSDOF 7
ENDMDL
MODEL 7
REMARK VINA RESULT:      -5.5      2.515      4.017
REMARK  7 active torsions:
REMARK  status: ('A' for Active; 'I' for Inactive)
REMARK    1  A    between atoms: C_2  and  C_3 
REMARK    2  A    between atoms: C_3  and  O_6 
REMARK    3  A    between atoms: C_3  and  C_4 
REMARK    4  A    between atoms: C_7  and  O_6 
REMARK    5  A    between atoms: C_9  and  C_10 
REMARK    6  A    between atoms: N_15  and  C_14 
REMARK    7  A    between atoms: N_20  and  C_19 
REMARK       I    between atoms: C_22  and  N_20 
ROOT
ATOM      1  C   LIG d   1       2.369  81.341 111.777  0.00  0.00     0.161 C 
ATOM      2  C   LIG d   1       2.108  80.115 111.141  0.00  0.00     0.016 C 
ATOM      3  C   LIG d   1       0.806  79.602 110.946  0.00  0.00     0.038 C 
ATOM      4  C   LIG d   1      -0.340  80.356 111.239  0.00  0.00     0.028 C 
ATOM      5  C   LIG d   1      -0.122  81.385 112.344  0.00  0.00    -0.047 C 
ATOM      6  C   LIG d   1       1.128  82.229 112.004  0.00  0.00     0.091 C 
ENDROOT
BRANCH   1   7
ATOM      7  O   LIG d   1       3.377  82.066 111.044  0.00  0.00    -0.368 OA
BRANCH   7   8
ATOM      8  C   LIG d   1       2.892  83.069 110.117  0.00  0.00     0.119 C 
BRANCH   8   9
ATOM      9  C   LIG d   1       2.911  82.444 108.708  0.00  0.00     0.028 C 
ATOM     10  C   LIG d   1       1.847  83.055 107.781  0.00  0.00     0.006 C 
ENDBRANCH   8   9
BRANCH   8  11
ATOM     11  C   LIG d   1       3.845  84.265 110.042  0.00  0.00     0.028 C 
ATOM     12  C   LIG d   1       3.275  85.524 110.714  0.00  0.00     0.006 C 
ENDBRANCH   8  11
ENDBRANCH   7   8
ENDBRANCH   1   7
BRANCH   6  13
ATOM     13  N   LIG d   1       1.462  83.203 113.075  0.00  0.00    -0.311 N 
ATOM     14  C   LIG d   1       0.989  84.448 113.107  0.00  0.00     0.210 C 
ATOM     15  C   LIG d   1       1.475  85.294 114.288  0.00  0.00     0.109 C 
ATOM     16  O   LIG d   1       0.189  84.922 112.287  0.00  0.00    -0.276 OA
ATOM     17  H   LIG d   1       2.081  82.892 113.798  0.00  0.00     0.149 HD
ENDBRANCH   6  13
BRANCH   5  18
ATOM     18  N   LIG d   1      -1.352  82.191 112.452  0.00  0.00     0.381 N 
ATOM     19  H   LIG d   1      -1.430  82.568 113.376  0.00  0.00    -0.090 HD
ATOM     20  H   LIG d   1      -2.146  81.597 112.286  0.00  0.00    -0.090 HD
ATOM     21  H   LIG d   1      -1.335  82.930 111.784  0.00  0.00    -0.090 HD
ENDBRANCH   5  18
BRANCH   3  22
ATOM     22  C   LIG d   1       0.640  78.304 110.487  0.00  0.00     0.382 C 
ATOM     23  O   LIG d   1       1.618  77.677 110.014  0.00  0.00    -0.241 OA
ATOM     24  O   LIG d   1      -0.484  77.768 110.500  0.00  0.00    -0.241 OA
ENDBRANCH   3  22
TORSDOF 7
ENDMDL
MODEL 8
REMARK VINA RESULT:      -5.4      2.193      5.669
REMARK  7 active torsions:
REMARK  status: ('A' for Active; 'I' for Inactive)
REMARK    1  A    between atoms: C_2  and  C_3 
REMARK    2  A    between atoms: C_3  and  O_6 
REMARK    3  A    between atoms: C_3  and  C_4 
REMARK    4  A    between atoms: C_7  and  O_6 
REMARK    5  A    between atoms: C_9  and  C_10 
REMARK    6  A    between atoms: N_15  and  C_14 
REMARK    7  A    between atoms: N_20  and  C_19 
REMARK       I    between atoms: C_22  and  N_20 
ROOT
ATOM      1  C   LIG d   1       2.102  82.350 111.010  0.00  0.00     0.161 C 
ATOM      2  C   LIG d   1       2.844  83.538 110.897  0.00  0.00     0.016 C 
ATOM      3  C   LIG d   1       2.385  84.790 111.368  0.00  0.00     0.038 C 
ATOM      4  C   LIG d   1       1.209  84.912 112.123  0.00  0.00     0.028 C 
ATOM      5  C   LIG d   1       0.182  83.826 111.825  0.00  0.00    -0.047 C 
ATOM      6  C   LIG d   1       0.867  82.444 111.930  0.00  0.00     0.091 C 
ENDROOT
BRANCH   1   7
ATOM      7  O   LIG d   1       2.963  81.275 111.435  0.00  0.00    -0.368 OA
BRANCH   7   8
ATOM      8  C   LIG d   1       3.343  80.321 110.413  0.00  0.00     0.119 C 
BRANCH   8   9
ATOM      9  C   LIG d   1       3.231  81.032 109.051  0.00  0.00     0.028 C 
ATOM     10  C   LIG d   1       4.588  81.557 108.551  0.00  0.00     0.006 C 
ENDBRANCH   8   9
BRANCH   8  11
ATOM     11  C   LIG d   1       2.352  79.155 110.344  0.00  0.00     0.028 C 
ATOM     12  C   LIG d   1       1.439  79.221 109.109  0.00  0.00     0.006 C 
ENDBRANCH   8  11
ENDBRANCH   7   8
ENDBRANCH   1   7
BRANCH   6  13
ATOM     13  N   LIG d   1      -0.047  81.329 111.571  0.00  0.00    -0.311 N 
ATOM     14  C   LIG d   1      -0.422  80.383 112.430  0.00  0.00     0.210 C 
ATOM     15  C   LIG d   1      -1.354  79.314 111.849  0.00  0.00     0.109 C 
ATOM     16  O   LIG d   1      -0.097  80.344 113.626  0.00  0.00    -0.276 OA
ATOM     17  H   LIG d   1      -0.384  81.301 110.629  0.00  0.00     0.149 HD
ENDBRANCH   6  13
BRANCH   5  18
ATOM     18  N   LIG d   1      -0.932  83.993 112.778  0.00  0.00     0.381 N 
ATOM     19  H   LIG d   1      -0.636  84.554 113.551  0.00  0.00    -0.090 HD
ATOM     20  H   LIG d   1      -1.199  83.089 113.127  0.00  0.00    -0.090 HD
ATOM     21  H   LIG d   1      -1.708  84.423 112.323  0.00  0.00    -0.090 HD
ENDBRANCH   5  18
BRANCH   3  22
ATOM     22  C   LIG d   1       3.086  85.943 111.048  0.00  0.00     0.382 C 
ATOM     23  O   LIG d   1       2.476  86.940 110.592  0.00  0.00    -0.241 OA
ATOM     24  O   LIG d   1       4.325  85.983 111.168  0.00  0.00    -0.241 OA
ENDBRANCH   3  22
TORSDOF 7
ENDMDL
MODEL 9
REMARK VINA RESULT:      -5.2      2.519      4.133
REMARK  7 active torsions:
REMARK  status: ('A' for Active; 'I' for Inactive)
REMARK    1  A    between atoms: C_2  and  C_3 
REMARK    2  A    between atoms: C_3  and  O_6 
REMARK    3  A    between atoms: C_3  and  C_4 
REMARK    4  A    between atoms: C_7  and  O_6 
REMARK    5  A    between atoms: C_9  and  C_10 
REMARK    6  A    between atoms: N_15  and  C_14 
REMARK    7  A    between atoms: N_20  and  C_19 
REMARK       I    between atoms: C_22  and  N_20 
ROOT
ATOM      1  C   LIG d   1       1.799  83.015 111.147  0.00  0.00     0.161 C 
ATOM      2  C   LIG d   1       1.329  84.338 111.083  0.00  0.00     0.016 C 
ATOM      3  C   LIG d   1       0.044  84.729 111.525  0.00  0.00     0.038 C 
ATOM      4  C   LIG d   1      -0.808  83.845 112.203  0.00  0.00     0.028 C 
ATOM      5  C   LIG d   1      -0.578  82.382 111.837  0.00  0.00    -0.047 C 
ATOM      6  C   LIG d   1       0.926  82.058 111.985  0.00  0.00     0.091 C 
ENDROOT
BRANCH   1   7
ATOM      7  O   LIG d   1       3.158  83.002 111.625  0.00  0.00    -0.368 OA
BRANCH   7   8
ATOM      8  C   LIG d   1       4.179  83.336 110.653  0.00  0.00     0.119 C 
BRANCH   8   9
ATOM      9  C   LIG d   1       4.321  84.871 110.639  0.00  0.00     0.028 C 
ATOM     10  C   LIG d   1       4.568  85.450 112.042  0.00  0.00     0.006 C 
ENDBRANCH   8   9
BRANCH   8  11
ATOM     11  C   LIG d   1       3.744  82.956 109.234  0.00  0.00     0.028 C 
ATOM     12  C   LIG d   1       4.329  81.613 108.771  0.00  0.00     0.006 C 
ENDBRANCH   8  11
ENDBRANCH   7   8
ENDBRANCH   1   7
BRANCH   6  13
ATOM     13  N   LIG d   1       1.251  80.670 111.566  0.00  0.00    -0.311 N 
ATOM     14  C   LIG d   1       1.127  80.234 110.313  0.00  0.00     0.210 C 
ATOM     15  C   LIG d   1       1.496  78.763 110.101  0.00  0.00     0.109 C 
ATOM     16  O   LIG d   1       0.776  80.935 109.352  0.00  0.00    -0.276 OA
ATOM     17  H   LIG d   1       1.572  80.042 112.277  0.00  0.00     0.149 HD
ENDBRANCH   6  13
BRANCH   5  18
ATOM     18  N   LIG d   1      -1.435  81.563 112.716  0.00  0.00     0.381 N 
ATOM     19  H   LIG d   1      -1.720  82.102 113.509  0.00  0.00    -0.090 HD
ATOM     20  H   LIG d   1      -0.905  80.775 113.044  0.00  0.00    -0.090 HD
ATOM     21  H   LIG d   1      -2.236  81.249 112.214  0.00  0.00    -0.090 HD
ENDBRANCH   5  18
BRANCH   3  22
ATOM     22  C   LIG d   1      -0.416  86.008 111.253  0.00  0.00     0.382 C 
ATOM     23  O   LIG d   1       0.254  87.006 111.613  0.00  0.00    -0.241 OA
ATOM     24  O   LIG d   1      -1.514  86.178 110.690  0.00  0.00    -0.241 OA
ENDBRANCH   3  22
TORSDOF 7
ENDMDL
