MODEL 1
REMARK VINA RESULT:      -6.6      0.000      0.000
REMARK  7 active torsions:
REMARK  status: ('A' for Active; 'I' for Inactive)
REMARK    1  A    between atoms: C_2  and  C_3 
REMARK    2  A    between atoms: C_3  and  O_6 
REMARK    3  A    between atoms: C_3  and  C_4 
REMARK    4  A    between atoms: C_7  and  O_6 
REMARK    5  A    between atoms: C_9  and  C_10 
REMARK    6  A    between atoms: N_15  and  C_14 
REMARK    7  A    between atoms: N_20  and  C_19 
REMARK       I    between atoms: C_22  and  N_20 
ROOT
ATOM      1  C   LIG d   1       0.278  82.485 111.038  0.00  0.00     0.161 C 
ATOM      2  C   LIG d   1      -0.883  82.255 111.794  0.00  0.00     0.016 C 
ATOM      3  C   LIG d   1      -1.536  81.002 111.855  0.00  0.00     0.038 C 
ATOM      4  C   LIG d   1      -0.981  79.848 111.281  0.00  0.00     0.028 C 
ATOM      5  C   LIG d   1      -0.077  80.140 110.088  0.00  0.00    -0.047 C 
ATOM      6  C   LIG d   1       0.960  81.212 110.495  0.00  0.00     0.091 C 
ENDROOT
BRANCH   1   7
ATOM      7  O   LIG d   1       1.215  83.265 111.808  0.00  0.00    -0.368 OA
BRANCH   7   8
ATOM      8  C   LIG d   1       1.403  84.637 111.382  0.00  0.00     0.119 C 
BRANCH   8   9
ATOM      9  C   LIG d   1       0.528  84.859 110.133  0.00  0.00     0.028 C 
ATOM     10  C   LIG d   1      -0.527  85.958 110.343  0.00  0.00     0.006 C 
ENDBRANCH   8   9
BRANCH   8  11
ATOM     11  C   LIG d   1       2.842  84.884 110.918  0.00  0.00     0.028 C 
ATOM     12  C   LIG d   1       3.566  85.946 111.761  0.00  0.00     0.006 C 
ENDBRANCH   8  11
ENDBRANCH   7   8
ENDBRANCH   1   7
BRANCH   6  13
ATOM     13  N   LIG d   1       1.831  81.617 109.361  0.00  0.00    -0.311 N 
ATOM     14  C   LIG d   1       3.162  81.613 109.421  0.00  0.00     0.210 C 
ATOM     15  C   LIG d   1       3.868  82.087 108.147  0.00  0.00     0.109 C 
ATOM     16  O   LIG d   1       3.824  81.233 110.398  0.00  0.00    -0.276 OA
ATOM     17  H   LIG d   1       1.376  81.910 108.519  0.00  0.00     0.149 HD
ENDBRANCH   6  13
BRANCH   5  18
ATOM     18  N   LIG d   1       0.540  78.866 109.675  0.00  0.00     0.381 N 
ATOM     19  H   LIG d   1       1.179  79.027 108.922  0.00  0.00    -0.090 HD
ATOM     20  H   LIG d   1      -0.180  78.246 109.350  0.00  0.00    -0.090 HD
ATOM     21  H   LIG d   1       1.021  78.454 110.445  0.00  0.00    -0.090 HD
ENDBRANCH   5  18
BRANCH   3  22
ATOM     22  C   LIG d   1      -2.778  80.903 112.463  0.00  0.00     0.382 C 
ATOM     23  O   LIG d   1      -3.213  79.783 112.823  0.00  0.00    -0.241 OA
ATOM     24  O   LIG d   1      -3.489  81.915 112.616  0.00  0.00    -0.241 OA
ENDBRANCH   3  22
TORSDOF 7
ENDMDL
MODEL 2
REMARK VINA RESULT:      -6.5      1.630      4.941
REMARK  7 active torsions:
REMARK  status: ('A' for Active; 'I' for Inactive)
REMARK    1  A    between atoms: C_2  and  C_3 
REMARK    2  A    between atoms: C_3  and  O_6 
REMARK    3  A    between atoms: C_3  and  C_4 
REMARK    4  A    between atoms: C_7  and  O_6 
REMARK    5  A    between atoms: C_9  and  C_10 
REMARK    6  A    between atoms: N_15  and  C_14 
REMARK    7  A    between atoms: N_20  and  C_19 
REMARK       I    between atoms: C_22  and  N_20 
ROOT
ATOM      1  C   LIG d   1       1.489  82.990 111.513  0.00  0.00     0.161 C 
ATOM      2  C   LIG d   1       2.464  82.805 110.518  0.00  0.00     0.016 C 
ATOM      3  C   LIG d   1       2.422  81.752 109.575  0.00  0.00     0.038 C 
ATOM      4  C   LIG d   1       1.316  80.896 109.468  0.00  0.00     0.028 C 
ATOM      5  C   LIG d   1       0.547  80.733 110.775  0.00  0.00    -0.047 C 
ATOM      6  C   LIG d   1       0.218  82.133 111.341  0.00  0.00     0.091 C 
ENDROOT
BRANCH   1   7
ATOM      7  O   LIG d   1       1.143  84.387 111.603  0.00  0.00    -0.368 OA
BRANCH   7   8
ATOM      8  C   LIG d   1       1.613  85.231 110.523  0.00  0.00     0.119 C 
BRANCH   8   9
ATOM      9  C   LIG d   1       2.047  86.574 111.141  0.00  0.00     0.028 C 
ATOM     10  C   LIG d   1       3.364  86.459 111.929  0.00  0.00     0.006 C 
ENDBRANCH   8   9
BRANCH   8  11
ATOM     11  C   LIG d   1       0.479  85.579 109.554  0.00  0.00     0.028 C 
ATOM     12  C   LIG d   1      -0.828  85.946 110.274  0.00  0.00     0.006 C 
ENDBRANCH   8  11
ENDBRANCH   7   8
ENDBRANCH   1   7
BRANCH   6  13
ATOM     13  N   LIG d   1      -0.460  82.065 112.662  0.00  0.00    -0.311 N 
ATOM     14  C   LIG d   1      -1.783  82.012 112.804  0.00  0.00     0.210 C 
ATOM     15  C   LIG d   1      -2.276  81.967 114.254  0.00  0.00     0.109 C 
ATOM     16  O   LIG d   1      -2.594  81.965 111.867  0.00  0.00    -0.276 OA
ATOM     17  H   LIG d   1       0.124  82.066 113.475  0.00  0.00     0.149 HD
ENDBRANCH   6  13
BRANCH   5  18
ATOM     18  N   LIG d   1      -0.655  79.928 110.487  0.00  0.00     0.381 N 
ATOM     19  H   LIG d   1      -1.166  80.340 109.732  0.00  0.00    -0.090 HD
ATOM     20  H   LIG d   1      -1.244  79.921 111.301  0.00  0.00    -0.090 HD
ATOM     21  H   LIG d   1      -0.393  78.996 110.250  0.00  0.00    -0.090 HD
ENDBRANCH   5  18
BRANCH   3  22
ATOM     22  C   LIG d   1       3.515  81.522 108.752  0.00  0.00     0.382 C 
ATOM     23  O   LIG d   1       3.562  82.045 107.613  0.00  0.00    -0.241 OA
ATOM     24  O   LIG d   1       4.433  80.764 109.118  0.00  0.00    -0.241 OA
ENDBRANCH   3  22
TORSDOF 7
ENDMDL
MODEL 3
REMARK VINA RESULT:      -6.2      2.369      5.690
REMARK  7 active torsions:
REMARK  status: ('A' for Active; 'I' for Inactive)
REMARK    1  A    between atoms: C_2  and  C_3 
REMARK    2  A    between atoms: C_3  and  O_6 
REMARK    3  A    between atoms: C_3  and  C_4 
REMARK    4  A    between atoms: C_7  and  O_6 
REMARK    5  A    between atoms: C_9  and  C_10 
REMARK    6  A    between atoms: N_15  and  C_14 
REMARK    7  A    between atoms: N_20  and  C_19 
REMARK       I    between atoms: C_22  and  N_20 
ROOT
ATOM      1  C   LIG d   1       0.325  83.660 110.360  0.00  0.00     0.161 C 
ATOM      2  C   LIG d   1       1.245  84.722 110.355  0.00  0.00     0.016 C 
ATOM      3  C   LIG d   1       1.784  85.291 111.531  0.00  0.00     0.038 C 
ATOM      4  C   LIG d   1       1.552  84.733 112.798  0.00  0.00     0.028 C 
ATOM      5  C   LIG d   1       0.232  83.977 112.894  0.00  0.00    -0.047 C 
ATOM      6  C   LIG d   1       0.146  82.967 111.727  0.00  0.00     0.091 C 
ENDROOT
BRANCH   1   7
ATOM      7  O   LIG d   1       0.686  82.695 109.352  0.00  0.00    -0.368 OA
BRANCH   7   8
ATOM      8  C   LIG d   1       1.932  81.986 109.565  0.00  0.00     0.119 C 
BRANCH   8   9
ATOM      9  C   LIG d   1       2.831  82.254 108.343  0.00  0.00     0.028 C 
ATOM     10  C   LIG d   1       4.229  81.631 108.496  0.00  0.00     0.006 C 
ENDBRANCH   8   9
BRANCH   8  11
ATOM     11  C   LIG d   1       1.714  80.470 109.584  0.00  0.00     0.028 C 
ATOM     12  C   LIG d   1       0.337  80.060 109.040  0.00  0.00     0.006 C 
ENDBRANCH   8  11
ENDBRANCH   7   8
ENDBRANCH   1   7
BRANCH   6  13
ATOM     13  N   LIG d   1      -1.152  82.243 111.698  0.00  0.00    -0.311 N 
ATOM     14  C   LIG d   1      -1.353  81.074 112.304  0.00  0.00     0.210 C 
ATOM     15  C   LIG d   1      -2.759  80.491 112.132  0.00  0.00     0.109 C 
ATOM     16  O   LIG d   1      -0.511  80.481 112.994  0.00  0.00    -0.276 OA
ATOM     17  H   LIG d   1      -1.899  82.668 111.186  0.00  0.00     0.149 HD
ENDBRANCH   6  13
BRANCH   5  18
ATOM     18  N   LIG d   1       0.183  83.333 114.221  0.00  0.00     0.381 N 
ATOM     19  H   LIG d   1      -0.751  83.034 114.418  0.00  0.00    -0.090 HD
ATOM     20  H   LIG d   1       0.453  84.004 114.918  0.00  0.00    -0.090 HD
ATOM     21  H   LIG d   1       0.802  82.552 114.244  0.00  0.00    -0.090 HD
ENDBRANCH   5  18
BRANCH   3  22
ATOM     22  C   LIG d   1       2.533  86.455 111.451  0.00  0.00     0.382 C 
ATOM     23  O   LIG d   1       3.784  86.403 111.528  0.00  0.00    -0.241 OA
ATOM     24  O   LIG d   1       1.970  87.562 111.347  0.00  0.00    -0.241 OA
ENDBRANCH   3  22
TORSDOF 7
ENDMDL
MODEL 4
REMARK VINA RESULT:      -6.0      2.286      4.734
REMARK  7 active torsions:
REMARK  status: ('A' for Active; 'I' for Inactive)
REMARK    1  A    between atoms: C_2  and  C_3 
REMARK    2  A    between atoms: C_3  and  O_6 
REMARK    3  A    between atoms: C_3  and  C_4 
REMARK    4  A    between atoms: C_7  and  O_6 
REMARK    5  A    between atoms: C_9  and  C_10 
REMARK    6  A    between atoms: N_15  and  C_14 
REMARK    7  A    between atoms: N_20  and  C_19 
REMARK       I    between atoms: C_22  and  N_20 
ROOT
ATOM      1  C   LIG d   1       0.013  82.515 110.186  0.00  0.00     0.161 C 
ATOM      2  C   LIG d   1       0.186  83.909 110.202  0.00  0.00     0.016 C 
ATOM      3  C   LIG d   1      -0.218  84.732 111.279  0.00  0.00     0.038 C 
ATOM      4  C   LIG d   1      -0.689  84.194 112.486  0.00  0.00     0.028 C 
ATOM      5  C   LIG d   1      -1.351  82.830 112.324  0.00  0.00    -0.047 C 
ATOM      6  C   LIG d   1      -0.398  81.899 111.540  0.00  0.00     0.091 C 
ENDROOT
BRANCH   1   7
ATOM      7  O   LIG d   1       1.207  81.880 109.689  0.00  0.00    -0.368 OA
BRANCH   7   8
ATOM      8  C   LIG d   1       2.321  82.758 109.396  0.00  0.00     0.119 C 
BRANCH   8   9
ATOM      9  C   LIG d   1       3.004  82.230 108.119  0.00  0.00     0.028 C 
ATOM     10  C   LIG d   1       4.365  81.576 108.408  0.00  0.00     0.006 C 
ENDBRANCH   8   9
BRANCH   8  11
ATOM     11  C   LIG d   1       3.392  82.684 110.488  0.00  0.00     0.028 C 
ATOM     12  C   LIG d   1       3.632  84.034 111.180  0.00  0.00     0.006 C 
ENDBRANCH   8  11
ENDBRANCH   7   8
ENDBRANCH   1   7
BRANCH   6  13
ATOM     13  N   LIG d   1      -1.003  80.570 111.264  0.00  0.00    -0.311 N 
ATOM     14  C   LIG d   1      -1.083  79.599 112.172  0.00  0.00     0.210 C 
ATOM     15  C   LIG d   1      -1.726  78.300 111.674  0.00  0.00     0.109 C 
ATOM     16  O   LIG d   1      -0.713  79.700 113.351  0.00  0.00    -0.276 OA
ATOM     17  H   LIG d   1      -1.357  80.413 110.341  0.00  0.00     0.149 HD
ENDBRANCH   6  13
BRANCH   5  18
ATOM     18  N   LIG d   1      -1.671  82.326 113.673  0.00  0.00     0.381 N 
ATOM     19  H   LIG d   1      -2.541  81.832 113.653  0.00  0.00    -0.090 HD
ATOM     20  H   LIG d   1      -1.767  83.108 114.298  0.00  0.00    -0.090 HD
ATOM     21  H   LIG d   1      -0.945  81.723 113.993  0.00  0.00    -0.090 HD
ENDBRANCH   5  18
BRANCH   3  22
ATOM     22  C   LIG d   1      -0.190  86.111 111.139  0.00  0.00     0.382 C 
ATOM     23  O   LIG d   1       0.910  86.714 111.094  0.00  0.00    -0.241 OA
ATOM     24  O   LIG d   1      -1.250  86.764 111.102  0.00  0.00    -0.241 OA
ENDBRANCH   3  22
TORSDOF 7
ENDMDL
MODEL 5
REMARK VINA RESULT:      -5.6      2.391      5.221
REMARK  7 active torsions:
REMARK  status: ('A' for Active; 'I' for Inactive)
REMARK    1  A    between atoms: C_2  and  C_3 
REMARK    2  A    between atoms: C_3  and  O_6 
REMARK    3  A    between atoms: C_3  and  C_4 
REMARK    4  A    between atoms: C_7  and  O_6 
REMARK    5  A    between atoms: C_9  and  C_10 
REMARK    6  A    between atoms: N_15  and  C_14 
REMARK    7  A    between atoms: N_20  and  C_19 
REMARK       I    between atoms: C_22  and  N_20 
ROOT
ATOM      1  C   LIG d   1       0.316  82.160 111.311  0.00  0.00     0.161 C 
ATOM      2  C   LIG d   1       0.850  83.398 111.705  0.00  0.00     0.016 C 
ATOM      3  C   LIG d   1       0.382  84.127 112.822  0.00  0.00     0.038 C 
ATOM      4  C   LIG d   1      -0.556  83.591 113.717  0.00  0.00     0.028 C 
ATOM      5  C   LIG d   1      -1.484  82.564 113.078  0.00  0.00    -0.047 C 
ATOM      6  C   LIG d   1      -0.631  81.507 112.339  0.00  0.00     0.091 C 
ENDROOT
BRANCH   1   7
ATOM      7  O   LIG d   1       1.385  81.255 110.969  0.00  0.00    -0.368 OA
BRANCH   7   8
ATOM      8  C   LIG d   1       1.702  81.147 109.559  0.00  0.00     0.119 C 
BRANCH   8   9
ATOM      9  C   LIG d   1       0.957  79.915 109.010  0.00  0.00     0.028 C 
ATOM     10  C   LIG d   1       1.913  78.769 108.638  0.00  0.00     0.006 C 
ENDBRANCH   8   9
BRANCH   8  11
ATOM     11  C   LIG d   1       3.189  80.850 109.344  0.00  0.00     0.028 C 
ATOM     12  C   LIG d   1       3.896  81.926 108.505  0.00  0.00     0.006 C 
ENDBRANCH   8  11
ENDBRANCH   7   8
ENDBRANCH   1   7
BRANCH   6  13
ATOM     13  N   LIG d   1      -1.464  80.512 111.615  0.00  0.00    -0.311 N 
ATOM     14  C   LIG d   1      -1.778  79.317 112.113  0.00  0.00     0.210 C 
ATOM     15  C   LIG d   1      -2.629  78.437 111.194  0.00  0.00     0.109 C 
ATOM     16  O   LIG d   1      -1.459  78.916 113.242  0.00  0.00    -0.276 OA
ATOM     17  H   LIG d   1      -1.791  80.768 110.704  0.00  0.00     0.149 HD
ENDBRANCH   6  13
BRANCH   5  18
ATOM     18  N   LIG d   1      -2.317  81.987 114.151  0.00  0.00     0.381 N 
ATOM     19  H   LIG d   1      -2.977  82.667 114.470  0.00  0.00    -0.090 HD
ATOM     20  H   LIG d   1      -1.724  81.735 114.922  0.00  0.00    -0.090 HD
ATOM     21  H   LIG d   1      -2.796  81.181 113.814  0.00  0.00    -0.090 HD
ENDBRANCH   5  18
BRANCH   3  22
ATOM     22  C   LIG d   1       0.825  85.424 113.032  0.00  0.00     0.382 C 
ATOM     23  O   LIG d   1       0.031  86.386 112.902  0.00  0.00    -0.241 OA
ATOM     24  O   LIG d   1       2.020  85.647 113.305  0.00  0.00    -0.241 OA
ENDBRANCH   3  22
TORSDOF 7
ENDMDL
MODEL 6
REMARK VINA RESULT:      -4.5     22.640     24.960
REMARK  7 active torsions:
REMARK  status: ('A' for Active; 'I' for Inactive)
REMARK    1  A    between atoms: C_2  and  C_3 
REMARK    2  A    between atoms: C_3  and  O_6 
REMARK    3  A    between atoms: C_3  and  C_4 
REMARK    4  A    between atoms: C_7  and  O_6 
REMARK    5  A    between atoms: C_9  and  C_10 
REMARK    6  A    between atoms: N_15  and  C_14 
REMARK    7  A    between atoms: N_20  and  C_19 
REMARK       I    between atoms: C_22  and  N_20 
ROOT
ATOM      1  C   LIG d   1       7.135  59.543 109.852  0.00  0.00     0.161 C 
ATOM      2  C   LIG d   1       7.496  60.833 109.427  0.00  0.00     0.016 C 
ATOM      3  C   LIG d   1       8.833  61.289 109.373  0.00  0.00     0.038 C 
ATOM      4  C   LIG d   1       9.919  60.429 109.598  0.00  0.00     0.028 C 
ATOM      5  C   LIG d   1       9.585  59.260 110.518  0.00  0.00    -0.047 C 
ATOM      6  C   LIG d   1       8.312  58.556 109.995  0.00  0.00     0.091 C 
ENDROOT
BRANCH   1   7
ATOM      7  O   LIG d   1       6.131  59.001 108.970  0.00  0.00    -0.368 OA
BRANCH   7   8
ATOM      8  C   LIG d   1       6.622  58.266 107.822  0.00  0.00     0.119 C 
BRANCH   8   9
ATOM      9  C   LIG d   1       6.189  59.037 106.560  0.00  0.00     0.028 C 
ATOM     10  C   LIG d   1       7.371  59.727 105.859  0.00  0.00     0.006 C 
ENDBRANCH   8   9
BRANCH   8  11
ATOM     11  C   LIG d   1       5.949  56.895 107.709  0.00  0.00     0.028 C 
ATOM     12  C   LIG d   1       5.869  56.387 106.261  0.00  0.00     0.006 C 
ENDBRANCH   8  11
ENDBRANCH   7   8
ENDBRANCH   1   7
BRANCH   6  13
ATOM     13  N   LIG d   1       7.868  57.452 110.885  0.00  0.00    -0.311 N 
ATOM     14  C   LIG d   1       8.183  56.174 110.681  0.00  0.00     0.210 C 
ATOM     15  C   LIG d   1       7.606  55.194 111.707  0.00  0.00     0.109 C 
ATOM     16  O   LIG d   1       8.913  55.763 109.766  0.00  0.00    -0.276 OA
ATOM     17  H   LIG d   1       7.298  57.700 111.670  0.00  0.00     0.149 HD
ENDBRANCH   6  13
BRANCH   5  18
ATOM     18  N   LIG d   1      10.763  58.373 110.556  0.00  0.00     0.381 N 
ATOM     19  H   LIG d   1      10.939  58.005 109.642  0.00  0.00    -0.090 HD
ATOM     20  H   LIG d   1      10.571  57.603 111.173  0.00  0.00    -0.090 HD
ATOM     21  H   LIG d   1      11.559  58.876 110.879  0.00  0.00    -0.090 HD
ENDBRANCH   5  18
BRANCH   3  22
ATOM     22  C   LIG d   1       9.093  62.629 109.129  0.00  0.00     0.382 C 
ATOM     23  O   LIG d   1       8.494  63.513 109.788  0.00  0.00    -0.241 OA
ATOM     24  O   LIG d   1       9.886  62.965 108.230  0.00  0.00    -0.241 OA
ENDBRANCH   3  22
TORSDOF 7
ENDMDL
MODEL 7
REMARK VINA RESULT:      -4.3     27.538     29.366
REMARK  7 active torsions:
REMARK  status: ('A' for Active; 'I' for Inactive)
REMARK    1  A    between atoms: C_2  and  C_3 
REMARK    2  A    between atoms: C_3  and  O_6 
REMARK    3  A    between atoms: C_3  and  C_4 
REMARK    4  A    between atoms: C_7  and  O_6 
REMARK    5  A    between atoms: C_9  and  C_10 
REMARK    6  A    between atoms: N_15  and  C_14 
REMARK    7  A    between atoms: N_20  and  C_19 
REMARK       I    between atoms: C_22  and  N_20 
ROOT
ATOM      1  C   LIG d   1     -23.161  65.641 108.650  0.00  0.00     0.161 C 
ATOM      2  C   LIG d   1     -21.899  65.030 108.551  0.00  0.00     0.016 C 
ATOM      3  C   LIG d   1     -21.409  64.445 107.360  0.00  0.00     0.038 C 
ATOM      4  C   LIG d   1     -22.091  64.565 106.140  0.00  0.00     0.028 C 
ATOM      5  C   LIG d   1     -23.598  64.732 106.302  0.00  0.00    -0.047 C 
ATOM      6  C   LIG d   1     -23.871  65.879 107.301  0.00  0.00     0.091 C 
ENDROOT
BRANCH   1   7
ATOM      7  O   LIG d   1     -23.049  66.877 109.383  0.00  0.00    -0.368 OA
BRANCH   7   8
ATOM      8  C   LIG d   1     -23.607  66.877 110.720  0.00  0.00     0.119 C 
BRANCH   8   9
ATOM      9  C   LIG d   1     -24.610  68.044 110.803  0.00  0.00     0.028 C 
ATOM     10  C   LIG d   1     -26.032  67.571 111.147  0.00  0.00     0.006 C 
ENDBRANCH   8   9
BRANCH   8  11
ATOM     11  C   LIG d   1     -22.536  67.187 111.770  0.00  0.00     0.028 C 
ATOM     12  C   LIG d   1     -22.503  68.672 112.166  0.00  0.00     0.006 C 
ENDBRANCH   8  11
ENDBRANCH   7   8
ENDBRANCH   1   7
BRANCH   6  13
ATOM     13  N   LIG d   1     -25.321  66.054 107.581  0.00  0.00    -0.311 N 
ATOM     14  C   LIG d   1     -25.976  67.194 107.369  0.00  0.00     0.210 C 
ATOM     15  C   LIG d   1     -27.461  67.165 107.744  0.00  0.00     0.109 C 
ATOM     16  O   LIG d   1     -25.476  68.216 106.876  0.00  0.00    -0.276 OA
ATOM     17  H   LIG d   1     -25.811  65.265 107.953  0.00  0.00     0.149 HD
ENDBRANCH   6  13
BRANCH   5  18
ATOM     18  N   LIG d   1     -24.164  64.984 104.963  0.00  0.00     0.381 N 
ATOM     19  H   LIG d   1     -23.898  64.248 104.339  0.00  0.00    -0.090 HD
ATOM     20  H   LIG d   1     -23.792  65.847 104.610  0.00  0.00    -0.090 HD
ATOM     21  H   LIG d   1     -25.158  65.039 105.018  0.00  0.00    -0.090 HD
ENDBRANCH   5  18
BRANCH   3  22
ATOM     22  C   LIG d   1     -20.243  63.696 107.393  0.00  0.00     0.382 C 
ATOM     23  O   LIG d   1     -19.574  63.532 106.344  0.00  0.00    -0.241 OA
ATOM     24  O   LIG d   1     -19.876  63.144 108.447  0.00  0.00    -0.241 OA
ENDBRANCH   3  22
TORSDOF 7
ENDMDL
MODEL 8
REMARK VINA RESULT:      -4.0     27.899     29.525
REMARK  7 active torsions:
REMARK  status: ('A' for Active; 'I' for Inactive)
REMARK    1  A    between atoms: C_2  and  C_3 
REMARK    2  A    between atoms: C_3  and  O_6 
REMARK    3  A    between atoms: C_3  and  C_4 
REMARK    4  A    between atoms: C_7  and  O_6 
REMARK    5  A    between atoms: C_9  and  C_10 
REMARK    6  A    between atoms: N_15  and  C_14 
REMARK    7  A    between atoms: N_20  and  C_19 
REMARK       I    between atoms: C_22  and  N_20 
ROOT
ATOM      1  C   LIG d   1     -22.073  63.104 107.084  0.00  0.00     0.161 C 
ATOM      2  C   LIG d   1     -20.929  62.504 106.532  0.00  0.00     0.016 C 
ATOM      3  C   LIG d   1     -20.288  62.979 105.364  0.00  0.00     0.038 C 
ATOM      4  C   LIG d   1     -20.661  64.185 104.752  0.00  0.00     0.028 C 
ATOM      5  C   LIG d   1     -22.123  64.553 104.980  0.00  0.00    -0.047 C 
ATOM      6  C   LIG d   1     -22.428  64.485 106.494  0.00  0.00     0.091 C 
ENDROOT
BRANCH   1   7
ATOM      7  O   LIG d   1     -21.935  63.192 108.516  0.00  0.00    -0.368 OA
BRANCH   7   8
ATOM      8  C   LIG d   1     -20.618  62.908 109.048  0.00  0.00     0.119 C 
BRANCH   8   9
ATOM      9  C   LIG d   1     -20.781  61.828 110.136  0.00  0.00     0.028 C 
ATOM     10  C   LIG d   1     -19.843  60.629 109.919  0.00  0.00     0.006 C 
ENDBRANCH   8   9
BRANCH   8  11
ATOM     11  C   LIG d   1     -20.033  64.125 109.770  0.00  0.00     0.028 C 
ATOM     12  C   LIG d   1     -20.376  64.152 111.268  0.00  0.00     0.006 C 
ENDBRANCH   8  11
ENDBRANCH   7   8
ENDBRANCH   1   7
BRANCH   6  13
ATOM     13  N   LIG d   1     -23.859  64.749 106.797  0.00  0.00    -0.311 N 
ATOM     14  C   LIG d   1     -24.268  65.709 107.625  0.00  0.00     0.210 C 
ATOM     15  C   LIG d   1     -25.786  65.798 107.812  0.00  0.00     0.109 C 
ATOM     16  O   LIG d   1     -23.520  66.516 108.197  0.00  0.00    -0.276 OA
ATOM     17  H   LIG d   1     -24.535  64.161 106.351  0.00  0.00     0.149 HD
ENDBRANCH   6  13
BRANCH   5  18
ATOM     18  N   LIG d   1     -22.340  65.895 104.407  0.00  0.00     0.381 N 
ATOM     19  H   LIG d   1     -23.179  65.899 103.861  0.00  0.00    -0.090 HD
ATOM     20  H   LIG d   1     -21.570  66.118 103.801  0.00  0.00    -0.090 HD
ATOM     21  H   LIG d   1     -22.406  66.571 105.135  0.00  0.00    -0.090 HD
ENDBRANCH   5  18
BRANCH   3  22
ATOM     22  C   LIG d   1     -19.286  62.224 104.775  0.00  0.00     0.382 C 
ATOM     23  O   LIG d   1     -18.422  62.780 104.055  0.00  0.00    -0.241 OA
ATOM     24  O   LIG d   1     -19.261  60.987 104.917  0.00  0.00    -0.241 OA
ENDBRANCH   3  22
TORSDOF 7
ENDMDL
MODEL 9
REMARK VINA RESULT:      -4.0     27.316     28.735
REMARK  7 active torsions:
REMARK  status: ('A' for Active; 'I' for Inactive)
REMARK    1  A    between atoms: C_2  and  C_3 
REMARK    2  A    between atoms: C_3  and  O_6 
REMARK    3  A    between atoms: C_3  and  C_4 
REMARK    4  A    between atoms: C_7  and  O_6 
REMARK    5  A    between atoms: C_9  and  C_10 
REMARK    6  A    between atoms: N_15  and  C_14 
REMARK    7  A    between atoms: N_20  and  C_19 
REMARK       I    between atoms: C_22  and  N_20 
ROOT
ATOM      1  C   LIG d   1     -23.418  66.038 110.052  0.00  0.00     0.161 C 
ATOM      2  C   LIG d   1     -23.984  67.180 110.643  0.00  0.00     0.016 C 
ATOM      3  C   LIG d   1     -23.466  67.791 111.807  0.00  0.00     0.038 C 
ATOM      4  C   LIG d   1     -22.249  67.389 112.377  0.00  0.00     0.028 C 
ATOM      5  C   LIG d   1     -21.910  65.926 112.112  0.00  0.00    -0.047 C 
ATOM      6  C   LIG d   1     -22.026  65.651 110.595  0.00  0.00     0.091 C 
ENDROOT
BRANCH   1   7
ATOM      7  O   LIG d   1     -23.369  66.201 108.621  0.00  0.00    -0.368 OA
BRANCH   7   8
ATOM      8  C   LIG d   1     -24.307  65.405 107.856  0.00  0.00     0.119 C 
BRANCH   8   9
ATOM      9  C   LIG d   1     -23.497  64.335 107.099  0.00  0.00     0.028 C 
ATOM     10  C   LIG d   1     -22.120  64.852 106.648  0.00  0.00     0.006 C 
ENDBRANCH   8   9
BRANCH   8  11
ATOM     11  C   LIG d   1     -24.991  66.240 106.770  0.00  0.00     0.028 C 
ATOM     12  C   LIG d   1     -25.573  67.557 107.308  0.00  0.00     0.006 C 
ENDBRANCH   8  11
ENDBRANCH   7   8
ENDBRANCH   1   7
BRANCH   6  13
ATOM     13  N   LIG d   1     -21.793  64.222 110.259  0.00  0.00    -0.311 N 
ATOM     14  C   LIG d   1     -20.609  63.741 109.885  0.00  0.00     0.210 C 
ATOM     15  C   LIG d   1     -20.592  62.243 109.564  0.00  0.00     0.109 C 
ATOM     16  O   LIG d   1     -19.564  64.405 109.821  0.00  0.00    -0.276 OA
ATOM     17  H   LIG d   1     -22.581  63.606 110.315  0.00  0.00     0.149 HD
ENDBRANCH   6  13
BRANCH   5  18
ATOM     18  N   LIG d   1     -20.556  65.678 112.642  0.00  0.00     0.381 N 
ATOM     19  H   LIG d   1     -19.961  66.453 112.426  0.00  0.00    -0.090 HD
ATOM     20  H   LIG d   1     -20.179  64.858 112.201  0.00  0.00    -0.090 HD
ATOM     21  H   LIG d   1     -20.595  65.546 113.629  0.00  0.00    -0.090 HD
ENDBRANCH   5  18
BRANCH   3  22
ATOM     22  C   LIG d   1     -24.188  68.793 112.437  0.00  0.00     0.382 C 
ATOM     23  O   LIG d   1     -25.141  69.349 111.840  0.00  0.00    -0.241 OA
ATOM     24  O   LIG d   1     -23.871  69.179 113.578  0.00  0.00    -0.241 OA
ENDBRANCH   3  22
TORSDOF 7
ENDMDL
