MODEL 1
REMARK VINA RESULT:      -6.7      0.000      0.000
REMARK  7 active torsions:
REMARK  status: ('A' for Active; 'I' for Inactive)
REMARK    1  A    between atoms: C_2  and  C_3 
REMARK    2  A    between atoms: C_3  and  O_6 
REMARK    3  A    between atoms: C_3  and  C_4 
REMARK    4  A    between atoms: C_7  and  O_6 
REMARK    5  A    between atoms: C_9  and  C_10 
REMARK    6  A    between atoms: N_15  and  C_14 
REMARK    7  A    between atoms: N_20  and  C_19 
REMARK       I    between atoms: C_22  and  N_20 
ROOT
ATOM      1  C   LIG d   1       0.275  82.611 111.069  0.00  0.00     0.161 C 
ATOM      2  C   LIG d   1      -0.832  82.265 111.862  0.00  0.00     0.016 C 
ATOM      3  C   LIG d   1      -1.251  80.931 112.072  0.00  0.00     0.038 C 
ATOM      4  C   LIG d   1      -0.497  79.837 111.623  0.00  0.00     0.028 C 
ATOM      5  C   LIG d   1       0.348  80.148 110.392  0.00  0.00    -0.047 C 
ATOM      6  C   LIG d   1       1.175  81.426 110.662  0.00  0.00     0.091 C 
ENDROOT
BRANCH   1   7
ATOM      7  O   LIG d   1       1.053  83.627 111.733  0.00  0.00    -0.368 OA
BRANCH   7   8
ATOM      8  C   LIG d   1       0.740  84.998 111.387  0.00  0.00     0.119 C 
BRANCH   8   9
ATOM      9  C   LIG d   1       0.388  85.028 109.886  0.00  0.00     0.028 C 
ATOM     10  C   LIG d   1      -0.872  85.859 109.595  0.00  0.00     0.006 C 
ENDBRANCH   8   9
BRANCH   8  11
ATOM     11  C   LIG d   1       1.965  85.904 111.534  0.00  0.00     0.028 C 
ATOM     12  C   LIG d   1       3.179  85.400 110.737  0.00  0.00     0.006 C 
ENDBRANCH   8  11
ENDBRANCH   7   8
ENDBRANCH   1   7
BRANCH   6  13
ATOM     13  N   LIG d   1       1.967  81.849 109.477  0.00  0.00    -0.311 N 
ATOM     14  C   LIG d   1       3.297  81.922 109.472  0.00  0.00     0.210 C 
ATOM     15  C   LIG d   1       3.913  82.400 108.154  0.00  0.00     0.109 C 
ATOM     16  O   LIG d   1       4.026  81.606 110.424  0.00  0.00    -0.276 OA
ATOM     17  H   LIG d   1       1.456  82.094 108.651  0.00  0.00     0.149 HD
ENDBRANCH   6  13
BRANCH   5  18
ATOM     18  N   LIG d   1       1.184  78.966 110.115  0.00  0.00     0.381 N 
ATOM     19  H   LIG d   1       0.620  78.139 110.135  0.00  0.00    -0.090 HD
ATOM     20  H   LIG d   1       1.884  78.887 110.832  0.00  0.00    -0.090 HD
ATOM     21  H   LIG d   1       1.620  79.057 109.224  0.00  0.00    -0.090 HD
ENDBRANCH   5  18
BRANCH   3  22
ATOM     22  C   LIG d   1      -2.460  80.683 112.705  0.00  0.00     0.382 C 
ATOM     23  O   LIG d   1      -2.628  79.611 113.337  0.00  0.00    -0.241 OA
ATOM     24  O   LIG d   1      -3.399  81.496 112.616  0.00  0.00    -0.241 OA
ENDBRANCH   3  22
TORSDOF 7
ENDMDL
MODEL 2
REMARK VINA RESULT:      -6.6      2.425      4.474
REMARK  7 active torsions:
REMARK  status: ('A' for Active; 'I' for Inactive)
REMARK    1  A    between atoms: C_2  and  C_3 
REMARK    2  A    between atoms: C_3  and  O_6 
REMARK    3  A    between atoms: C_3  and  C_4 
REMARK    4  A    between atoms: C_7  and  O_6 
REMARK    5  A    between atoms: C_9  and  C_10 
REMARK    6  A    between atoms: N_15  and  C_14 
REMARK    7  A    between atoms: N_20  and  C_19 
REMARK       I    between atoms: C_22  and  N_20 
ROOT
ATOM      1  C   LIG d   1       2.511  82.753 111.578  0.00  0.00     0.161 C 
ATOM      2  C   LIG d   1       1.674  81.625 111.562  0.00  0.00     0.016 C 
ATOM      3  C   LIG d   1       0.273  81.693 111.737  0.00  0.00     0.038 C 
ATOM      4  C   LIG d   1      -0.409  82.918 111.788  0.00  0.00     0.028 C 
ATOM      5  C   LIG d   1       0.446  84.066 112.314  0.00  0.00    -0.047 C 
ATOM      6  C   LIG d   1       1.773  84.107 111.521  0.00  0.00     0.091 C 
ENDROOT
BRANCH   1   7
ATOM      7  O   LIG d   1       3.473  82.662 110.508  0.00  0.00    -0.368 OA
BRANCH   7   8
ATOM      8  C   LIG d   1       3.108  81.813 109.393  0.00  0.00     0.119 C 
BRANCH   8   9
ATOM      9  C   LIG d   1       4.313  80.901 109.091  0.00  0.00     0.028 C 
ATOM     10  C   LIG d   1       4.020  79.422 109.392  0.00  0.00     0.006 C 
ENDBRANCH   8   9
BRANCH   8  11
ATOM     11  C   LIG d   1       2.889  82.632 108.117  0.00  0.00     0.028 C 
ATOM     12  C   LIG d   1       1.415  83.008 107.896  0.00  0.00     0.006 C 
ENDBRANCH   8  11
ENDBRANCH   7   8
ENDBRANCH   1   7
BRANCH   6  13
ATOM     13  N   LIG d   1       2.704  85.148 112.028  0.00  0.00    -0.311 N 
ATOM     14  C   LIG d   1       2.786  86.373 111.511  0.00  0.00     0.210 C 
ATOM     15  C   LIG d   1       3.826  87.285 112.169  0.00  0.00     0.109 C 
ATOM     16  O   LIG d   1       2.073  86.801 110.590  0.00  0.00    -0.276 OA
ATOM     17  H   LIG d   1       3.298  84.896 112.794  0.00  0.00     0.149 HD
ENDBRANCH   6  13
BRANCH   5  18
ATOM     18  N   LIG d   1      -0.343  85.305 112.184  0.00  0.00     0.381 N 
ATOM     19  H   LIG d   1      -1.312  85.107 112.334  0.00  0.00    -0.090 HD
ATOM     20  H   LIG d   1      -0.235  85.664 111.252  0.00  0.00    -0.090 HD
ATOM     21  H   LIG d   1      -0.029  85.980 112.846  0.00  0.00    -0.090 HD
ENDBRANCH   5  18
BRANCH   3  22
ATOM     22  C   LIG d   1      -0.457  80.526 111.902  0.00  0.00     0.382 C 
ATOM     23  O   LIG d   1      -0.603  79.736 110.939  0.00  0.00    -0.241 OA
ATOM     24  O   LIG d   1      -1.008  80.274 112.991  0.00  0.00    -0.241 OA
ENDBRANCH   3  22
TORSDOF 7
ENDMDL
MODEL 3
REMARK VINA RESULT:      -6.3      2.588      5.486
REMARK  7 active torsions:
REMARK  status: ('A' for Active; 'I' for Inactive)
REMARK    1  A    between atoms: C_2  and  C_3 
REMARK    2  A    between atoms: C_3  and  O_6 
REMARK    3  A    between atoms: C_3  and  C_4 
REMARK    4  A    between atoms: C_7  and  O_6 
REMARK    5  A    between atoms: C_9  and  C_10 
REMARK    6  A    between atoms: N_15  and  C_14 
REMARK    7  A    between atoms: N_20  and  C_19 
REMARK       I    between atoms: C_22  and  N_20 
ROOT
ATOM      1  C   LIG d   1       1.252  83.783 110.855  0.00  0.00     0.161 C 
ATOM      2  C   LIG d   1       1.950  84.994 110.717  0.00  0.00     0.016 C 
ATOM      3  C   LIG d   1       2.618  85.633 111.787  0.00  0.00     0.038 C 
ATOM      4  C   LIG d   1       2.762  85.023 113.042  0.00  0.00     0.028 C 
ATOM      5  C   LIG d   1       1.646  84.037 113.367  0.00  0.00    -0.047 C 
ATOM      6  C   LIG d   1       1.492  83.047 112.190  0.00  0.00     0.091 C 
ENDROOT
BRANCH   1   7
ATOM      7  O   LIG d   1       1.553  82.916 109.744  0.00  0.00    -0.368 OA
BRANCH   7   8
ATOM      8  C   LIG d   1       2.839  83.120 109.107  0.00  0.00     0.119 C 
BRANCH   8   9
ATOM      9  C   LIG d   1       2.672  82.786 107.612  0.00  0.00     0.028 C 
ATOM     10  C   LIG d   1       1.410  83.422 107.005  0.00  0.00     0.006 C 
ENDBRANCH   8   9
BRANCH   8  11
ATOM     11  C   LIG d   1       3.883  82.130 109.629  0.00  0.00     0.028 C 
ATOM     12  C   LIG d   1       4.014  80.879 108.745  0.00  0.00     0.006 C 
ENDBRANCH   8  11
ENDBRANCH   7   8
ENDBRANCH   1   7
BRANCH   6  13
ATOM     13  N   LIG d   1       0.365  82.099 112.390  0.00  0.00    -0.311 N 
ATOM     14  C   LIG d   1       0.411  80.818 112.028  0.00  0.00     0.210 C 
ATOM     15  C   LIG d   1      -0.867  80.021 112.307  0.00  0.00     0.109 C 
ATOM     16  O   LIG d   1       1.400  80.258 111.532  0.00  0.00    -0.276 OA
ATOM     17  H   LIG d   1      -0.466  82.462 112.815  0.00  0.00     0.149 HD
ENDBRANCH   6  13
BRANCH   5  18
ATOM     18  N   LIG d   1       1.994  83.374 114.638  0.00  0.00     0.381 N 
ATOM     19  H   LIG d   1       1.487  82.515 114.722  0.00  0.00    -0.090 HD
ATOM     20  H   LIG d   1       1.728  83.973 115.400  0.00  0.00    -0.090 HD
ATOM     21  H   LIG d   1       2.973  83.195 114.673  0.00  0.00    -0.090 HD
ENDBRANCH   5  18
BRANCH   3  22
ATOM     22  C   LIG d   1       3.117  86.916 111.617  0.00  0.00     0.382 C 
ATOM     23  O   LIG d   1       4.350  87.094 111.463  0.00  0.00    -0.241 OA
ATOM     24  O   LIG d   1       2.356  87.901 111.659  0.00  0.00    -0.241 OA
ENDBRANCH   3  22
TORSDOF 7
ENDMDL
MODEL 4
REMARK VINA RESULT:      -6.1      1.774      5.072
REMARK  7 active torsions:
REMARK  status: ('A' for Active; 'I' for Inactive)
REMARK    1  A    between atoms: C_2  and  C_3 
REMARK    2  A    between atoms: C_3  and  O_6 
REMARK    3  A    between atoms: C_3  and  C_4 
REMARK    4  A    between atoms: C_7  and  O_6 
REMARK    5  A    between atoms: C_9  and  C_10 
REMARK    6  A    between atoms: N_15  and  C_14 
REMARK    7  A    between atoms: N_20  and  C_19 
REMARK       I    between atoms: C_22  and  N_20 
ROOT
ATOM      1  C   LIG d   1       1.746  81.073 111.879  0.00  0.00     0.161 C 
ATOM      2  C   LIG d   1       2.796  81.646 111.142  0.00  0.00     0.016 C 
ATOM      3  C   LIG d   1       2.876  81.594 109.732  0.00  0.00     0.038 C 
ATOM      4  C   LIG d   1       1.826  81.093 108.947  0.00  0.00     0.028 C 
ATOM      5  C   LIG d   1       0.977  80.051 109.667  0.00  0.00    -0.047 C 
ATOM      6  C   LIG d   1       0.536  80.620 111.035  0.00  0.00     0.091 C 
ENDROOT
BRANCH   1   7
ATOM      7  O   LIG d   1       1.322  81.982 112.914  0.00  0.00    -0.368 OA
BRANCH   7   8
ATOM      8  C   LIG d   1       1.361  83.392 112.579  0.00  0.00     0.119 C 
BRANCH   8   9
ATOM      9  C   LIG d   1       1.851  84.150 113.828  0.00  0.00     0.028 C 
ATOM     10  C   LIG d   1       1.871  85.674 113.619  0.00  0.00     0.006 C 
ENDBRANCH   8   9
BRANCH   8  11
ATOM     11  C   LIG d   1      -0.043  83.937 112.299  0.00  0.00     0.028 C 
ATOM     12  C   LIG d   1      -0.309  84.154 110.801  0.00  0.00     0.006 C 
ENDBRANCH   8  11
ENDBRANCH   7   8
ENDBRANCH   1   7
BRANCH   6  13
ATOM     13  N   LIG d   1      -0.229  79.632 111.840  0.00  0.00    -0.311 N 
ATOM     14  C   LIG d   1      -1.428  79.884 112.362  0.00  0.00     0.210 C 
ATOM     15  C   LIG d   1      -2.033  78.734 113.175  0.00  0.00     0.109 C 
ATOM     16  O   LIG d   1      -2.061  80.938 112.204  0.00  0.00    -0.276 OA
ATOM     17  H   LIG d   1       0.198  78.739 111.991  0.00  0.00     0.149 HD
ENDBRANCH   6  13
BRANCH   5  18
ATOM     18  N   LIG d   1      -0.158  79.717 108.786  0.00  0.00     0.381 N 
ATOM     19  H   LIG d   1       0.056  79.974 107.844  0.00  0.00    -0.090 HD
ATOM     20  H   LIG d   1      -0.964  80.241 109.081  0.00  0.00    -0.090 HD
ATOM     21  H   LIG d   1      -0.352  78.741 108.835  0.00  0.00    -0.090 HD
ENDBRANCH   5  18
BRANCH   3  22
ATOM     22  C   LIG d   1       4.034  82.011 109.093  0.00  0.00     0.382 C 
ATOM     23  O   LIG d   1       5.087  82.182 109.754  0.00  0.00    -0.241 OA
ATOM     24  O   LIG d   1       4.028  82.262 107.873  0.00  0.00    -0.241 OA
ENDBRANCH   3  22
TORSDOF 7
ENDMDL
MODEL 5
REMARK VINA RESULT:      -5.9      3.355      4.788
REMARK  7 active torsions:
REMARK  status: ('A' for Active; 'I' for Inactive)
REMARK    1  A    between atoms: C_2  and  C_3 
REMARK    2  A    between atoms: C_3  and  O_6 
REMARK    3  A    between atoms: C_3  and  C_4 
REMARK    4  A    between atoms: C_7  and  O_6 
REMARK    5  A    between atoms: C_9  and  C_10 
REMARK    6  A    between atoms: N_15  and  C_14 
REMARK    7  A    between atoms: N_20  and  C_19 
REMARK       I    between atoms: C_22  and  N_20 
ROOT
ATOM      1  C   LIG d   1       2.237  82.392 111.003  0.00  0.00     0.161 C 
ATOM      2  C   LIG d   1       2.981  81.226 110.755  0.00  0.00     0.016 C 
ATOM      3  C   LIG d   1       3.066  80.613 109.483  0.00  0.00     0.038 C 
ATOM      4  C   LIG d   1       2.531  81.214 108.334  0.00  0.00     0.028 C 
ATOM      5  C   LIG d   1       1.345  82.128 108.624  0.00  0.00    -0.047 C 
ATOM      6  C   LIG d   1       1.739  83.123 109.739  0.00  0.00     0.091 C 
ENDROOT
BRANCH   1   7
ATOM      7  O   LIG d   1       3.000  83.290 111.834  0.00  0.00    -0.368 OA
BRANCH   7   8
ATOM      8  C   LIG d   1       2.234  84.217 112.641  0.00  0.00     0.119 C 
BRANCH   8   9
ATOM      9  C   LIG d   1       3.010  85.547 112.681  0.00  0.00     0.028 C 
ATOM     10  C   LIG d   1       3.538  85.961 111.297  0.00  0.00     0.006 C 
ENDBRANCH   8   9
BRANCH   8  11
ATOM     11  C   LIG d   1       2.153  83.751 114.098  0.00  0.00     0.028 C 
ATOM     12  C   LIG d   1       2.622  84.823 115.094  0.00  0.00     0.006 C 
ENDBRANCH   8  11
ENDBRANCH   7   8
ENDBRANCH   1   7
BRANCH   6  13
ATOM     13  N   LIG d   1       0.608  83.998 110.143  0.00  0.00    -0.311 N 
ATOM     14  C   LIG d   1       0.321  85.150 109.539  0.00  0.00     0.210 C 
ATOM     15  C   LIG d   1      -0.875  85.908 110.126  0.00  0.00     0.109 C 
ATOM     16  O   LIG d   1       0.923  85.601 108.553  0.00  0.00    -0.276 OA
ATOM     17  H   LIG d   1       0.048  83.693 110.915  0.00  0.00     0.149 HD
ENDBRANCH   6  13
BRANCH   5  18
ATOM     18  N   LIG d   1       0.975  82.793 107.360  0.00  0.00     0.381 N 
ATOM     19  H   LIG d   1       1.800  83.095 106.883  0.00  0.00    -0.090 HD
ATOM     20  H   LIG d   1       0.417  83.602 107.570  0.00  0.00    -0.090 HD
ATOM     21  H   LIG d   1       0.459  82.165 106.783  0.00  0.00    -0.090 HD
ENDBRANCH   5  18
BRANCH   3  22
ATOM     22  C   LIG d   1       3.657  79.365 109.359  0.00  0.00     0.382 C 
ATOM     23  O   LIG d   1       4.906  79.268 109.290  0.00  0.00    -0.241 OA
ATOM     24  O   LIG d   1       2.956  78.340 109.272  0.00  0.00    -0.241 OA
ENDBRANCH   3  22
TORSDOF 7
ENDMDL
MODEL 6
REMARK VINA RESULT:      -5.5      1.470      2.165
REMARK  7 active torsions:
REMARK  status: ('A' for Active; 'I' for Inactive)
REMARK    1  A    between atoms: C_2  and  C_3 
REMARK    2  A    between atoms: C_3  and  O_6 
REMARK    3  A    between atoms: C_3  and  C_4 
REMARK    4  A    between atoms: C_7  and  O_6 
REMARK    5  A    between atoms: C_9  and  C_10 
REMARK    6  A    between atoms: N_15  and  C_14 
REMARK    7  A    between atoms: N_20  and  C_19 
REMARK       I    between atoms: C_22  and  N_20 
ROOT
ATOM      1  C   LIG d   1       1.154  82.308 111.758  0.00  0.00     0.161 C 
ATOM      2  C   LIG d   1      -0.032  81.973 112.433  0.00  0.00     0.016 C 
ATOM      3  C   LIG d   1      -0.808  80.832 112.123  0.00  0.00     0.038 C 
ATOM      4  C   LIG d   1      -0.366  79.860 111.213  0.00  0.00     0.028 C 
ATOM      5  C   LIG d   1       0.574  80.412 110.147  0.00  0.00    -0.047 C 
ATOM      6  C   LIG d   1       1.709  81.200 110.838  0.00  0.00     0.091 C 
ENDROOT
BRANCH   1   7
ATOM      7  O   LIG d   1       2.157  82.719 112.708  0.00  0.00    -0.368 OA
BRANCH   7   8
ATOM      8  C   LIG d   1       2.601  84.095 112.611  0.00  0.00     0.119 C 
BRANCH   8   9
ATOM      9  C   LIG d   1       2.258  84.787 113.944  0.00  0.00     0.028 C 
ATOM     10  C   LIG d   1       2.356  83.831 115.144  0.00  0.00     0.006 C 
ENDBRANCH   8   9
BRANCH   8  11
ATOM     11  C   LIG d   1       1.814  84.860 111.542  0.00  0.00     0.028 C 
ATOM     12  C   LIG d   1       2.716  85.451 110.448  0.00  0.00     0.006 C 
ENDBRANCH   8  11
ENDBRANCH   7   8
ENDBRANCH   1   7
BRANCH   6  13
ATOM     13  N   LIG d   1       2.627  81.844 109.863  0.00  0.00    -0.311 N 
ATOM     14  C   LIG d   1       3.725  81.256 109.391  0.00  0.00     0.210 C 
ATOM     15  C   LIG d   1       4.542  82.104 108.410  0.00  0.00     0.109 C 
ATOM     16  O   LIG d   1       4.083  80.101 109.666  0.00  0.00    -0.276 OA
ATOM     17  H   LIG d   1       2.396  82.771 109.561  0.00  0.00     0.149 HD
ENDBRANCH   6  13
BRANCH   5  18
ATOM     18  N   LIG d   1       1.064  79.270 109.352  0.00  0.00     0.381 N 
ATOM     19  H   LIG d   1       2.038  79.126 109.531  0.00  0.00    -0.090 HD
ATOM     20  H   LIG d   1       0.951  79.481 108.376  0.00  0.00    -0.090 HD
ATOM     21  H   LIG d   1       0.551  78.448 109.583  0.00  0.00    -0.090 HD
ENDBRANCH   5  18
BRANCH   3  22
ATOM     22  C   LIG d   1      -2.059  80.676 112.699  0.00  0.00     0.382 C 
ATOM     23  O   LIG d   1      -3.023  81.373 112.303  0.00  0.00    -0.241 OA
ATOM     24  O   LIG d   1      -2.226  79.877 113.640  0.00  0.00    -0.241 OA
ENDBRANCH   3  22
TORSDOF 7
ENDMDL
MODEL 7
REMARK VINA RESULT:      -5.0      2.602      5.499
REMARK  7 active torsions:
REMARK  status: ('A' for Active; 'I' for Inactive)
REMARK    1  A    between atoms: C_2  and  C_3 
REMARK    2  A    between atoms: C_3  and  O_6 
REMARK    3  A    between atoms: C_3  and  C_4 
REMARK    4  A    between atoms: C_7  and  O_6 
REMARK    5  A    between atoms: C_9  and  C_10 
REMARK    6  A    between atoms: N_15  and  C_14 
REMARK    7  A    between atoms: N_20  and  C_19 
REMARK       I    between atoms: C_22  and  N_20 
ROOT
ATOM      1  C   LIG d   1       1.591  83.189 111.974  0.00  0.00     0.161 C 
ATOM      2  C   LIG d   1       2.214  83.565 113.175  0.00  0.00     0.016 C 
ATOM      3  C   LIG d   1       2.531  84.903 113.502  0.00  0.00     0.038 C 
ATOM      4  C   LIG d   1       2.105  85.980 112.710  0.00  0.00     0.028 C 
ATOM      5  C   LIG d   1       1.916  85.615 111.242  0.00  0.00    -0.047 C 
ATOM      6  C   LIG d   1       1.018  84.360 111.148  0.00  0.00     0.091 C 
ENDROOT
BRANCH   1   7
ATOM      7  O   LIG d   1       0.562  82.215 112.241  0.00  0.00    -0.368 OA
BRANCH   7   8
ATOM      8  C   LIG d   1       0.950  80.825 112.110  0.00  0.00     0.119 C 
BRANCH   8   9
ATOM      9  C   LIG d   1       2.261  80.786 111.300  0.00  0.00     0.028 C 
ATOM     10  C   LIG d   1       2.128  79.960 110.009  0.00  0.00     0.006 C 
ENDBRANCH   8   9
BRANCH   8  11
ATOM     11  C   LIG d   1      -0.066  80.040 111.276  0.00  0.00     0.028 C 
ATOM     12  C   LIG d   1      -1.148  79.366 112.135  0.00  0.00     0.006 C 
ENDBRANCH   8  11
ENDBRANCH   7   8
ENDBRANCH   1   7
BRANCH   6  13
ATOM     13  N   LIG d   1       0.852  83.885 109.750  0.00  0.00    -0.311 N 
ATOM     14  C   LIG d   1       1.875  83.603 108.945  0.00  0.00     0.210 C 
ATOM     15  C   LIG d   1       1.482  83.148 107.535  0.00  0.00     0.109 C 
ATOM     16  O   LIG d   1       3.069  83.655 109.274  0.00  0.00    -0.276 OA
ATOM     17  H   LIG d   1      -0.085  83.785 109.410  0.00  0.00     0.149 HD
ENDBRANCH   6  13
BRANCH   5  18
ATOM     18  N   LIG d   1       1.340  86.790 110.561  0.00  0.00     0.381 N 
ATOM     19  H   LIG d   1       0.501  86.527 110.083  0.00  0.00    -0.090 HD
ATOM     20  H   LIG d   1       1.998  87.127 109.880  0.00  0.00    -0.090 HD
ATOM     21  H   LIG d   1       1.142  87.506 111.225  0.00  0.00    -0.090 HD
ENDBRANCH   5  18
BRANCH   3  22
ATOM     22  C   LIG d   1       3.316  85.173 114.612  0.00  0.00     0.382 C 
ATOM     23  O   LIG d   1       3.841  84.230 115.252  0.00  0.00    -0.241 OA
ATOM     24  O   LIG d   1       3.470  86.343 115.009  0.00  0.00    -0.241 OA
ENDBRANCH   3  22
TORSDOF 7
ENDMDL
MODEL 8
REMARK VINA RESULT:      -5.0      2.598      5.037
REMARK  7 active torsions:
REMARK  status: ('A' for Active; 'I' for Inactive)
REMARK    1  A    between atoms: C_2  and  C_3 
REMARK    2  A    between atoms: C_3  and  O_6 
REMARK    3  A    between atoms: C_3  and  C_4 
REMARK    4  A    between atoms: C_7  and  O_6 
REMARK    5  A    between atoms: C_9  and  C_10 
REMARK    6  A    between atoms: N_15  and  C_14 
REMARK    7  A    between atoms: N_20  and  C_19 
REMARK       I    between atoms: C_22  and  N_20 
ROOT
ATOM      1  C   LIG d   1       1.261  83.212 111.261  0.00  0.00     0.161 C 
ATOM      2  C   LIG d   1       1.564  83.680 112.550  0.00  0.00     0.016 C 
ATOM      3  C   LIG d   1       1.076  84.901 113.069  0.00  0.00     0.038 C 
ATOM      4  C   LIG d   1       0.124  85.670 112.384  0.00  0.00     0.028 C 
ATOM      5  C   LIG d   1       0.177  85.492 110.870  0.00  0.00    -0.047 C 
ATOM      6  C   LIG d   1       0.135  83.982 110.541  0.00  0.00     0.091 C 
ENDROOT
BRANCH   1   7
ATOM      7  O   LIG d   1       0.952  81.805 111.312  0.00  0.00    -0.368 OA
BRANCH   7   8
ATOM      8  C   LIG d   1       1.545  80.984 110.276  0.00  0.00     0.119 C 
BRANCH   8   9
ATOM      9  C   LIG d   1       0.770  79.652 110.240  0.00  0.00     0.028 C 
ATOM     10  C   LIG d   1      -0.391  79.622 111.247  0.00  0.00     0.006 C 
ENDBRANCH   8   9
BRANCH   8  11
ATOM     11  C   LIG d   1       2.988  80.604 110.623  0.00  0.00     0.028 C 
ATOM     12  C   LIG d   1       3.629  79.679 109.577  0.00  0.00     0.006 C 
ENDBRANCH   8  11
ENDBRANCH   7   8
ENDBRANCH   1   7
BRANCH   6  13
ATOM     13  N   LIG d   1       0.268  83.716 109.084  0.00  0.00    -0.311 N 
ATOM     14  C   LIG d   1       1.416  83.833 108.419  0.00  0.00     0.210 C 
ATOM     15  C   LIG d   1       1.328  83.531 106.920  0.00  0.00     0.109 C 
ATOM     16  O   LIG d   1       2.505  84.127 108.934  0.00  0.00    -0.276 OA
ATOM     17  H   LIG d   1      -0.561  83.442 108.594  0.00  0.00     0.149 HD
ENDBRANCH   6  13
BRANCH   5  18
ATOM     18  N   LIG d   1      -0.955  86.241 110.293  0.00  0.00     0.381 N 
ATOM     19  H   LIG d   1      -1.289  86.913 110.955  0.00  0.00    -0.090 HD
ATOM     20  H   LIG d   1      -1.701  85.599 110.092  0.00  0.00    -0.090 HD
ATOM     21  H   LIG d   1      -0.669  86.702 109.457  0.00  0.00    -0.090 HD
ENDBRANCH   5  18
BRANCH   3  22
ATOM     22  C   LIG d   1       1.573  85.385 114.270  0.00  0.00     0.382 C 
ATOM     23  O   LIG d   1       1.335  86.567 114.616  0.00  0.00    -0.241 OA
ATOM     24  O   LIG d   1       2.292  84.668 114.991  0.00  0.00    -0.241 OA
ENDBRANCH   3  22
TORSDOF 7
ENDMDL
MODEL 9
REMARK VINA RESULT:      -4.8     11.434     13.602
REMARK  7 active torsions:
REMARK  status: ('A' for Active; 'I' for Inactive)
REMARK    1  A    between atoms: C_2  and  C_3 
REMARK    2  A    between atoms: C_3  and  O_6 
REMARK    3  A    between atoms: C_3  and  C_4 
REMARK    4  A    between atoms: C_7  and  O_6 
REMARK    5  A    between atoms: C_9  and  C_10 
REMARK    6  A    between atoms: N_15  and  C_14 
REMARK    7  A    between atoms: N_20  and  C_19 
REMARK       I    between atoms: C_22  and  N_20 
ROOT
ATOM      1  C   LIG d   1      10.837  75.873 114.913  0.00  0.00     0.161 C 
ATOM      2  C   LIG d   1       9.477  76.192 115.064  0.00  0.00     0.016 C 
ATOM      3  C   LIG d   1       8.969  77.507 114.953  0.00  0.00     0.038 C 
ATOM      4  C   LIG d   1       9.771  78.578 114.533  0.00  0.00     0.028 C 
ATOM      5  C   LIG d   1      11.248  78.395 114.862  0.00  0.00    -0.047 C 
ATOM      6  C   LIG d   1      11.709  77.012 114.345  0.00  0.00     0.091 C 
ENDROOT
BRANCH   1   7
ATOM      7  O   LIG d   1      10.975  74.687 114.107  0.00  0.00    -0.368 OA
BRANCH   7   8
ATOM      8  C   LIG d   1      11.606  73.550 114.747  0.00  0.00     0.119 C 
BRANCH   8   9
ATOM      9  C   LIG d   1      12.475  72.846 113.688  0.00  0.00     0.028 C 
ATOM     10  C   LIG d   1      13.978  72.945 114.002  0.00  0.00     0.006 C 
ENDBRANCH   8   9
BRANCH   8  11
ATOM     11  C   LIG d   1      10.570  72.508 115.179  0.00  0.00     0.028 C 
ATOM     12  C   LIG d   1      10.655  72.168 116.676  0.00  0.00     0.006 C 
ENDBRANCH   8  11
ENDBRANCH   7   8
ENDBRANCH   1   7
BRANCH   6  13
ATOM     13  N   LIG d   1      13.122  76.717 114.700  0.00  0.00    -0.311 N 
ATOM     14  C   LIG d   1      14.144  76.922 113.871  0.00  0.00     0.210 C 
ATOM     15  C   LIG d   1      15.516  76.531 114.427  0.00  0.00     0.109 C 
ATOM     16  O   LIG d   1      14.048  77.421 112.739  0.00  0.00    -0.276 OA
ATOM     17  H   LIG d   1      13.294  76.339 115.611  0.00  0.00     0.149 HD
ENDBRANCH   6  13
BRANCH   5  18
ATOM     18  N   LIG d   1      11.984  79.516 114.247  0.00  0.00     0.381 N 
ATOM     19  H   LIG d   1      11.529  79.797 113.402  0.00  0.00    -0.090 HD
ATOM     20  H   LIG d   1      12.913  79.208 114.018  0.00  0.00    -0.090 HD
ATOM     21  H   LIG d   1      12.028  80.283 114.881  0.00  0.00    -0.090 HD
ENDBRANCH   5  18
BRANCH   3  22
ATOM     22  C   LIG d   1       7.653  77.766 115.304  0.00  0.00     0.382 C 
ATOM     23  O   LIG d   1       6.716  77.256 114.644  0.00  0.00    -0.241 OA
ATOM     24  O   LIG d   1       7.391  78.540 116.245  0.00  0.00    -0.241 OA
ENDBRANCH   3  22
TORSDOF 7
ENDMDL
