MODEL 1
REMARK VINA RESULT:      -5.9      0.000      0.000
REMARK  7 active torsions:
REMARK  status: ('A' for Active; 'I' for Inactive)
REMARK    1  A    between atoms: C_2  and  C_3 
REMARK    2  A    between atoms: C_3  and  O_6 
REMARK    3  A    between atoms: C_3  and  C_4 
REMARK    4  A    between atoms: C_7  and  O_6 
REMARK    5  A    between atoms: C_9  and  C_10 
REMARK    6  A    between atoms: N_15  and  C_14 
REMARK    7  A    between atoms: N_20  and  C_19 
REMARK       I    between atoms: C_22  and  N_20 
ROOT
ATOM      1  C   LIG d   1       0.207  82.804 111.074  0.00  0.00     0.161 C 
ATOM      2  C   LIG d   1      -1.015  82.416 111.649  0.00  0.00     0.016 C 
ATOM      3  C   LIG d   1      -1.234  81.145 112.228  0.00  0.00     0.038 C 
ATOM      4  C   LIG d   1      -0.192  80.223 112.409  0.00  0.00     0.028 C 
ATOM      5  C   LIG d   1       0.934  80.375 111.392  0.00  0.00    -0.047 C 
ATOM      6  C   LIG d   1       1.387  81.852 111.361  0.00  0.00     0.091 C 
ENDROOT
BRANCH   1   7
ATOM      7  O   LIG d   1       0.535  84.147 111.483  0.00  0.00    -0.368 OA
BRANCH   7   8
ATOM      8  C   LIG d   1      -0.567  85.086 111.528  0.00  0.00     0.119 C 
BRANCH   8   9
ATOM      9  C   LIG d   1      -0.405  86.046 110.333  0.00  0.00     0.028 C 
ATOM     10  C   LIG d   1       1.057  86.168 109.872  0.00  0.00     0.006 C 
ENDBRANCH   8   9
BRANCH   8  11
ATOM     11  C   LIG d   1      -0.492  85.974 112.774  0.00  0.00     0.028 C 
ATOM     12  C   LIG d   1       0.731  85.667 113.652  0.00  0.00     0.006 C 
ENDBRANCH   8  11
ENDBRANCH   7   8
ENDBRANCH   1   7
BRANCH   6  13
ATOM     13  N   LIG d   1       2.429  82.105 110.332  0.00  0.00    -0.311 N 
ATOM     14  C   LIG d   1       3.539  82.803 110.567  0.00  0.00     0.210 C 
ATOM     15  C   LIG d   1       4.471  82.961 109.362  0.00  0.00     0.109 C 
ATOM     16  O   LIG d   1       3.855  83.278 111.668  0.00  0.00    -0.276 OA
ATOM     17  H   LIG d   1       2.268  81.728 109.418  0.00  0.00     0.149 HD
ENDBRANCH   6  13
BRANCH   5  18
ATOM     18  N   LIG d   1       2.013  79.447 111.780  0.00  0.00     0.381 N 
ATOM     19  H   LIG d   1       1.819  78.533 111.421  0.00  0.00    -0.090 HD
ATOM     20  H   LIG d   1       2.049  79.391 112.782  0.00  0.00    -0.090 HD
ATOM     21  H   LIG d   1       2.886  79.772 111.426  0.00  0.00    -0.090 HD
ENDBRANCH   5  18
BRANCH   3  22
ATOM     22  C   LIG d   1      -2.516  80.770 112.599  0.00  0.00     0.382 C 
ATOM     23  O   LIG d   1      -2.776  79.564 112.826  0.00  0.00    -0.241 OA
ATOM     24  O   LIG d   1      -3.428  81.617 112.665  0.00  0.00    -0.241 OA
ENDBRANCH   3  22
TORSDOF 7
ENDMDL
MODEL 2
REMARK VINA RESULT:      -5.5      2.909      4.437
REMARK  7 active torsions:
REMARK  status: ('A' for Active; 'I' for Inactive)
REMARK    1  A    between atoms: C_2  and  C_3 
REMARK    2  A    between atoms: C_3  and  O_6 
REMARK    3  A    between atoms: C_3  and  C_4 
REMARK    4  A    between atoms: C_7  and  O_6 
REMARK    5  A    between atoms: C_9  and  C_10 
REMARK    6  A    between atoms: N_15  and  C_14 
REMARK    7  A    between atoms: N_20  and  C_19 
REMARK       I    between atoms: C_22  and  N_20 
ROOT
ATOM      1  C   LIG d   1       2.917  84.171 110.560  0.00  0.00     0.161 C 
ATOM      2  C   LIG d   1       2.114  85.296 110.814  0.00  0.00     0.016 C 
ATOM      3  C   LIG d   1       0.701  85.251 110.850  0.00  0.00     0.038 C 
ATOM      4  C   LIG d   1      -0.004  84.040 110.782  0.00  0.00     0.028 C 
ATOM      5  C   LIG d   1       0.740  82.948 110.021  0.00  0.00    -0.047 C 
ATOM      6  C   LIG d   1       2.170  82.822 110.594  0.00  0.00     0.091 C 
ENDROOT
BRANCH   1   7
ATOM      7  O   LIG d   1       4.032  84.150 111.474  0.00  0.00    -0.368 OA
BRANCH   7   8
ATOM      8  C   LIG d   1       3.874  84.923 112.689  0.00  0.00     0.119 C 
BRANCH   8   9
ATOM      9  C   LIG d   1       4.952  86.024 112.680  0.00  0.00     0.028 C 
ATOM     10  C   LIG d   1       4.347  87.438 112.688  0.00  0.00     0.006 C 
ENDBRANCH   8   9
BRANCH   8  11
ATOM     11  C   LIG d   1       4.170  84.076 113.930  0.00  0.00     0.028 C 
ATOM     12  C   LIG d   1       3.380  84.535 115.166  0.00  0.00     0.006 C 
ENDBRANCH   8  11
ENDBRANCH   7   8
ENDBRANCH   1   7
BRANCH   6  13
ATOM     13  N   LIG d   1       2.994  81.833 109.850  0.00  0.00    -0.311 N 
ATOM     14  C   LIG d   1       3.087  80.550 110.195  0.00  0.00     0.210 C 
ATOM     15  C   LIG d   1       4.006  79.707 109.305  0.00  0.00     0.109 C 
ATOM     16  O   LIG d   1       2.470  80.023 111.133  0.00  0.00    -0.276 OA
ATOM     17  H   LIG d   1       3.503  82.168 109.056  0.00  0.00     0.149 HD
ENDBRANCH   6  13
BRANCH   5  18
ATOM     18  N   LIG d   1      -0.044  81.705 110.146  0.00  0.00     0.381 N 
ATOM     19  H   LIG d   1       0.205  81.072 109.412  0.00  0.00    -0.090 HD
ATOM     20  H   LIG d   1      -1.020  81.925 110.054  0.00  0.00    -0.090 HD
ATOM     21  H   LIG d   1       0.126  81.281 111.031  0.00  0.00    -0.090 HD
ENDBRANCH   5  18
BRANCH   3  22
ATOM     22  C   LIG d   1      -0.022  86.432 110.914  0.00  0.00     0.382 C 
ATOM     23  O   LIG d   1      -1.194  86.474 110.468  0.00  0.00    -0.241 OA
ATOM     24  O   LIG d   1       0.498  87.467 111.372  0.00  0.00    -0.241 OA
ENDBRANCH   3  22
TORSDOF 7
ENDMDL
MODEL 3
REMARK VINA RESULT:      -5.5      2.414      5.216
REMARK  7 active torsions:
REMARK  status: ('A' for Active; 'I' for Inactive)
REMARK    1  A    between atoms: C_2  and  C_3 
REMARK    2  A    between atoms: C_3  and  O_6 
REMARK    3  A    between atoms: C_3  and  C_4 
REMARK    4  A    between atoms: C_7  and  O_6 
REMARK    5  A    between atoms: C_9  and  C_10 
REMARK    6  A    between atoms: N_15  and  C_14 
REMARK    7  A    between atoms: N_20  and  C_19 
REMARK       I    between atoms: C_22  and  N_20 
ROOT
ATOM      1  C   LIG d   1       0.846  80.401 112.824  0.00  0.00     0.161 C 
ATOM      2  C   LIG d   1       1.852  80.627 111.870  0.00  0.00     0.016 C 
ATOM      3  C   LIG d   1       1.745  80.227 110.518  0.00  0.00     0.038 C 
ATOM      4  C   LIG d   1       0.555  79.705 109.991  0.00  0.00     0.028 C 
ATOM      5  C   LIG d   1      -0.309  78.997 111.029  0.00  0.00    -0.047 C 
ATOM      6  C   LIG d   1      -0.505  79.934 112.242  0.00  0.00     0.091 C 
ENDROOT
BRANCH   1   7
ATOM      7  O   LIG d   1       0.663  81.583 113.629  0.00  0.00    -0.368 OA
BRANCH   7   8
ATOM      8  C   LIG d   1       1.008  82.842 113.001  0.00  0.00     0.119 C 
BRANCH   8   9
ATOM      9  C   LIG d   1       1.687  83.721 114.069  0.00  0.00     0.028 C 
ATOM     10  C   LIG d   1       1.180  85.173 114.044  0.00  0.00     0.006 C 
ENDBRANCH   8   9
BRANCH   8  11
ATOM     11  C   LIG d   1      -0.243  83.615 112.576  0.00  0.00     0.028 C 
ATOM     12  C   LIG d   1      -0.419  83.671 111.050  0.00  0.00     0.006 C 
ENDBRANCH   8  11
ENDBRANCH   7   8
ENDBRANCH   1   7
BRANCH   6  13
ATOM     13  N   LIG d   1      -1.268  79.286 113.341  0.00  0.00    -0.311 N 
ATOM     14  C   LIG d   1      -2.519  79.616 113.658  0.00  0.00     0.210 C 
ATOM     15  C   LIG d   1      -3.113  78.839 114.837  0.00  0.00     0.109 C 
ATOM     16  O   LIG d   1      -3.204  80.455 113.054  0.00  0.00    -0.276 OA
ATOM     17  H   LIG d   1      -0.799  78.572 113.863  0.00  0.00     0.149 HD
ENDBRANCH   6  13
BRANCH   5  18
ATOM     18  N   LIG d   1      -1.577  78.625 110.375  0.00  0.00     0.381 N 
ATOM     19  H   LIG d   1      -1.500  78.757 109.386  0.00  0.00    -0.090 HD
ATOM     20  H   LIG d   1      -2.308  79.224 110.717  0.00  0.00    -0.090 HD
ATOM     21  H   LIG d   1      -1.798  77.674 110.574  0.00  0.00    -0.090 HD
ENDBRANCH   5  18
BRANCH   3  22
ATOM     22  C   LIG d   1       2.852  80.310 109.687  0.00  0.00     0.382 C 
ATOM     23  O   LIG d   1       3.431  79.264 109.306  0.00  0.00    -0.241 OA
ATOM     24  O   LIG d   1       3.307  81.420 109.351  0.00  0.00    -0.241 OA
ENDBRANCH   3  22
TORSDOF 7
ENDMDL
MODEL 4
REMARK VINA RESULT:      -5.5      3.070      5.883
REMARK  7 active torsions:
REMARK  status: ('A' for Active; 'I' for Inactive)
REMARK    1  A    between atoms: C_2  and  C_3 
REMARK    2  A    between atoms: C_3  and  O_6 
REMARK    3  A    between atoms: C_3  and  C_4 
REMARK    4  A    between atoms: C_7  and  O_6 
REMARK    5  A    between atoms: C_9  and  C_10 
REMARK    6  A    between atoms: N_15  and  C_14 
REMARK    7  A    between atoms: N_20  and  C_19 
REMARK       I    between atoms: C_22  and  N_20 
ROOT
ATOM      1  C   LIG d   1       1.934  83.177 112.143  0.00  0.00     0.161 C 
ATOM      2  C   LIG d   1       2.003  84.403 111.461  0.00  0.00     0.016 C 
ATOM      3  C   LIG d   1       1.993  85.658 112.114  0.00  0.00     0.038 C 
ATOM      4  C   LIG d   1       2.066  85.768 113.510  0.00  0.00     0.028 C 
ATOM      5  C   LIG d   1       1.490  84.561 114.244  0.00  0.00    -0.047 C 
ATOM      6  C   LIG d   1       2.127  83.274 113.671  0.00  0.00     0.091 C 
ENDROOT
BRANCH   1   7
ATOM      7  O   LIG d   1       2.882  82.250 111.577  0.00  0.00    -0.368 OA
BRANCH   7   8
ATOM      8  C   LIG d   1       2.381  81.387 110.527  0.00  0.00     0.119 C 
BRANCH   8   9
ATOM      9  C   LIG d   1       2.180  79.986 111.136  0.00  0.00     0.028 C 
ATOM     10  C   LIG d   1       0.715  79.717 111.520  0.00  0.00     0.006 C 
ENDBRANCH   8   9
BRANCH   8  11
ATOM     11  C   LIG d   1       3.418  81.201 109.415  0.00  0.00     0.028 C 
ATOM     12  C   LIG d   1       4.396  82.381 109.310  0.00  0.00     0.006 C 
ENDBRANCH   8  11
ENDBRANCH   7   8
ENDBRANCH   1   7
BRANCH   6  13
ATOM     13  N   LIG d   1       1.556  82.042 114.275  0.00  0.00    -0.311 N 
ATOM     14  C   LIG d   1       2.293  81.118 114.888  0.00  0.00     0.210 C 
ATOM     15  C   LIG d   1       1.509  79.916 115.423  0.00  0.00     0.109 C 
ATOM     16  O   LIG d   1       3.518  81.195 115.069  0.00  0.00    -0.276 OA
ATOM     17  H   LIG d   1       0.566  81.915 114.202  0.00  0.00     0.149 HD
ENDBRANCH   6  13
BRANCH   5  18
ATOM     18  N   LIG d   1       1.756  84.746 115.683  0.00  0.00     0.381 N 
ATOM     19  H   LIG d   1       0.959  84.459 116.215  0.00  0.00    -0.090 HD
ATOM     20  H   LIG d   1       1.919  85.722 115.861  0.00  0.00    -0.090 HD
ATOM     21  H   LIG d   1       2.554  84.214 115.953  0.00  0.00    -0.090 HD
ENDBRANCH   5  18
BRANCH   3  22
ATOM     22  C   LIG d   1       1.868  86.820 111.367  0.00  0.00     0.382 C 
ATOM     23  O   LIG d   1       1.480  86.761 110.175  0.00  0.00    -0.241 OA
ATOM     24  O   LIG d   1       2.181  87.921 111.856  0.00  0.00    -0.241 OA
ENDBRANCH   3  22
TORSDOF 7
ENDMDL
MODEL 5
REMARK VINA RESULT:      -5.5      3.396      5.084
REMARK  7 active torsions:
REMARK  status: ('A' for Active; 'I' for Inactive)
REMARK    1  A    between atoms: C_2  and  C_3 
REMARK    2  A    between atoms: C_3  and  O_6 
REMARK    3  A    between atoms: C_3  and  C_4 
REMARK    4  A    between atoms: C_7  and  O_6 
REMARK    5  A    between atoms: C_9  and  C_10 
REMARK    6  A    between atoms: N_15  and  C_14 
REMARK    7  A    between atoms: N_20  and  C_19 
REMARK       I    between atoms: C_22  and  N_20 
ROOT
ATOM      1  C   LIG d   1       1.969  86.919 112.638  0.00  0.00     0.161 C 
ATOM      2  C   LIG d   1       0.745  86.376 112.213  0.00  0.00     0.016 C 
ATOM      3  C   LIG d   1       0.645  85.316 111.283  0.00  0.00     0.038 C 
ATOM      4  C   LIG d   1       1.774  84.622 110.826  0.00  0.00     0.028 C 
ATOM      5  C   LIG d   1       3.047  85.461 110.838  0.00  0.00    -0.047 C 
ATOM      6  C   LIG d   1       3.214  86.101 112.235  0.00  0.00     0.091 C 
ENDROOT
BRANCH   1   7
ATOM      7  O   LIG d   1       1.945  87.123 114.065  0.00  0.00    -0.368 OA
BRANCH   7   8
ATOM      8  C   LIG d   1       1.082  86.239 114.820  0.00  0.00     0.119 C 
BRANCH   8   9
ATOM      9  C   LIG d   1       0.503  87.049 115.996  0.00  0.00     0.028 C 
ATOM     10  C   LIG d   1       0.934  86.490 117.363  0.00  0.00     0.006 C 
ENDBRANCH   8   9
BRANCH   8  11
ATOM     11  C   LIG d   1       1.878  85.100 115.465  0.00  0.00     0.028 C 
ATOM     12  C   LIG d   1       1.662  83.750 114.764  0.00  0.00     0.006 C 
ENDBRANCH   8  11
ENDBRANCH   7   8
ENDBRANCH   1   7
BRANCH   6  13
ATOM     13  N   LIG d   1       4.390  87.006 112.307  0.00  0.00    -0.311 N 
ATOM     14  C   LIG d   1       5.230  87.035 113.340  0.00  0.00     0.210 C 
ATOM     15  C   LIG d   1       6.366  88.057 113.222  0.00  0.00     0.109 C 
ATOM     16  O   LIG d   1       5.162  86.290 114.329  0.00  0.00    -0.276 OA
ATOM     17  H   LIG d   1       4.539  87.624 111.533  0.00  0.00     0.149 HD
ENDBRANCH   6  13
BRANCH   5  18
ATOM     18  N   LIG d   1       4.168  84.576 110.470  0.00  0.00     0.381 N 
ATOM     19  H   LIG d   1       4.054  84.258 109.528  0.00  0.00    -0.090 HD
ATOM     20  H   LIG d   1       4.162  83.774 111.076  0.00  0.00    -0.090 HD
ATOM     21  H   LIG d   1       5.032  85.064 110.561  0.00  0.00    -0.090 HD
ENDBRANCH   5  18
BRANCH   3  22
ATOM     22  C   LIG d   1      -0.595  84.968 110.770  0.00  0.00     0.382 C 
ATOM     23  O   LIG d   1      -0.975  83.772 110.806  0.00  0.00    -0.241 OA
ATOM     24  O   LIG d   1      -1.320  85.826 110.232  0.00  0.00    -0.241 OA
ENDBRANCH   3  22
TORSDOF 7
ENDMDL
MODEL 6
REMARK VINA RESULT:      -5.5      5.802      9.500
REMARK  7 active torsions:
REMARK  status: ('A' for Active; 'I' for Inactive)
REMARK    1  A    between atoms: C_2  and  C_3 
REMARK    2  A    between atoms: C_3  and  O_6 
REMARK    3  A    between atoms: C_3  and  C_4 
REMARK    4  A    between atoms: C_7  and  O_6 
REMARK    5  A    between atoms: C_9  and  C_10 
REMARK    6  A    between atoms: N_15  and  C_14 
REMARK    7  A    between atoms: N_20  and  C_19 
REMARK       I    between atoms: C_22  and  N_20 
ROOT
ATOM      1  C   LIG d   1      -3.627  76.695 114.806  0.00  0.00     0.161 C 
ATOM      2  C   LIG d   1      -3.611  77.724 113.850  0.00  0.00     0.016 C 
ATOM      3  C   LIG d   1      -2.456  78.477 113.536  0.00  0.00     0.038 C 
ATOM      4  C   LIG d   1      -1.194  78.149 114.053  0.00  0.00     0.028 C 
ATOM      5  C   LIG d   1      -1.257  77.442 115.402  0.00  0.00    -0.047 C 
ATOM      6  C   LIG d   1      -2.234  76.249 115.299  0.00  0.00     0.091 C 
ENDROOT
BRANCH   1   7
ATOM      7  O   LIG d   1      -4.363  75.566 114.297  0.00  0.00    -0.368 OA
BRANCH   7   8
ATOM      8  C   LIG d   1      -5.678  75.353 114.867  0.00  0.00     0.119 C 
BRANCH   8   9
ATOM      9  C   LIG d   1      -6.138  76.689 115.483  0.00  0.00     0.028 C 
ATOM     10  C   LIG d   1      -7.240  76.500 116.538  0.00  0.00     0.006 C 
ENDBRANCH   8   9
BRANCH   8  11
ATOM     11  C   LIG d   1      -5.626  74.365 116.036  0.00  0.00     0.028 C 
ATOM     12  C   LIG d   1      -6.451  73.094 115.779  0.00  0.00     0.006 C 
ENDBRANCH   8  11
ENDBRANCH   7   8
ENDBRANCH   1   7
BRANCH   6  13
ATOM     13  N   LIG d   1      -2.419  75.553 116.599  0.00  0.00    -0.311 N 
ATOM     14  C   LIG d   1      -1.897  74.358 116.872  0.00  0.00     0.210 C 
ATOM     15  C   LIG d   1      -2.226  73.812 118.265  0.00  0.00     0.109 C 
ATOM     16  O   LIG d   1      -1.167  73.714 116.104  0.00  0.00    -0.276 OA
ATOM     17  H   LIG d   1      -2.972  76.020 117.292  0.00  0.00     0.149 HD
ENDBRANCH   6  13
BRANCH   5  18
ATOM     18  N   LIG d   1       0.116  77.036 115.757  0.00  0.00     0.381 N 
ATOM     19  H   LIG d   1       0.742  77.804 115.620  0.00  0.00    -0.090 HD
ATOM     20  H   LIG d   1       0.400  76.286 115.152  0.00  0.00    -0.090 HD
ATOM     21  H   LIG d   1       0.149  76.737 116.707  0.00  0.00    -0.090 HD
ENDBRANCH   5  18
BRANCH   3  22
ATOM     22  C   LIG d   1      -2.566  79.598 112.727  0.00  0.00     0.382 C 
ATOM     23  O   LIG d   1      -1.975  79.633 111.621  0.00  0.00    -0.241 OA
ATOM     24  O   LIG d   1      -3.212  80.592 113.109  0.00  0.00    -0.241 OA
ENDBRANCH   3  22
TORSDOF 7
ENDMDL
MODEL 7
REMARK VINA RESULT:      -5.4      1.718      4.905
REMARK  7 active torsions:
REMARK  status: ('A' for Active; 'I' for Inactive)
REMARK    1  A    between atoms: C_2  and  C_3 
REMARK    2  A    between atoms: C_3  and  O_6 
REMARK    3  A    between atoms: C_3  and  C_4 
REMARK    4  A    between atoms: C_7  and  O_6 
REMARK    5  A    between atoms: C_9  and  C_10 
REMARK    6  A    between atoms: N_15  and  C_14 
REMARK    7  A    between atoms: N_20  and  C_19 
REMARK       I    between atoms: C_22  and  N_20 
ROOT
ATOM      1  C   LIG d   1       0.886  82.148 112.307  0.00  0.00     0.161 C 
ATOM      2  C   LIG d   1       1.957  82.756 111.631  0.00  0.00     0.016 C 
ATOM      3  C   LIG d   1       2.289  82.473 110.286  0.00  0.00     0.038 C 
ATOM      4  C   LIG d   1       1.474  81.670 109.475  0.00  0.00     0.028 C 
ATOM      5  C   LIG d   1       0.669  80.638 110.257  0.00  0.00    -0.047 C 
ATOM      6  C   LIG d   1      -0.081  81.353 111.405  0.00  0.00     0.091 C 
ENDROOT
BRANCH   1   7
ATOM      7  O   LIG d   1       0.163  83.137 113.067  0.00  0.00    -0.368 OA
BRANCH   7   8
ATOM      8  C   LIG d   1       0.598  84.509 112.903  0.00  0.00     0.119 C 
BRANCH   8   9
ATOM      9  C   LIG d   1       1.226  84.958 114.237  0.00  0.00     0.028 C 
ATOM     10  C   LIG d   1       2.465  85.845 114.033  0.00  0.00     0.006 C 
ENDBRANCH   8   9
BRANCH   8  11
ATOM     11  C   LIG d   1      -0.591  85.448 112.679  0.00  0.00     0.028 C 
ATOM     12  C   LIG d   1      -0.386  86.396 111.488  0.00  0.00     0.006 C 
ENDBRANCH   8  11
ENDBRANCH   7   8
ENDBRANCH   1   7
BRANCH   6  13
ATOM     13  N   LIG d   1      -0.827  80.404 112.272  0.00  0.00    -0.311 N 
ATOM     14  C   LIG d   1      -2.087  80.598 112.656  0.00  0.00     0.210 C 
ATOM     15  C   LIG d   1      -2.662  79.507 113.565  0.00  0.00     0.109 C 
ATOM     16  O   LIG d   1      -2.795  81.554 112.305  0.00  0.00    -0.276 OA
ATOM     17  H   LIG d   1      -0.339  79.585 112.578  0.00  0.00     0.149 HD
ENDBRANCH   6  13
BRANCH   5  18
ATOM     18  N   LIG d   1      -0.236  79.965 109.307  0.00  0.00     0.381 N 
ATOM     19  H   LIG d   1      -0.808  79.304 109.793  0.00  0.00    -0.090 HD
ATOM     20  H   LIG d   1       0.315  79.468 108.630  0.00  0.00    -0.090 HD
ATOM     21  H   LIG d   1      -0.811  80.638 108.848  0.00  0.00    -0.090 HD
ENDBRANCH   5  18
BRANCH   3  22
ATOM     22  C   LIG d   1       3.470  82.965 109.752  0.00  0.00     0.382 C 
ATOM     23  O   LIG d   1       4.360  82.172 109.362  0.00  0.00    -0.241 OA
ATOM     24  O   LIG d   1       3.675  84.193 109.697  0.00  0.00    -0.241 OA
ENDBRANCH   3  22
TORSDOF 7
ENDMDL
MODEL 8
REMARK VINA RESULT:      -5.2      2.670      4.824
REMARK  7 active torsions:
REMARK  status: ('A' for Active; 'I' for Inactive)
REMARK    1  A    between atoms: C_2  and  C_3 
REMARK    2  A    between atoms: C_3  and  O_6 
REMARK    3  A    between atoms: C_3  and  C_4 
REMARK    4  A    between atoms: C_7  and  O_6 
REMARK    5  A    between atoms: C_9  and  C_10 
REMARK    6  A    between atoms: N_15  and  C_14 
REMARK    7  A    between atoms: N_20  and  C_19 
REMARK       I    between atoms: C_22  and  N_20 
ROOT
ATOM      1  C   LIG d   1       0.503  84.214 112.927  0.00  0.00     0.161 C 
ATOM      2  C   LIG d   1       0.737  85.468 113.515  0.00  0.00     0.016 C 
ATOM      3  C   LIG d   1       1.563  85.655 114.647  0.00  0.00     0.038 C 
ATOM      4  C   LIG d   1       2.337  84.614 115.180  0.00  0.00     0.028 C 
ATOM      5  C   LIG d   1       1.745  83.231 114.933  0.00  0.00    -0.047 C 
ATOM      6  C   LIG d   1       1.427  83.083 113.427  0.00  0.00     0.091 C 
ENDROOT
BRANCH   1   7
ATOM      7  O   LIG d   1       0.579  84.325 111.492  0.00  0.00    -0.368 OA
BRANCH   7   8
ATOM      8  C   LIG d   1       1.395  85.407 110.979  0.00  0.00     0.119 C 
BRANCH   8   9
ATOM      9  C   LIG d   1       0.640  86.031 109.789  0.00  0.00     0.028 C 
ATOM     10  C   LIG d   1      -0.864  86.191 110.067  0.00  0.00     0.006 C 
ENDBRANCH   8   9
BRANCH   8  11
ATOM     11  C   LIG d   1       2.711  84.884 110.395  0.00  0.00     0.028 C 
ATOM     12  C   LIG d   1       3.926  85.214 111.275  0.00  0.00     0.006 C 
ENDBRANCH   8  11
ENDBRANCH   7   8
ENDBRANCH   1   7
BRANCH   6  13
ATOM     13  N   LIG d   1       0.766  81.790 113.112  0.00  0.00    -0.311 N 
ATOM     14  C   LIG d   1       1.269  80.898 112.260  0.00  0.00     0.210 C 
ATOM     15  C   LIG d   1       0.418  79.640 112.063  0.00  0.00     0.109 C 
ATOM     16  O   LIG d   1       2.356  81.015 111.674  0.00  0.00    -0.276 OA
ATOM     17  H   LIG d   1      -0.105  81.600 113.567  0.00  0.00     0.149 HD
ENDBRANCH   6  13
BRANCH   5  18
ATOM     18  N   LIG d   1       2.719  82.235 115.418  0.00  0.00     0.381 N 
ATOM     19  H   LIG d   1       3.407  82.062 114.713  0.00  0.00    -0.090 HD
ATOM     20  H   LIG d   1       2.237  81.374 115.607  0.00  0.00    -0.090 HD
ATOM     21  H   LIG d   1       3.160  82.566 116.248  0.00  0.00    -0.090 HD
ENDBRANCH   5  18
BRANCH   3  22
ATOM     22  C   LIG d   1       1.590  86.888 115.282  0.00  0.00     0.382 C 
ATOM     23  O   LIG d   1       0.534  87.371 115.757  0.00  0.00    -0.241 OA
ATOM     24  O   LIG d   1       2.648  87.542 115.348  0.00  0.00    -0.241 OA
ENDBRANCH   3  22
TORSDOF 7
ENDMDL
MODEL 9
REMARK VINA RESULT:      -5.2      8.615     11.958
REMARK  7 active torsions:
REMARK  status: ('A' for Active; 'I' for Inactive)
REMARK    1  A    between atoms: C_2  and  C_3 
REMARK    2  A    between atoms: C_3  and  O_6 
REMARK    3  A    between atoms: C_3  and  C_4 
REMARK    4  A    between atoms: C_7  and  O_6 
REMARK    5  A    between atoms: C_9  and  C_10 
REMARK    6  A    between atoms: N_15  and  C_14 
REMARK    7  A    between atoms: N_20  and  C_19 
REMARK       I    between atoms: C_22  and  N_20 
ROOT
ATOM      1  C   LIG d   1      -7.170  76.338 117.538  0.00  0.00     0.161 C 
ATOM      2  C   LIG d   1      -8.479  76.578 117.989  0.00  0.00     0.016 C 
ATOM      3  C   LIG d   1      -8.987  77.871 118.249  0.00  0.00     0.038 C 
ATOM      4  C   LIG d   1      -8.264  79.030 117.929  0.00  0.00     0.028 C 
ATOM      5  C   LIG d   1      -6.753  78.825 117.945  0.00  0.00    -0.047 C 
ATOM      6  C   LIG d   1      -6.404  77.595 117.077  0.00  0.00     0.091 C 
ENDROOT
BRANCH   1   7
ATOM      7  O   LIG d   1      -7.189  75.349 116.489  0.00  0.00    -0.368 OA
BRANCH   7   8
ATOM      8  C   LIG d   1      -6.612  74.061 116.816  0.00  0.00     0.119 C 
BRANCH   8   9
ATOM      9  C   LIG d   1      -5.985  73.494 115.528  0.00  0.00     0.028 C 
ATOM     10  C   LIG d   1      -5.363  74.589 114.646  0.00  0.00     0.006 C 
ENDBRANCH   8   9
BRANCH   8  11
ATOM     11  C   LIG d   1      -7.692  73.054 117.220  0.00  0.00     0.028 C 
ATOM     12  C   LIG d   1      -7.745  71.832 116.289  0.00  0.00     0.006 C 
ENDBRANCH   8  11
ENDBRANCH   7   8
ENDBRANCH   1   7
BRANCH   6  13
ATOM     13  N   LIG d   1      -4.953  77.274 117.107  0.00  0.00    -0.311 N 
ATOM     14  C   LIG d   1      -4.081  77.735 116.212  0.00  0.00     0.210 C 
ATOM     15  C   LIG d   1      -2.637  77.266 116.414  0.00  0.00     0.109 C 
ATOM     16  O   LIG d   1      -4.361  78.514 115.288  0.00  0.00    -0.276 OA
ATOM     17  H   LIG d   1      -4.634  76.673 117.842  0.00  0.00     0.149 HD
ENDBRANCH   6  13
BRANCH   5  18
ATOM     18  N   LIG d   1      -6.129  80.071 117.460  0.00  0.00     0.381 N 
ATOM     19  H   LIG d   1      -5.402  79.854 116.808  0.00  0.00    -0.090 HD
ATOM     20  H   LIG d   1      -5.719  80.554 118.240  0.00  0.00    -0.090 HD
ATOM     21  H   LIG d   1      -6.814  80.649 117.026  0.00  0.00    -0.090 HD
ENDBRANCH   5  18
BRANCH   3  22
ATOM     22  C   LIG d   1     -10.217  78.014 118.873  0.00  0.00     0.382 C 
ATOM     23  O   LIG d   1     -10.399  78.944 119.694  0.00  0.00    -0.241 OA
ATOM     24  O   LIG d   1     -11.133  77.197 118.658  0.00  0.00    -0.241 OA
ENDBRANCH   3  22
TORSDOF 7
ENDMDL
