MODEL 1
REMARK VINA RESULT:      -7.0      0.000      0.000
REMARK  7 active torsions:
REMARK  status: ('A' for Active; 'I' for Inactive)
REMARK    1  A    between atoms: C_2  and  C_3 
REMARK    2  A    between atoms: C_3  and  O_6 
REMARK    3  A    between atoms: C_3  and  C_4 
REMARK    4  A    between atoms: C_7  and  O_6 
REMARK    5  A    between atoms: C_9  and  C_10 
REMARK    6  A    between atoms: N_15  and  C_14 
REMARK    7  A    between atoms: N_20  and  C_19 
REMARK       I    between atoms: C_22  and  N_20 
ROOT
ATOM      1  C   LIG d   1       0.368  82.776 111.077  0.00  0.00     0.161 C 
ATOM      2  C   LIG d   1      -0.784  82.497 111.832  0.00  0.00     0.016 C 
ATOM      3  C   LIG d   1      -1.277  81.189 112.043  0.00  0.00     0.038 C 
ATOM      4  C   LIG d   1      -0.562  80.052 111.636  0.00  0.00     0.028 C 
ATOM      5  C   LIG d   1       0.343  80.303 110.435  0.00  0.00    -0.047 C 
ATOM      6  C   LIG d   1       1.223  81.542 110.720  0.00  0.00     0.091 C 
ENDROOT
BRANCH   1   7
ATOM      7  O   LIG d   1       1.170  83.762 111.757  0.00  0.00    -0.368 OA
BRANCH   7   8
ATOM      8  C   LIG d   1       1.267  85.058 111.117  0.00  0.00     0.119 C 
BRANCH   8   9
ATOM      9  C   LIG d   1       0.360  85.027 109.872  0.00  0.00     0.028 C 
ATOM     10  C   LIG d   1      -0.846  85.973 110.001  0.00  0.00     0.006 C 
ENDBRANCH   8   9
BRANCH   8  11
ATOM     11  C   LIG d   1       2.680  85.312 110.583  0.00  0.00     0.028 C 
ATOM     12  C   LIG d   1       3.475  86.301 111.450  0.00  0.00     0.006 C 
ENDBRANCH   8  11
ENDBRANCH   7   8
ENDBRANCH   1   7
BRANCH   6  13
ATOM     13  N   LIG d   1       2.079  81.908 109.562  0.00  0.00    -0.311 N 
ATOM     14  C   LIG d   1       3.410  81.900 109.602  0.00  0.00     0.210 C 
ATOM     15  C   LIG d   1       4.099  82.331 108.304  0.00  0.00     0.109 C 
ATOM     16  O   LIG d   1       4.086  81.546 110.580  0.00  0.00    -0.276 OA
ATOM     17  H   LIG d   1       1.613  82.178 108.717  0.00  0.00     0.149 HD
ENDBRANCH   6  13
BRANCH   5  18
ATOM     18  N   LIG d   1       1.130  79.077 110.206  0.00  0.00     0.381 N 
ATOM     19  H   LIG d   1       2.101  79.306 110.129  0.00  0.00    -0.090 HD
ATOM     20  H   LIG d   1       0.835  78.659 109.341  0.00  0.00    -0.090 HD
ATOM     21  H   LIG d   1       0.991  78.437 110.957  0.00  0.00    -0.090 HD
ENDBRANCH   5  18
BRANCH   3  22
ATOM     22  C   LIG d   1      -2.519  81.009 112.632  0.00  0.00     0.382 C 
ATOM     23  O   LIG d   1      -2.712  80.042 113.407  0.00  0.00    -0.241 OA
ATOM     24  O   LIG d   1      -3.463  81.777 112.363  0.00  0.00    -0.241 OA
ENDBRANCH   3  22
TORSDOF 7
ENDMDL
MODEL 2
REMARK VINA RESULT:      -6.8      0.553      1.753
REMARK  7 active torsions:
REMARK  status: ('A' for Active; 'I' for Inactive)
REMARK    1  A    between atoms: C_2  and  C_3 
REMARK    2  A    between atoms: C_3  and  O_6 
REMARK    3  A    between atoms: C_3  and  C_4 
REMARK    4  A    between atoms: C_7  and  O_6 
REMARK    5  A    between atoms: C_9  and  C_10 
REMARK    6  A    between atoms: N_15  and  C_14 
REMARK    7  A    between atoms: N_20  and  C_19 
REMARK       I    between atoms: C_22  and  N_20 
ROOT
ATOM      1  C   LIG d   1       0.302  82.866 111.232  0.00  0.00     0.161 C 
ATOM      2  C   LIG d   1      -0.868  82.541 111.939  0.00  0.00     0.016 C 
ATOM      3  C   LIG d   1      -1.332  81.216 112.107  0.00  0.00     0.038 C 
ATOM      4  C   LIG d   1      -0.573  80.107 111.705  0.00  0.00     0.028 C 
ATOM      5  C   LIG d   1       0.367  80.407 110.542  0.00  0.00    -0.047 C 
ATOM      6  C   LIG d   1       1.202  81.663 110.882  0.00  0.00     0.091 C 
ENDROOT
BRANCH   1   7
ATOM      7  O   LIG d   1       1.052  83.858 111.960  0.00  0.00    -0.368 OA
BRANCH   7   8
ATOM      8  C   LIG d   1       1.219  85.139 111.304  0.00  0.00     0.119 C 
BRANCH   8   9
ATOM      9  C   LIG d   1       2.303  85.917 112.076  0.00  0.00     0.028 C 
ATOM     10  C   LIG d   1       3.604  86.066 111.270  0.00  0.00     0.006 C 
ENDBRANCH   8   9
BRANCH   8  11
ATOM     11  C   LIG d   1      -0.048  85.992 111.415  0.00  0.00     0.028 C 
ATOM     12  C   LIG d   1      -0.852  86.038 110.106  0.00  0.00     0.006 C 
ENDBRANCH   8  11
ENDBRANCH   7   8
ENDBRANCH   1   7
BRANCH   6  13
ATOM     13  N   LIG d   1       2.088  82.075 109.763  0.00  0.00    -0.311 N 
ATOM     14  C   LIG d   1       3.391  82.308 109.907  0.00  0.00     0.210 C 
ATOM     15  C   LIG d   1       4.116  82.742 108.629  0.00  0.00     0.109 C 
ATOM     16  O   LIG d   1       4.022  82.167 110.966  0.00  0.00    -0.276 OA
ATOM     17  H   LIG d   1       1.665  82.183 108.862  0.00  0.00     0.149 HD
ENDBRANCH   6  13
BRANCH   5  18
ATOM     18  N   LIG d   1       1.195  79.206 110.317  0.00  0.00     0.381 N 
ATOM     19  H   LIG d   1       1.144  78.606 111.116  0.00  0.00    -0.090 HD
ATOM     20  H   LIG d   1       2.151  79.489 110.195  0.00  0.00    -0.090 HD
ATOM     21  H   LIG d   1       0.878  78.721 109.507  0.00  0.00    -0.090 HD
ENDBRANCH   5  18
BRANCH   3  22
ATOM     22  C   LIG d   1      -2.590  80.992 112.648  0.00  0.00     0.382 C 
ATOM     23  O   LIG d   1      -2.777  80.018 113.417  0.00  0.00    -0.241 OA
ATOM     24  O   LIG d   1      -3.549  81.725 112.341  0.00  0.00    -0.241 OA
ENDBRANCH   3  22
TORSDOF 7
ENDMDL
MODEL 3
REMARK VINA RESULT:      -6.5      1.930      5.158
REMARK  7 active torsions:
REMARK  status: ('A' for Active; 'I' for Inactive)
REMARK    1  A    between atoms: C_2  and  C_3 
REMARK    2  A    between atoms: C_3  and  O_6 
REMARK    3  A    between atoms: C_3  and  C_4 
REMARK    4  A    between atoms: C_7  and  O_6 
REMARK    5  A    between atoms: C_9  and  C_10 
REMARK    6  A    between atoms: N_15  and  C_14 
REMARK    7  A    between atoms: N_20  and  C_19 
REMARK       I    between atoms: C_22  and  N_20 
ROOT
ATOM      1  C   LIG d   1       1.573  80.979 111.733  0.00  0.00     0.161 C 
ATOM      2  C   LIG d   1       2.655  81.622 111.108  0.00  0.00     0.016 C 
ATOM      3  C   LIG d   1       2.805  81.706 109.705  0.00  0.00     0.038 C 
ATOM      4  C   LIG d   1       1.798  81.281 108.825  0.00  0.00     0.028 C 
ATOM      5  C   LIG d   1       0.921  80.173 109.398  0.00  0.00    -0.047 C 
ATOM      6  C   LIG d   1       0.410  80.607 110.790  0.00  0.00     0.091 C 
ENDROOT
BRANCH   1   7
ATOM      7  O   LIG d   1       1.093  81.783 112.828  0.00  0.00    -0.368 OA
BRANCH   7   8
ATOM      8  C   LIG d   1       1.197  83.218 112.658  0.00  0.00     0.119 C 
BRANCH   8   9
ATOM      9  C   LIG d   1       1.708  83.806 113.988  0.00  0.00     0.028 C 
ATOM     10  C   LIG d   1       1.501  85.328 114.075  0.00  0.00     0.006 C 
ENDBRANCH   8   9
BRANCH   8  11
ATOM     11  C   LIG d   1      -0.179  83.854 112.436  0.00  0.00     0.028 C 
ATOM     12  C   LIG d   1      -0.486  84.105 110.951  0.00  0.00     0.006 C 
ENDBRANCH   8  11
ENDBRANCH   7   8
ENDBRANCH   1   7
BRANCH   6  13
ATOM     13  N   LIG d   1      -0.388  79.545 111.458  0.00  0.00    -0.311 N 
ATOM     14  C   LIG d   1      -1.504  79.787 112.142  0.00  0.00     0.210 C 
ATOM     15  C   LIG d   1      -2.160  78.552 112.767  0.00  0.00     0.109 C 
ATOM     16  O   LIG d   1      -2.031  80.903 112.263  0.00  0.00    -0.276 OA
ATOM     17  H   LIG d   1      -0.049  78.605 111.383  0.00  0.00     0.149 HD
ENDBRANCH   6  13
BRANCH   5  18
ATOM     18  N   LIG d   1      -0.167  79.923 108.434  0.00  0.00     0.381 N 
ATOM     19  H   LIG d   1       0.181  80.007 107.500  0.00  0.00    -0.090 HD
ATOM     20  H   LIG d   1      -0.884  80.615 108.567  0.00  0.00    -0.090 HD
ATOM     21  H   LIG d   1      -0.545  79.012 108.575  0.00  0.00    -0.090 HD
ENDBRANCH   5  18
BRANCH   3  22
ATOM     22  C   LIG d   1       3.990  82.184 109.168  0.00  0.00     0.382 C 
ATOM     23  O   LIG d   1       4.045  82.504 107.956  0.00  0.00    -0.241 OA
ATOM     24  O   LIG d   1       5.017  82.258 109.869  0.00  0.00    -0.241 OA
ENDBRANCH   3  22
TORSDOF 7
ENDMDL
MODEL 4
REMARK VINA RESULT:      -6.5      2.457      4.423
REMARK  7 active torsions:
REMARK  status: ('A' for Active; 'I' for Inactive)
REMARK    1  A    between atoms: C_2  and  C_3 
REMARK    2  A    between atoms: C_3  and  O_6 
REMARK    3  A    between atoms: C_3  and  C_4 
REMARK    4  A    between atoms: C_7  and  O_6 
REMARK    5  A    between atoms: C_9  and  C_10 
REMARK    6  A    between atoms: N_15  and  C_14 
REMARK    7  A    between atoms: N_20  and  C_19 
REMARK       I    between atoms: C_22  and  N_20 
ROOT
ATOM      1  C   LIG d   1       1.963  83.129 112.285  0.00  0.00     0.161 C 
ATOM      2  C   LIG d   1       0.921  82.195 112.170  0.00  0.00     0.016 C 
ATOM      3  C   LIG d   1      -0.428  82.557 111.949  0.00  0.00     0.038 C 
ATOM      4  C   LIG d   1      -0.805  83.881 111.676  0.00  0.00     0.028 C 
ATOM      5  C   LIG d   1       0.137  84.916 112.282  0.00  0.00    -0.047 C 
ATOM      6  C   LIG d   1       1.589  84.570 111.880  0.00  0.00     0.091 C 
ENDROOT
BRANCH   1   7
ATOM      7  O   LIG d   1       3.108  82.678 111.534  0.00  0.00    -0.368 OA
BRANCH   7   8
ATOM      8  C   LIG d   1       2.825  82.010 110.280  0.00  0.00     0.119 C 
BRANCH   8   9
ATOM      9  C   LIG d   1       3.823  80.844 110.141  0.00  0.00     0.028 C 
ATOM     10  C   LIG d   1       3.120  79.491 109.939  0.00  0.00     0.006 C 
ENDBRANCH   8   9
BRANCH   8  11
ATOM     11  C   LIG d   1       3.104  82.927 109.086  0.00  0.00     0.028 C 
ATOM     12  C   LIG d   1       1.821  83.488 108.452  0.00  0.00     0.006 C 
ENDBRANCH   8  11
ENDBRANCH   7   8
ENDBRANCH   1   7
BRANCH   6  13
ATOM     13  N   LIG d   1       2.583  85.484 112.501  0.00  0.00    -0.311 N 
ATOM     14  C   LIG d   1       2.960  86.638 111.952  0.00  0.00     0.210 C 
ATOM     15  C   LIG d   1       4.011  87.419 112.748  0.00  0.00     0.109 C 
ATOM     16  O   LIG d   1       2.500  87.104 110.899  0.00  0.00    -0.276 OA
ATOM     17  H   LIG d   1       2.983  85.198 113.373  0.00  0.00     0.149 HD
ENDBRANCH   6  13
BRANCH   5  18
ATOM     18  N   LIG d   1      -0.294  86.244 111.805  0.00  0.00     0.381 N 
ATOM     19  H   LIG d   1      -0.622  86.175 110.863  0.00  0.00    -0.090 HD
ATOM     20  H   LIG d   1       0.495  86.866 111.820  0.00  0.00    -0.090 HD
ATOM     21  H   LIG d   1      -1.017  86.598 112.391  0.00  0.00    -0.090 HD
ENDBRANCH   5  18
BRANCH   3  22
ATOM     22  C   LIG d   1      -1.422  81.595 112.039  0.00  0.00     0.382 C 
ATOM     23  O   LIG d   1      -2.578  81.920 112.401  0.00  0.00    -0.241 OA
ATOM     24  O   LIG d   1      -1.166  80.399 111.806  0.00  0.00    -0.241 OA
ENDBRANCH   3  22
TORSDOF 7
ENDMDL
MODEL 5
REMARK VINA RESULT:      -6.5      2.378      3.706
REMARK  7 active torsions:
REMARK  status: ('A' for Active; 'I' for Inactive)
REMARK    1  A    between atoms: C_2  and  C_3 
REMARK    2  A    between atoms: C_3  and  O_6 
REMARK    3  A    between atoms: C_3  and  C_4 
REMARK    4  A    between atoms: C_7  and  O_6 
REMARK    5  A    between atoms: C_9  and  C_10 
REMARK    6  A    between atoms: N_15  and  C_14 
REMARK    7  A    between atoms: N_20  and  C_19 
REMARK       I    between atoms: C_22  and  N_20 
ROOT
ATOM      1  C   LIG d   1       0.916  83.708 109.769  0.00  0.00     0.161 C 
ATOM      2  C   LIG d   1       0.485  84.820 110.511  0.00  0.00     0.016 C 
ATOM      3  C   LIG d   1      -0.334  84.720 111.659  0.00  0.00     0.038 C 
ATOM      4  C   LIG d   1      -0.655  83.481 112.234  0.00  0.00     0.028 C 
ATOM      5  C   LIG d   1      -0.662  82.331 111.233  0.00  0.00    -0.047 C 
ATOM      6  C   LIG d   1       0.668  82.344 110.446  0.00  0.00     0.091 C 
ENDROOT
BRANCH   1   7
ATOM      7  O   LIG d   1       2.310  83.855 109.434  0.00  0.00    -0.368 OA
BRANCH   7   8
ATOM      8  C   LIG d   1       3.257  83.386 110.425  0.00  0.00     0.119 C 
BRANCH   8   9
ATOM      9  C   LIG d   1       3.855  84.625 111.119  0.00  0.00     0.028 C 
ATOM     10  C   LIG d   1       3.620  84.617 112.639  0.00  0.00     0.006 C 
ENDBRANCH   8   9
BRANCH   8  11
ATOM     11  C   LIG d   1       4.445  82.676 109.769  0.00  0.00     0.028 C 
ATOM     12  C   LIG d   1       4.228  82.413 108.270  0.00  0.00     0.006 C 
ENDBRANCH   8  11
ENDBRANCH   7   8
ENDBRANCH   1   7
BRANCH   6  13
ATOM     13  N   LIG d   1       0.710  81.302 109.386  0.00  0.00    -0.311 N 
ATOM     14  C   LIG d   1       1.506  80.236 109.437  0.00  0.00     0.210 C 
ATOM     15  C   LIG d   1       1.406  79.296 108.232  0.00  0.00     0.109 C 
ATOM     16  O   LIG d   1       2.262  79.962 110.381  0.00  0.00    -0.276 OA
ATOM     17  H   LIG d   1       0.105  81.429 108.598  0.00  0.00     0.149 HD
ENDBRANCH   6  13
BRANCH   5  18
ATOM     18  N   LIG d   1      -0.875  81.083 111.989  0.00  0.00     0.381 N 
ATOM     19  H   LIG d   1      -0.692  81.240 112.960  0.00  0.00    -0.090 HD
ATOM     20  H   LIG d   1      -0.231  80.387 111.655  0.00  0.00    -0.090 HD
ATOM     21  H   LIG d   1      -1.811  80.765 111.867  0.00  0.00    -0.090 HD
ENDBRANCH   5  18
BRANCH   3  22
ATOM     22  C   LIG d   1      -0.875  85.867 112.220  0.00  0.00     0.382 C 
ATOM     23  O   LIG d   1      -0.652  86.140 113.424  0.00  0.00    -0.241 OA
ATOM     24  O   LIG d   1      -1.618  86.608 111.550  0.00  0.00    -0.241 OA
ENDBRANCH   3  22
TORSDOF 7
ENDMDL
MODEL 6
REMARK VINA RESULT:      -6.4      2.366      5.576
REMARK  7 active torsions:
REMARK  status: ('A' for Active; 'I' for Inactive)
REMARK    1  A    between atoms: C_2  and  C_3 
REMARK    2  A    between atoms: C_3  and  O_6 
REMARK    3  A    between atoms: C_3  and  C_4 
REMARK    4  A    between atoms: C_7  and  O_6 
REMARK    5  A    between atoms: C_9  and  C_10 
REMARK    6  A    between atoms: N_15  and  C_14 
REMARK    7  A    between atoms: N_20  and  C_19 
REMARK       I    between atoms: C_22  and  N_20 
ROOT
ATOM      1  C   LIG d   1       0.983  83.493 110.116  0.00  0.00     0.161 C 
ATOM      2  C   LIG d   1       1.715  84.692 110.127  0.00  0.00     0.016 C 
ATOM      3  C   LIG d   1       2.283  85.247 111.297  0.00  0.00     0.038 C 
ATOM      4  C   LIG d   1       2.286  84.557 112.518  0.00  0.00     0.028 C 
ATOM      5  C   LIG d   1       1.123  83.582 112.666  0.00  0.00    -0.047 C 
ATOM      6  C   LIG d   1       1.071  82.671 111.419  0.00  0.00     0.091 C 
ENDROOT
BRANCH   1   7
ATOM      7  O   LIG d   1       1.379  82.689 108.988  0.00  0.00    -0.368 OA
BRANCH   7   8
ATOM      8  C   LIG d   1       2.264  81.579 109.276  0.00  0.00     0.119 C 
BRANCH   8   9
ATOM      9  C   LIG d   1       3.585  81.832 108.523  0.00  0.00     0.028 C 
ATOM     10  C   LIG d   1       4.691  82.373 109.445  0.00  0.00     0.006 C 
ENDBRANCH   8   9
BRANCH   8  11
ATOM     11  C   LIG d   1       1.717  80.267 108.705  0.00  0.00     0.028 C 
ATOM     12  C   LIG d   1       2.297  79.026 109.402  0.00  0.00     0.006 C 
ENDBRANCH   8  11
ENDBRANCH   7   8
ENDBRANCH   1   7
BRANCH   6  13
ATOM     13  N   LIG d   1      -0.090  81.742 111.443  0.00  0.00    -0.311 N 
ATOM     14  C   LIG d   1      -0.070  80.560 112.056  0.00  0.00     0.210 C 
ATOM     15  C   LIG d   1      -1.366  79.751 111.943  0.00  0.00     0.109 C 
ATOM     16  O   LIG d   1       0.887  80.118 112.710  0.00  0.00    -0.276 OA
ATOM     17  H   LIG d   1      -0.919  82.035 110.964  0.00  0.00     0.149 HD
ENDBRANCH   6  13
BRANCH   5  18
ATOM     18  N   LIG d   1       1.326  82.834 113.921  0.00  0.00     0.381 N 
ATOM     19  H   LIG d   1       0.442  82.655 114.355  0.00  0.00    -0.090 HD
ATOM     20  H   LIG d   1       1.878  83.393 114.547  0.00  0.00    -0.090 HD
ATOM     21  H   LIG d   1       1.792  81.973 113.733  0.00  0.00    -0.090 HD
ENDBRANCH   5  18
BRANCH   3  22
ATOM     22  C   LIG d   1       2.822  86.524 111.260  0.00  0.00     0.382 C 
ATOM     23  O   LIG d   1       2.064  87.524 111.233  0.00  0.00    -0.241 OA
ATOM     24  O   LIG d   1       4.056  86.688 111.208  0.00  0.00    -0.241 OA
ENDBRANCH   3  22
TORSDOF 7
ENDMDL
MODEL 7
REMARK VINA RESULT:      -6.3      2.519      3.788
REMARK  7 active torsions:
REMARK  status: ('A' for Active; 'I' for Inactive)
REMARK    1  A    between atoms: C_2  and  C_3 
REMARK    2  A    between atoms: C_3  and  O_6 
REMARK    3  A    between atoms: C_3  and  C_4 
REMARK    4  A    between atoms: C_7  and  O_6 
REMARK    5  A    between atoms: C_9  and  C_10 
REMARK    6  A    between atoms: N_15  and  C_14 
REMARK    7  A    between atoms: N_20  and  C_19 
REMARK       I    between atoms: C_22  and  N_20 
ROOT
ATOM      1  C   LIG d   1       2.216  84.769 110.529  0.00  0.00     0.161 C 
ATOM      2  C   LIG d   1       1.199  85.580 111.061  0.00  0.00     0.016 C 
ATOM      3  C   LIG d   1      -0.057  85.082 111.476  0.00  0.00     0.038 C 
ATOM      4  C   LIG d   1      -0.329  83.707 111.528  0.00  0.00     0.028 C 
ATOM      5  C   LIG d   1       0.483  82.891 110.529  0.00  0.00    -0.047 C 
ATOM      6  C   LIG d   1       1.978  83.252 110.682  0.00  0.00     0.091 C 
ENDROOT
BRANCH   1   7
ATOM      7  O   LIG d   1       3.485  85.138 111.102  0.00  0.00    -0.368 OA
BRANCH   7   8
ATOM      8  C   LIG d   1       3.437  85.773 112.404  0.00  0.00     0.119 C 
BRANCH   8   9
ATOM      9  C   LIG d   1       4.448  86.935 112.389  0.00  0.00     0.028 C 
ATOM     10  C   LIG d   1       4.557  87.636 113.754  0.00  0.00     0.006 C 
ENDBRANCH   8   9
BRANCH   8  11
ATOM     11  C   LIG d   1       3.923  84.826 113.504  0.00  0.00     0.028 C 
ATOM     12  C   LIG d   1       2.773  84.087 114.207  0.00  0.00     0.006 C 
ENDBRANCH   8  11
ENDBRANCH   7   8
ENDBRANCH   1   7
BRANCH   6  13
ATOM     13  N   LIG d   1       2.834  82.560 109.684  0.00  0.00    -0.311 N 
ATOM     14  C   LIG d   1       3.479  81.422 109.934  0.00  0.00     0.210 C 
ATOM     15  C   LIG d   1       4.323  80.888 108.773  0.00  0.00     0.109 C 
ATOM     16  O   LIG d   1       3.407  80.787 110.997  0.00  0.00    -0.276 OA
ATOM     17  H   LIG d   1       2.924  82.990 108.784  0.00  0.00     0.149 HD
ENDBRANCH   6  13
BRANCH   5  18
ATOM     18  N   LIG d   1       0.204  81.465 110.786  0.00  0.00     0.381 N 
ATOM     19  H   LIG d   1       1.043  81.001 111.068  0.00  0.00    -0.090 HD
ATOM     20  H   LIG d   1      -0.122  81.039 109.936  0.00  0.00    -0.090 HD
ATOM     21  H   LIG d   1      -0.489  81.376 111.496  0.00  0.00    -0.090 HD
ENDBRANCH   5  18
BRANCH   3  22
ATOM     22  C   LIG d   1      -1.072  85.967 111.807  0.00  0.00     0.382 C 
ATOM     23  O   LIG d   1      -1.437  86.840 110.982  0.00  0.00    -0.241 OA
ATOM     24  O   LIG d   1      -1.596  85.933 112.936  0.00  0.00    -0.241 OA
ENDBRANCH   3  22
TORSDOF 7
ENDMDL
MODEL 8
REMARK VINA RESULT:      -6.1      2.104      4.272
REMARK  7 active torsions:
REMARK  status: ('A' for Active; 'I' for Inactive)
REMARK    1  A    between atoms: C_2  and  C_3 
REMARK    2  A    between atoms: C_3  and  O_6 
REMARK    3  A    between atoms: C_3  and  C_4 
REMARK    4  A    between atoms: C_7  and  O_6 
REMARK    5  A    between atoms: C_9  and  C_10 
REMARK    6  A    between atoms: N_15  and  C_14 
REMARK    7  A    between atoms: N_20  and  C_19 
REMARK       I    between atoms: C_22  and  N_20 
ROOT
ATOM      1  C   LIG d   1       1.383  82.531 111.318  0.00  0.00     0.161 C 
ATOM      2  C   LIG d   1       0.233  81.747 111.503  0.00  0.00     0.016 C 
ATOM      3  C   LIG d   1      -0.999  82.269 111.960  0.00  0.00     0.038 C 
ATOM      4  C   LIG d   1      -1.208  83.647 112.118  0.00  0.00     0.028 C 
ATOM      5  C   LIG d   1       0.070  84.421 112.428  0.00  0.00    -0.047 C 
ATOM      6  C   LIG d   1       1.145  84.055 111.379  0.00  0.00     0.091 C 
ENDROOT
BRANCH   1   7
ATOM      7  O   LIG d   1       2.023  82.174 110.076  0.00  0.00    -0.368 OA
BRANCH   7   8
ATOM      8  C   LIG d   1       3.287  81.474 110.189  0.00  0.00     0.119 C 
BRANCH   8   9
ATOM      9  C   LIG d   1       3.979  81.545 108.814  0.00  0.00     0.028 C 
ATOM     10  C   LIG d   1       4.631  82.913 108.555  0.00  0.00     0.006 C 
ENDBRANCH   8   9
BRANCH   8  11
ATOM     11  C   LIG d   1       3.075  79.982 110.460  0.00  0.00     0.028 C 
ATOM     12  C   LIG d   1       2.195  79.302 109.399  0.00  0.00     0.006 C 
ENDBRANCH   8  11
ENDBRANCH   7   8
ENDBRANCH   1   7
BRANCH   6  13
ATOM     13  N   LIG d   1       2.452  84.704 111.657  0.00  0.00    -0.311 N 
ATOM     14  C   LIG d   1       2.787  85.906 111.192  0.00  0.00     0.210 C 
ATOM     15  C   LIG d   1       4.191  86.381 111.580  0.00  0.00     0.109 C 
ATOM     16  O   LIG d   1       2.044  86.638 110.521  0.00  0.00    -0.276 OA
ATOM     17  H   LIG d   1       3.105  84.194 112.220  0.00  0.00     0.149 HD
ENDBRANCH   6  13
BRANCH   5  18
ATOM     18  N   LIG d   1      -0.269  85.857 112.431  0.00  0.00     0.381 N 
ATOM     19  H   LIG d   1       0.144  86.304 111.637  0.00  0.00    -0.090 HD
ATOM     20  H   LIG d   1       0.108  86.278 113.261  0.00  0.00    -0.090 HD
ATOM     21  H   LIG d   1      -1.258  85.974 112.410  0.00  0.00    -0.090 HD
ENDBRANCH   5  18
BRANCH   3  22
ATOM     22  C   LIG d   1      -2.028  81.404 112.301  0.00  0.00     0.382 C 
ATOM     23  O   LIG d   1      -1.886  80.168 112.143  0.00  0.00    -0.241 OA
ATOM     24  O   LIG d   1      -3.112  81.848 112.724  0.00  0.00    -0.241 OA
ENDBRANCH   3  22
TORSDOF 7
ENDMDL
MODEL 9
REMARK VINA RESULT:      -5.9      2.359      5.188
REMARK  7 active torsions:
REMARK  status: ('A' for Active; 'I' for Inactive)
REMARK    1  A    between atoms: C_2  and  C_3 
REMARK    2  A    between atoms: C_3  and  O_6 
REMARK    3  A    between atoms: C_3  and  C_4 
REMARK    4  A    between atoms: C_7  and  O_6 
REMARK    5  A    between atoms: C_9  and  C_10 
REMARK    6  A    between atoms: N_15  and  C_14 
REMARK    7  A    between atoms: N_20  and  C_19 
REMARK       I    between atoms: C_22  and  N_20 
ROOT
ATOM      1  C   LIG d   1       2.792  82.594 110.975  0.00  0.00     0.161 C 
ATOM      2  C   LIG d   1       2.966  83.901 111.458  0.00  0.00     0.016 C 
ATOM      3  C   LIG d   1       2.647  85.057 110.710  0.00  0.00     0.038 C 
ATOM      4  C   LIG d   1       1.985  84.981 109.475  0.00  0.00     0.028 C 
ATOM      5  C   LIG d   1       2.247  83.679 108.726  0.00  0.00    -0.047 C 
ATOM      6  C   LIG d   1       1.968  82.490 109.674  0.00  0.00     0.091 C 
ENDROOT
BRANCH   1   7
ATOM      7  O   LIG d   1       2.212  81.766 112.003  0.00  0.00    -0.368 OA
BRANCH   7   8
ATOM      8  C   LIG d   1       0.773  81.605 111.955  0.00  0.00     0.119 C 
BRANCH   8   9
ATOM      9  C   LIG d   1       0.152  82.723 112.814  0.00  0.00     0.028 C 
ATOM     10  C   LIG d   1      -0.807  83.616 112.010  0.00  0.00     0.006 C 
ENDBRANCH   8   9
BRANCH   8  11
ATOM     11  C   LIG d   1       0.337  80.295 112.617  0.00  0.00     0.028 C 
ATOM     12  C   LIG d   1      -1.104  79.898 112.262  0.00  0.00     0.006 C 
ENDBRANCH   8  11
ENDBRANCH   7   8
ENDBRANCH   1   7
BRANCH   6  13
ATOM     13  N   LIG d   1       2.280  81.179 109.047  0.00  0.00    -0.311 N 
ATOM     14  C   LIG d   1       1.354  80.272 108.746  0.00  0.00     0.210 C 
ATOM     15  C   LIG d   1       1.893  78.980 108.123  0.00  0.00     0.109 C 
ATOM     16  O   LIG d   1       0.134  80.426 108.905  0.00  0.00    -0.276 OA
ATOM     17  H   LIG d   1       3.243  80.984 108.855  0.00  0.00     0.149 HD
ENDBRANCH   6  13
BRANCH   5  18
ATOM     18  N   LIG d   1       1.390  83.675 107.526  0.00  0.00     0.381 N 
ATOM     19  H   LIG d   1       0.505  84.088 107.740  0.00  0.00    -0.090 HD
ATOM     20  H   LIG d   1       1.234  82.724 107.241  0.00  0.00    -0.090 HD
ATOM     21  H   LIG d   1       1.832  84.181 106.790  0.00  0.00    -0.090 HD
ENDBRANCH   5  18
BRANCH   3  22
ATOM     22  C   LIG d   1       3.026  86.306 111.178  0.00  0.00     0.382 C 
ATOM     23  O   LIG d   1       4.168  86.470 111.670  0.00  0.00    -0.241 OA
ATOM     24  O   LIG d   1       2.225  87.260 111.154  0.00  0.00    -0.241 OA
ENDBRANCH   3  22
TORSDOF 7
ENDMDL
