MODEL 1
REMARK VINA RESULT:      -6.0      0.000      0.000
REMARK  7 active torsions:
REMARK  status: ('A' for Active; 'I' for Inactive)
REMARK    1  A    between atoms: C_2  and  C_3 
REMARK    2  A    between atoms: C_3  and  O_6 
REMARK    3  A    between atoms: C_3  and  C_4 
REMARK    4  A    between atoms: C_7  and  O_6 
REMARK    5  A    between atoms: C_9  and  C_10 
REMARK    6  A    between atoms: N_15  and  C_14 
REMARK    7  A    between atoms: N_20  and  C_19 
REMARK       I    between atoms: C_22  and  N_20 
ROOT
ATOM      1  C   LIG d   1       0.454  82.754 111.911  0.00  0.00     0.161 C 
ATOM      2  C   LIG d   1      -0.762  82.428 112.534  0.00  0.00     0.016 C 
ATOM      3  C   LIG d   1      -1.372  81.156 112.434  0.00  0.00     0.038 C 
ATOM      4  C   LIG d   1      -0.725  80.070 111.824  0.00  0.00     0.028 C 
ATOM      5  C   LIG d   1       0.272  80.485 110.748  0.00  0.00    -0.047 C 
ATOM      6  C   LIG d   1       1.228  81.550 111.334  0.00  0.00     0.091 C 
ENDROOT
BRANCH   1   7
ATOM      7  O   LIG d   1       1.287  83.494 112.824  0.00  0.00    -0.368 OA
BRANCH   7   8
ATOM      8  C   LIG d   1       1.445  84.907 112.541  0.00  0.00     0.119 C 
BRANCH   8   9
ATOM      9  C   LIG d   1       0.624  85.219 111.275  0.00  0.00     0.028 C 
ATOM     10  C   LIG d   1      -0.522  86.208 111.547  0.00  0.00     0.006 C 
ENDBRANCH   8   9
BRANCH   8  11
ATOM     11  C   LIG d   1       2.894  85.244 112.178  0.00  0.00     0.028 C 
ATOM     12  C   LIG d   1       3.042  85.765 110.739  0.00  0.00     0.006 C 
ENDBRANCH   8  11
ENDBRANCH   7   8
ENDBRANCH   1   7
BRANCH   6  13
ATOM     13  N   LIG d   1       2.183  82.072 110.322  0.00  0.00    -0.311 N 
ATOM     14  C   LIG d   1       3.506  81.994 110.454  0.00  0.00     0.210 C 
ATOM     15  C   LIG d   1       4.308  82.613 109.305  0.00  0.00     0.109 C 
ATOM     16  O   LIG d   1       4.092  81.443 111.399  0.00  0.00    -0.276 OA
ATOM     17  H   LIG d   1       1.794  82.507 109.509  0.00  0.00     0.149 HD
ENDBRANCH   6  13
BRANCH   5  18
ATOM     18  N   LIG d   1       0.971  79.268 110.295  0.00  0.00     0.381 N 
ATOM     19  H   LIG d   1       1.950  79.349 110.485  0.00  0.00    -0.090 HD
ATOM     20  H   LIG d   1       0.849  79.174 109.302  0.00  0.00    -0.090 HD
ATOM     21  H   LIG d   1       0.600  78.469 110.760  0.00  0.00    -0.090 HD
ENDBRANCH   5  18
BRANCH   3  22
ATOM     22  C   LIG d   1      -2.659  80.971 112.913  0.00  0.00     0.382 C 
ATOM     23  O   LIG d   1      -3.032  79.832 113.286  0.00  0.00    -0.241 OA
ATOM     24  O   LIG d   1      -3.467  81.919 112.937  0.00  0.00    -0.241 OA
ENDBRANCH   3  22
TORSDOF 7
ENDMDL
MODEL 2
REMARK VINA RESULT:      -6.0      1.671      4.891
REMARK  7 active torsions:
REMARK  status: ('A' for Active; 'I' for Inactive)
REMARK    1  A    between atoms: C_2  and  C_3 
REMARK    2  A    between atoms: C_3  and  O_6 
REMARK    3  A    between atoms: C_3  and  C_4 
REMARK    4  A    between atoms: C_7  and  O_6 
REMARK    5  A    between atoms: C_9  and  C_10 
REMARK    6  A    between atoms: N_15  and  C_14 
REMARK    7  A    between atoms: N_20  and  C_19 
REMARK       I    between atoms: C_22  and  N_20 
ROOT
ATOM      1  C   LIG d   1       1.354  83.270 112.253  0.00  0.00     0.161 C 
ATOM      2  C   LIG d   1       2.470  83.026 111.436  0.00  0.00     0.016 C 
ATOM      3  C   LIG d   1       2.664  81.821 110.722  0.00  0.00     0.038 C 
ATOM      4  C   LIG d   1       1.673  80.830 110.658  0.00  0.00     0.028 C 
ATOM      5  C   LIG d   1       0.749  80.817 111.871  0.00  0.00    -0.047 C 
ATOM      6  C   LIG d   1       0.209  82.246 112.106  0.00  0.00     0.091 C 
ENDROOT
BRANCH   1   7
ATOM      7  O   LIG d   1       0.863  84.606 112.023  0.00  0.00    -0.368 OA
BRANCH   7   8
ATOM      8  C   LIG d   1       1.381  85.283 110.851  0.00  0.00     0.119 C 
BRANCH   8   9
ATOM      9  C   LIG d   1       1.854  86.681 111.295  0.00  0.00     0.028 C 
ATOM     10  C   LIG d   1       3.361  86.722 111.598  0.00  0.00     0.006 C 
ENDBRANCH   8   9
BRANCH   8  11
ATOM     11  C   LIG d   1       0.277  85.536 109.820  0.00  0.00     0.028 C 
ATOM     12  C   LIG d   1      -0.804  86.501 110.331  0.00  0.00     0.006 C 
ENDBRANCH   8  11
ENDBRANCH   7   8
ENDBRANCH   1   7
BRANCH   6  13
ATOM     13  N   LIG d   1      -0.637  82.339 113.325  0.00  0.00    -0.311 N 
ATOM     14  C   LIG d   1      -1.960  82.192 113.312  0.00  0.00     0.210 C 
ATOM     15  C   LIG d   1      -2.642  82.346 114.675  0.00  0.00     0.109 C 
ATOM     16  O   LIG d   1      -2.631  81.916 112.306  0.00  0.00    -0.276 OA
ATOM     17  H   LIG d   1      -0.170  82.530 114.190  0.00  0.00     0.149 HD
ENDBRANCH   6  13
BRANCH   5  18
ATOM     18  N   LIG d   1      -0.317  79.832 111.609  0.00  0.00     0.381 N 
ATOM     19  H   LIG d   1      -0.941  79.792 112.390  0.00  0.00    -0.090 HD
ATOM     20  H   LIG d   1       0.100  78.925 111.492  0.00  0.00    -0.090 HD
ATOM     21  H   LIG d   1      -0.819  80.083 110.786  0.00  0.00    -0.090 HD
ENDBRANCH   5  18
BRANCH   3  22
ATOM     22  C   LIG d   1       3.877  81.580 110.096  0.00  0.00     0.382 C 
ATOM     23  O   LIG d   1       4.739  82.490 110.028  0.00  0.00    -0.241 OA
ATOM     24  O   LIG d   1       4.104  80.479 109.560  0.00  0.00    -0.241 OA
ENDBRANCH   3  22
TORSDOF 7
ENDMDL
MODEL 3
REMARK VINA RESULT:      -5.8      2.108      4.975
REMARK  7 active torsions:
REMARK  status: ('A' for Active; 'I' for Inactive)
REMARK    1  A    between atoms: C_2  and  C_3 
REMARK    2  A    between atoms: C_3  and  O_6 
REMARK    3  A    between atoms: C_3  and  C_4 
REMARK    4  A    between atoms: C_7  and  O_6 
REMARK    5  A    between atoms: C_9  and  C_10 
REMARK    6  A    between atoms: N_15  and  C_14 
REMARK    7  A    between atoms: N_20  and  C_19 
REMARK       I    between atoms: C_22  and  N_20 
ROOT
ATOM      1  C   LIG d   1      -0.102  83.285 112.456  0.00  0.00     0.161 C 
ATOM      2  C   LIG d   1       0.863  83.559 111.472  0.00  0.00     0.016 C 
ATOM      3  C   LIG d   1       1.331  82.594 110.551  0.00  0.00     0.038 C 
ATOM      4  C   LIG d   1       0.751  81.321 110.453  0.00  0.00     0.028 C 
ATOM      5  C   LIG d   1       0.125  80.838 111.757  0.00  0.00    -0.047 C 
ATOM      6  C   LIG d   1      -0.826  81.933 112.292  0.00  0.00     0.091 C 
ENDROOT
BRANCH   1   7
ATOM      7  O   LIG d   1      -1.058  84.362 112.516  0.00  0.00    -0.368 OA
BRANCH   7   8
ATOM      8  C   LIG d   1      -0.519  85.679 112.787  0.00  0.00     0.119 C 
BRANCH   8   9
ATOM      9  C   LIG d   1      -0.972  86.082 114.204  0.00  0.00     0.028 C 
ATOM     10  C   LIG d   1       0.192  86.590 115.070  0.00  0.00     0.006 C 
ENDBRANCH   8   9
BRANCH   8  11
ATOM     11  C   LIG d   1      -1.123  86.732 111.853  0.00  0.00     0.028 C 
ATOM     12  C   LIG d   1      -0.711  86.533 110.386  0.00  0.00     0.006 C 
ENDBRANCH   8  11
ENDBRANCH   7   8
ENDBRANCH   1   7
BRANCH   6  13
ATOM     13  N   LIG d   1      -1.417  81.576 113.609  0.00  0.00    -0.311 N 
ATOM     14  C   LIG d   1      -2.719  81.660 113.875  0.00  0.00     0.210 C 
ATOM     15  C   LIG d   1      -3.114  81.263 115.301  0.00  0.00     0.109 C 
ATOM     16  O   LIG d   1      -3.588  81.993 113.056  0.00  0.00    -0.276 OA
ATOM     17  H   LIG d   1      -0.786  81.266 114.322  0.00  0.00     0.149 HD
ENDBRANCH   6  13
BRANCH   5  18
ATOM     18  N   LIG d   1      -0.562  79.563 111.476  0.00  0.00     0.381 N 
ATOM     19  H   LIG d   1      -1.517  79.738 111.235  0.00  0.00    -0.090 HD
ATOM     20  H   LIG d   1      -0.545  78.995 112.306  0.00  0.00    -0.090 HD
ATOM     21  H   LIG d   1      -0.105  79.086 110.730  0.00  0.00    -0.090 HD
ENDBRANCH   5  18
BRANCH   3  22
ATOM     22  C   LIG d   1       2.418  82.887 109.742  0.00  0.00     0.382 C 
ATOM     23  O   LIG d   1       2.579  84.052 109.305  0.00  0.00    -0.241 OA
ATOM     24  O   LIG d   1       3.215  81.991 109.406  0.00  0.00    -0.241 OA
ENDBRANCH   3  22
TORSDOF 7
ENDMDL
MODEL 4
REMARK VINA RESULT:      -5.7      3.590      5.380
REMARK  7 active torsions:
REMARK  status: ('A' for Active; 'I' for Inactive)
REMARK    1  A    between atoms: C_2  and  C_3 
REMARK    2  A    between atoms: C_3  and  O_6 
REMARK    3  A    between atoms: C_3  and  C_4 
REMARK    4  A    between atoms: C_7  and  O_6 
REMARK    5  A    between atoms: C_9  and  C_10 
REMARK    6  A    between atoms: N_15  and  C_14 
REMARK    7  A    between atoms: N_20  and  C_19 
REMARK       I    between atoms: C_22  and  N_20 
ROOT
ATOM      1  C   LIG d   1       1.948  85.284 112.726  0.00  0.00     0.161 C 
ATOM      2  C   LIG d   1       0.816  84.488 112.963  0.00  0.00     0.016 C 
ATOM      3  C   LIG d   1      -0.154  84.787 113.947  0.00  0.00     0.038 C 
ATOM      4  C   LIG d   1      -0.135  85.993 114.663  0.00  0.00     0.028 C 
ATOM      5  C   LIG d   1       1.261  86.587 114.813  0.00  0.00    -0.047 C 
ATOM      6  C   LIG d   1       1.927  86.662 113.421  0.00  0.00     0.091 C 
ENDROOT
BRANCH   1   7
ATOM      7  O   LIG d   1       2.146  85.442 111.307  0.00  0.00    -0.368 OA
BRANCH   7   8
ATOM      8  C   LIG d   1       1.044  85.033 110.460  0.00  0.00     0.119 C 
BRANCH   8   9
ATOM      9  C   LIG d   1       1.632  84.199 109.305  0.00  0.00     0.028 C 
ATOM     10  C   LIG d   1       3.106  83.827 109.541  0.00  0.00     0.006 C 
ENDBRANCH   8   9
BRANCH   8  11
ATOM     11  C   LIG d   1       0.378  86.239 109.791  0.00  0.00     0.028 C 
ATOM     12  C   LIG d   1      -0.839  86.757 110.573  0.00  0.00     0.006 C 
ENDBRANCH   8  11
ENDBRANCH   7   8
ENDBRANCH   1   7
BRANCH   6  13
ATOM     13  N   LIG d   1       3.328  87.153 113.488  0.00  0.00    -0.311 N 
ATOM     14  C   LIG d   1       3.675  88.416 113.246  0.00  0.00     0.210 C 
ATOM     15  C   LIG d   1       5.175  88.706 113.351  0.00  0.00     0.109 C 
ATOM     16  O   LIG d   1       2.878  89.331 112.988  0.00  0.00    -0.276 OA
ATOM     17  H   LIG d   1       4.036  86.484 113.722  0.00  0.00     0.149 HD
ENDBRANCH   6  13
BRANCH   5  18
ATOM     18  N   LIG d   1       1.118  87.907 115.457  0.00  0.00     0.381 N 
ATOM     19  H   LIG d   1       1.462  88.621 114.847  0.00  0.00    -0.090 HD
ATOM     20  H   LIG d   1       1.666  87.919 116.299  0.00  0.00    -0.090 HD
ATOM     21  H   LIG d   1       0.160  88.078 115.673  0.00  0.00    -0.090 HD
ENDBRANCH   5  18
BRANCH   3  22
ATOM     22  C   LIG d   1      -1.135  83.856 114.251  0.00  0.00     0.382 C 
ATOM     23  O   LIG d   1      -1.767  83.287 113.328  0.00  0.00    -0.241 OA
ATOM     24  O   LIG d   1      -1.427  83.610 115.437  0.00  0.00    -0.241 OA
ENDBRANCH   3  22
TORSDOF 7
ENDMDL
MODEL 5
REMARK VINA RESULT:      -5.6      1.464      2.073
REMARK  7 active torsions:
REMARK  status: ('A' for Active; 'I' for Inactive)
REMARK    1  A    between atoms: C_2  and  C_3 
REMARK    2  A    between atoms: C_3  and  O_6 
REMARK    3  A    between atoms: C_3  and  C_4 
REMARK    4  A    between atoms: C_7  and  O_6 
REMARK    5  A    between atoms: C_9  and  C_10 
REMARK    6  A    between atoms: N_15  and  C_14 
REMARK    7  A    between atoms: N_20  and  C_19 
REMARK       I    between atoms: C_22  and  N_20 
ROOT
ATOM      1  C   LIG d   1       0.357  82.799 111.967  0.00  0.00     0.161 C 
ATOM      2  C   LIG d   1      -0.844  82.461 112.613  0.00  0.00     0.016 C 
ATOM      3  C   LIG d   1      -1.427  81.174 112.547  0.00  0.00     0.038 C 
ATOM      4  C   LIG d   1      -0.767  80.090 111.950  0.00  0.00     0.028 C 
ATOM      5  C   LIG d   1       0.207  80.505 110.852  0.00  0.00    -0.047 C 
ATOM      6  C   LIG d   1       1.148  81.600 111.403  0.00  0.00     0.091 C 
ENDROOT
BRANCH   1   7
ATOM      7  O   LIG d   1       1.187  83.576 112.853  0.00  0.00    -0.368 OA
BRANCH   7   8
ATOM      8  C   LIG d   1       0.856  83.504 114.262  0.00  0.00     0.119 C 
BRANCH   8   9
ATOM      9  C   LIG d   1       0.929  84.935 114.828  0.00  0.00     0.028 C 
ATOM     10  C   LIG d   1       0.120  85.940 113.991  0.00  0.00     0.006 C 
ENDBRANCH   8   9
BRANCH   8  11
ATOM     11  C   LIG d   1       1.906  82.706 115.041  0.00  0.00     0.028 C 
ATOM     12  C   LIG d   1       1.419  81.300 115.427  0.00  0.00     0.006 C 
ENDBRANCH   8  11
ENDBRANCH   7   8
ENDBRANCH   1   7
BRANCH   6  13
ATOM     13  N   LIG d   1       2.078  82.122 110.368  0.00  0.00    -0.311 N 
ATOM     14  C   LIG d   1       3.404  82.071 110.481  0.00  0.00     0.210 C 
ATOM     15  C   LIG d   1       4.177  82.683 109.309  0.00  0.00     0.109 C 
ATOM     16  O   LIG d   1       4.014  81.547 111.425  0.00  0.00    -0.276 OA
ATOM     17  H   LIG d   1       1.668  82.536 109.554  0.00  0.00     0.149 HD
ENDBRANCH   6  13
BRANCH   5  18
ATOM     18  N   LIG d   1       0.925  79.293 110.413  0.00  0.00     0.381 N 
ATOM     19  H   LIG d   1       1.670  79.546 109.795  0.00  0.00    -0.090 HD
ATOM     20  H   LIG d   1       0.287  78.700 109.913  0.00  0.00    -0.090 HD
ATOM     21  H   LIG d   1       1.290  78.808 111.203  0.00  0.00    -0.090 HD
ENDBRANCH   5  18
BRANCH   3  22
ATOM     22  C   LIG d   1      -2.704  80.973 113.048  0.00  0.00     0.382 C 
ATOM     23  O   LIG d   1      -2.882  80.195 114.017  0.00  0.00    -0.241 OA
ATOM     24  O   LIG d   1      -3.686  81.523 112.516  0.00  0.00    -0.241 OA
ENDBRANCH   3  22
TORSDOF 7
ENDMDL
MODEL 6
REMARK VINA RESULT:      -5.4     10.086     12.546
REMARK  7 active torsions:
REMARK  status: ('A' for Active; 'I' for Inactive)
REMARK    1  A    between atoms: C_2  and  C_3 
REMARK    2  A    between atoms: C_3  and  O_6 
REMARK    3  A    between atoms: C_3  and  C_4 
REMARK    4  A    between atoms: C_7  and  O_6 
REMARK    5  A    between atoms: C_9  and  C_10 
REMARK    6  A    between atoms: N_15  and  C_14 
REMARK    7  A    between atoms: N_20  and  C_19 
REMARK       I    between atoms: C_22  and  N_20 
ROOT
ATOM      1  C   LIG d   1      -7.289  76.224 117.977  0.00  0.00     0.161 C 
ATOM      2  C   LIG d   1      -8.387  76.969 118.437  0.00  0.00     0.016 C 
ATOM      3  C   LIG d   1      -8.362  78.373 118.598  0.00  0.00     0.038 C 
ATOM      4  C   LIG d   1      -7.278  79.150 118.164  0.00  0.00     0.028 C 
ATOM      5  C   LIG d   1      -5.954  78.394 118.162  0.00  0.00    -0.047 C 
ATOM      6  C   LIG d   1      -6.135  77.066 117.393  0.00  0.00     0.091 C 
ENDROOT
BRANCH   1   7
ATOM      7  O   LIG d   1      -7.730  75.244 117.016  0.00  0.00    -0.368 OA
BRANCH   7   8
ATOM      8  C   LIG d   1      -7.848  73.884 117.500  0.00  0.00     0.119 C 
BRANCH   8   9
ATOM      9  C   LIG d   1      -7.006  72.988 116.572  0.00  0.00     0.028 C 
ATOM     10  C   LIG d   1      -7.786  71.757 116.078  0.00  0.00     0.006 C 
ENDBRANCH   8   9
BRANCH   8  11
ATOM     11  C   LIG d   1      -9.285  73.368 117.368  0.00  0.00     0.028 C 
ATOM     12  C   LIG d   1     -10.255  74.437 116.842  0.00  0.00     0.006 C 
ENDBRANCH   8  11
ENDBRANCH   7   8
ENDBRANCH   1   7
BRANCH   6  13
ATOM     13  N   LIG d   1      -4.909  76.226 117.416  0.00  0.00    -0.311 N 
ATOM     14  C   LIG d   1      -4.397  75.647 116.331  0.00  0.00     0.210 C 
ATOM     15  C   LIG d   1      -3.140  74.807 116.579  0.00  0.00     0.109 C 
ATOM     16  O   LIG d   1      -4.845  75.776 115.182  0.00  0.00    -0.276 OA
ATOM     17  H   LIG d   1      -4.463  76.094 118.302  0.00  0.00     0.149 HD
ENDBRANCH   6  13
BRANCH   5  18
ATOM     18  N   LIG d   1      -4.937  79.277 117.559  0.00  0.00     0.381 N 
ATOM     19  H   LIG d   1      -5.336  79.776 116.789  0.00  0.00    -0.090 HD
ATOM     20  H   LIG d   1      -4.181  78.713 117.213  0.00  0.00    -0.090 HD
ATOM     21  H   LIG d   1      -4.597  79.920 118.240  0.00  0.00    -0.090 HD
ENDBRANCH   5  18
BRANCH   3  22
ATOM     22  C   LIG d   1      -9.415  79.010 119.236  0.00  0.00     0.382 C 
ATOM     23  O   LIG d   1     -10.563  78.504 119.210  0.00  0.00    -0.241 OA
ATOM     24  O   LIG d   1      -9.242  80.107 119.800  0.00  0.00    -0.241 OA
ENDBRANCH   3  22
TORSDOF 7
ENDMDL
MODEL 7
REMARK VINA RESULT:      -5.4      3.394      6.464
REMARK  7 active torsions:
REMARK  status: ('A' for Active; 'I' for Inactive)
REMARK    1  A    between atoms: C_2  and  C_3 
REMARK    2  A    between atoms: C_3  and  O_6 
REMARK    3  A    between atoms: C_3  and  C_4 
REMARK    4  A    between atoms: C_7  and  O_6 
REMARK    5  A    between atoms: C_9  and  C_10 
REMARK    6  A    between atoms: N_15  and  C_14 
REMARK    7  A    between atoms: N_20  and  C_19 
REMARK       I    between atoms: C_22  and  N_20 
ROOT
ATOM      1  C   LIG d   1       2.289  85.849 112.099  0.00  0.00     0.161 C 
ATOM      2  C   LIG d   1       2.839  87.141 112.071  0.00  0.00     0.016 C 
ATOM      3  C   LIG d   1       3.735  87.627 113.051  0.00  0.00     0.038 C 
ATOM      4  C   LIG d   1       4.263  86.795 114.050  0.00  0.00     0.028 C 
ATOM      5  C   LIG d   1       3.350  85.629 114.413  0.00  0.00    -0.047 C 
ATOM      6  C   LIG d   1       2.940  84.891 113.118  0.00  0.00     0.091 C 
ENDROOT
BRANCH   1   7
ATOM      7  O   LIG d   1       2.326  85.274 110.777  0.00  0.00    -0.368 OA
BRANCH   7   8
ATOM      8  C   LIG d   1       1.053  84.845 110.234  0.00  0.00     0.119 C 
BRANCH   8   9
ATOM      9  C   LIG d   1       1.327  83.646 109.305  0.00  0.00     0.028 C 
ATOM     10  C   LIG d   1       2.687  82.985 109.586  0.00  0.00     0.006 C 
ENDBRANCH   8   9
BRANCH   8  11
ATOM     11  C   LIG d   1       0.439  85.922 109.335  0.00  0.00     0.028 C 
ATOM     12  C   LIG d   1      -0.841  86.533 109.926  0.00  0.00     0.006 C 
ENDBRANCH   8  11
ENDBRANCH   7   8
ENDBRANCH   1   7
BRANCH   6  13
ATOM     13  N   LIG d   1       1.979  83.787 113.376  0.00  0.00    -0.311 N 
ATOM     14  C   LIG d   1       2.346  82.516 113.530  0.00  0.00     0.210 C 
ATOM     15  C   LIG d   1       1.194  81.534 113.767  0.00  0.00     0.109 C 
ATOM     16  O   LIG d   1       3.519  82.113 113.525  0.00  0.00    -0.276 OA
ATOM     17  H   LIG d   1       1.009  84.030 113.426  0.00  0.00     0.149 HD
ENDBRANCH   6  13
BRANCH   5  18
ATOM     18  N   LIG d   1       4.081  84.769 115.362  0.00  0.00     0.381 N 
ATOM     19  H   LIG d   1       4.160  85.231 116.247  0.00  0.00    -0.090 HD
ATOM     20  H   LIG d   1       5.007  84.608 115.008  0.00  0.00    -0.090 HD
ATOM     21  H   LIG d   1       3.604  83.902 115.474  0.00  0.00    -0.090 HD
ENDBRANCH   5  18
BRANCH   3  22
ATOM     22  C   LIG d   1       4.080  88.970 113.061  0.00  0.00     0.382 C 
ATOM     23  O   LIG d   1       5.278  89.310 112.910  0.00  0.00    -0.241 OA
ATOM     24  O   LIG d   1       3.215  89.843 113.264  0.00  0.00    -0.241 OA
ENDBRANCH   3  22
TORSDOF 7
ENDMDL
MODEL 8
REMARK VINA RESULT:      -5.4      1.855      2.329
REMARK  7 active torsions:
REMARK  status: ('A' for Active; 'I' for Inactive)
REMARK    1  A    between atoms: C_2  and  C_3 
REMARK    2  A    between atoms: C_3  and  O_6 
REMARK    3  A    between atoms: C_3  and  C_4 
REMARK    4  A    between atoms: C_7  and  O_6 
REMARK    5  A    between atoms: C_9  and  C_10 
REMARK    6  A    between atoms: N_15  and  C_14 
REMARK    7  A    between atoms: N_20  and  C_19 
REMARK       I    between atoms: C_22  and  N_20 
ROOT
ATOM      1  C   LIG d   1       0.027  82.857 111.332  0.00  0.00     0.161 C 
ATOM      2  C   LIG d   1      -1.211  82.750 111.987  0.00  0.00     0.016 C 
ATOM      3  C   LIG d   1      -1.366  82.174 113.269  0.00  0.00     0.038 C 
ATOM      4  C   LIG d   1      -0.263  81.800 114.052  0.00  0.00     0.028 C 
ATOM      5  C   LIG d   1       0.964  81.424 113.229  0.00  0.00    -0.047 C 
ATOM      6  C   LIG d   1       1.255  82.556 112.216  0.00  0.00     0.091 C 
ENDROOT
BRANCH   1   7
ATOM      7  O   LIG d   1       0.151  84.161 110.731  0.00  0.00    -0.368 OA
BRANCH   7   8
ATOM      8  C   LIG d   1      -0.551  85.239 111.397  0.00  0.00     0.119 C 
BRANCH   8   9
ATOM      9  C   LIG d   1      -0.805  86.342 110.351  0.00  0.00     0.028 C 
ATOM     10  C   LIG d   1       0.320  86.430 109.306  0.00  0.00     0.006 C 
ENDBRANCH   8   9
BRANCH   8  11
ATOM     11  C   LIG d   1       0.322  85.893 112.471  0.00  0.00     0.028 C 
ATOM     12  C   LIG d   1      -0.397  86.030 113.822  0.00  0.00     0.006 C 
ENDBRANCH   8  11
ENDBRANCH   7   8
ENDBRANCH   1   7
BRANCH   6  13
ATOM     13  N   LIG d   1       2.391  82.231 111.314  0.00  0.00    -0.311 N 
ATOM     14  C   LIG d   1       3.312  83.120 110.946  0.00  0.00     0.210 C 
ATOM     15  C   LIG d   1       4.385  82.582 109.994  0.00  0.00     0.109 C 
ATOM     16  O   LIG d   1       3.360  84.294 111.342  0.00  0.00    -0.276 OA
ATOM     17  H   LIG d   1       2.446  81.292 110.971  0.00  0.00     0.149 HD
ENDBRANCH   6  13
BRANCH   5  18
ATOM     18  N   LIG d   1       2.076  81.190 114.169  0.00  0.00     0.381 N 
ATOM     19  H   LIG d   1       2.800  80.668 113.715  0.00  0.00    -0.090 HD
ATOM     20  H   LIG d   1       1.737  80.649 114.945  0.00  0.00    -0.090 HD
ATOM     21  H   LIG d   1       2.438  82.060 114.494  0.00  0.00    -0.090 HD
ENDBRANCH   5  18
BRANCH   3  22
ATOM     22  C   LIG d   1      -2.638  81.930 113.763  0.00  0.00     0.382 C 
ATOM     23  O   LIG d   1      -3.307  80.964 113.324  0.00  0.00    -0.241 OA
ATOM     24  O   LIG d   1      -3.142  82.691 114.612  0.00  0.00    -0.241 OA
ENDBRANCH   3  22
TORSDOF 7
ENDMDL
MODEL 9
REMARK VINA RESULT:      -5.4      2.688      4.621
REMARK  7 active torsions:
REMARK  status: ('A' for Active; 'I' for Inactive)
REMARK    1  A    between atoms: C_2  and  C_3 
REMARK    2  A    between atoms: C_3  and  O_6 
REMARK    3  A    between atoms: C_3  and  C_4 
REMARK    4  A    between atoms: C_7  and  O_6 
REMARK    5  A    between atoms: C_9  and  C_10 
REMARK    6  A    between atoms: N_15  and  C_14 
REMARK    7  A    between atoms: N_20  and  C_19 
REMARK       I    between atoms: C_22  and  N_20 
ROOT
ATOM      1  C   LIG d   1       2.326  83.744 112.879  0.00  0.00     0.161 C 
ATOM      2  C   LIG d   1       1.419  82.710 112.592  0.00  0.00     0.016 C 
ATOM      3  C   LIG d   1       0.015  82.865 112.662  0.00  0.00     0.038 C 
ATOM      4  C   LIG d   1      -0.583  84.116 112.877  0.00  0.00     0.028 C 
ATOM      5  C   LIG d   1       0.296  85.079 113.668  0.00  0.00    -0.047 C 
ATOM      6  C   LIG d   1       1.691  85.144 113.007  0.00  0.00     0.091 C 
ENDROOT
BRANCH   1   7
ATOM      7  O   LIG d   1       3.377  83.758 111.892  0.00  0.00    -0.368 OA
BRANCH   7   8
ATOM      8  C   LIG d   1       2.999  83.359 110.552  0.00  0.00     0.119 C 
BRANCH   8   9
ATOM      9  C   LIG d   1       4.194  82.604 109.939  0.00  0.00     0.028 C 
ATOM     10  C   LIG d   1       3.988  81.080 109.940  0.00  0.00     0.006 C 
ENDBRANCH   8   9
BRANCH   8  11
ATOM     11  C   LIG d   1       2.782  84.576 109.648  0.00  0.00     0.028 C 
ATOM     12  C   LIG d   1       1.302  84.808 109.306  0.00  0.00     0.006 C 
ENDBRANCH   8  11
ENDBRANCH   7   8
ENDBRANCH   1   7
BRANCH   6  13
ATOM     13  N   LIG d   1       2.639  86.000 113.767  0.00  0.00    -0.311 N 
ATOM     14  C   LIG d   1       2.882  87.274 113.464  0.00  0.00     0.210 C 
ATOM     15  C   LIG d   1       3.909  87.968 114.363  0.00  0.00     0.109 C 
ATOM     16  O   LIG d   1       2.320  87.904 112.555  0.00  0.00    -0.276 OA
ATOM     17  H   LIG d   1       3.116  85.578 114.539  0.00  0.00     0.149 HD
ENDBRANCH   6  13
BRANCH   5  18
ATOM     18  N   LIG d   1      -0.391  86.385 113.700  0.00  0.00     0.381 N 
ATOM     19  H   LIG d   1       0.282  87.123 113.637  0.00  0.00    -0.090 HD
ATOM     20  H   LIG d   1      -0.877  86.475 114.574  0.00  0.00    -0.090 HD
ATOM     21  H   LIG d   1      -1.037  86.449 112.944  0.00  0.00    -0.090 HD
ENDBRANCH   5  18
BRANCH   3  22
ATOM     22  C   LIG d   1      -0.806  81.753 112.554  0.00  0.00     0.382 C 
ATOM     23  O   LIG d   1      -1.945  81.862 112.040  0.00  0.00    -0.241 OA
ATOM     24  O   LIG d   1      -0.439  80.651 113.005  0.00  0.00    -0.241 OA
ENDBRANCH   3  22
TORSDOF 7
ENDMDL
