MODEL 1
REMARK VINA RESULT:      -6.7      0.000      0.000
REMARK  7 active torsions:
REMARK  status: ('A' for Active; 'I' for Inactive)
REMARK    1  A    between atoms: C_2  and  C_3 
REMARK    2  A    between atoms: C_3  and  O_6 
REMARK    3  A    between atoms: C_3  and  C_4 
REMARK    4  A    between atoms: C_7  and  O_6 
REMARK    5  A    between atoms: C_9  and  C_10 
REMARK    6  A    between atoms: N_15  and  C_14 
REMARK    7  A    between atoms: N_20  and  C_19 
REMARK       I    between atoms: C_22  and  N_20 
ROOT
ATOM      1  C   LIG d   1      -0.116  82.630 111.095  0.00  0.00     0.161 C 
ATOM      2  C   LIG d   1      -1.224  82.286 111.887  0.00  0.00     0.016 C 
ATOM      3  C   LIG d   1      -1.750  80.976 111.961  0.00  0.00     0.038 C 
ATOM      4  C   LIG d   1      -1.106  79.883 111.362  0.00  0.00     0.028 C 
ATOM      5  C   LIG d   1      -0.274  80.265 110.143  0.00  0.00    -0.047 C 
ATOM      6  C   LIG d   1       0.667  81.431 110.522  0.00  0.00     0.091 C 
ENDROOT
BRANCH   1   7
ATOM      7  O   LIG d   1       0.765  83.495 111.839  0.00  0.00    -0.368 OA
BRANCH   7   8
ATOM      8  C   LIG d   1       0.843  84.869 111.384  0.00  0.00     0.119 C 
BRANCH   8   9
ATOM      9  C   LIG d   1      -0.199  85.045 110.263  0.00  0.00     0.028 C 
ATOM     10  C   LIG d   1       0.418  85.615 108.974  0.00  0.00     0.006 C 
ENDBRANCH   8   9
BRANCH   8  11
ATOM     11  C   LIG d   1       2.197  85.164 110.731  0.00  0.00     0.028 C 
ATOM     12  C   LIG d   1       3.346  84.352 111.349  0.00  0.00     0.006 C 
ENDBRANCH   8  11
ENDBRANCH   7   8
ENDBRANCH   1   7
BRANCH   6  13
ATOM     13  N   LIG d   1       1.457  81.922 109.363  0.00  0.00    -0.311 N 
ATOM     14  C   LIG d   1       2.687  81.496 109.081  0.00  0.00     0.210 C 
ATOM     15  C   LIG d   1       3.331  82.146 107.853  0.00  0.00     0.109 C 
ATOM     16  O   LIG d   1       3.294  80.617 109.713  0.00  0.00    -0.276 OA
ATOM     17  H   LIG d   1       1.029  82.613 108.779  0.00  0.00     0.149 HD
ENDBRANCH   6  13
BRANCH   5  18
ATOM     18  N   LIG d   1       0.450  79.057 109.702  0.00  0.00     0.381 N 
ATOM     19  H   LIG d   1       1.371  79.053 110.092  0.00  0.00    -0.090 HD
ATOM     20  H   LIG d   1       0.532  79.075 108.700  0.00  0.00    -0.090 HD
ATOM     21  H   LIG d   1      -0.043  78.240 109.988  0.00  0.00    -0.090 HD
ENDBRANCH   5  18
BRANCH   3  22
ATOM     22  C   LIG d   1      -2.956  80.755 112.609  0.00  0.00     0.382 C 
ATOM     23  O   LIG d   1      -3.393  79.586 112.739  0.00  0.00    -0.241 OA
ATOM     24  O   LIG d   1      -3.635  81.714 113.024  0.00  0.00    -0.241 OA
ENDBRANCH   3  22
TORSDOF 7
ENDMDL
MODEL 2
REMARK VINA RESULT:      -6.2      2.937      4.668
REMARK  7 active torsions:
REMARK  status: ('A' for Active; 'I' for Inactive)
REMARK    1  A    between atoms: C_2  and  C_3 
REMARK    2  A    between atoms: C_3  and  O_6 
REMARK    3  A    between atoms: C_3  and  C_4 
REMARK    4  A    between atoms: C_7  and  O_6 
REMARK    5  A    between atoms: C_9  and  C_10 
REMARK    6  A    between atoms: N_15  and  C_14 
REMARK    7  A    between atoms: N_20  and  C_19 
REMARK       I    between atoms: C_22  and  N_20 
ROOT
ATOM      1  C   LIG d   1       1.685  84.038 112.062  0.00  0.00     0.161 C 
ATOM      2  C   LIG d   1       0.746  82.994 112.120  0.00  0.00     0.016 C 
ATOM      3  C   LIG d   1      -0.432  83.049 112.899  0.00  0.00     0.038 C 
ATOM      4  C   LIG d   1      -0.830  84.221 113.559  0.00  0.00     0.028 C 
ATOM      5  C   LIG d   1       0.336  85.128 113.938  0.00  0.00    -0.047 C 
ATOM      6  C   LIG d   1       1.213  85.367 112.688  0.00  0.00     0.091 C 
ENDROOT
BRANCH   1   7
ATOM      7  O   LIG d   1       2.101  84.246 110.698  0.00  0.00    -0.368 OA
BRANCH   7   8
ATOM      8  C   LIG d   1       1.111  83.960 109.679  0.00  0.00     0.119 C 
BRANCH   8   9
ATOM      9  C   LIG d   1       1.830  83.231 108.528  0.00  0.00     0.028 C 
ATOM     10  C   LIG d   1       3.246  82.774 108.916  0.00  0.00     0.006 C 
ENDBRANCH   8   9
BRANCH   8  11
ATOM     11  C   LIG d   1       0.558  85.247 109.061  0.00  0.00     0.028 C 
ATOM     12  C   LIG d   1      -0.779  85.680 109.683  0.00  0.00     0.006 C 
ENDBRANCH   8  11
ENDBRANCH   7   8
ENDBRANCH   1   7
BRANCH   6  13
ATOM     13  N   LIG d   1       2.422  86.176 112.990  0.00  0.00    -0.311 N 
ATOM     14  C   LIG d   1       2.856  87.165 112.210  0.00  0.00     0.210 C 
ATOM     15  C   LIG d   1       4.134  87.858 112.695  0.00  0.00     0.109 C 
ATOM     16  O   LIG d   1       2.287  87.555 111.180  0.00  0.00    -0.276 OA
ATOM     17  H   LIG d   1       2.927  85.948 113.824  0.00  0.00     0.149 HD
ENDBRANCH   6  13
BRANCH   5  18
ATOM     18  N   LIG d   1      -0.230  86.372 114.494  0.00  0.00     0.381 N 
ATOM     19  H   LIG d   1      -0.670  86.182 115.372  0.00  0.00    -0.090 HD
ATOM     20  H   LIG d   1      -0.927  86.723 113.861  0.00  0.00    -0.090 HD
ATOM     21  H   LIG d   1       0.490  87.050 114.615  0.00  0.00    -0.090 HD
ENDBRANCH   5  18
BRANCH   3  22
ATOM     22  C   LIG d   1      -1.207  81.910 113.055  0.00  0.00     0.382 C 
ATOM     23  O   LIG d   1      -0.675  80.837 113.430  0.00  0.00    -0.241 OA
ATOM     24  O   LIG d   1      -2.422  81.930 112.783  0.00  0.00    -0.241 OA
ENDBRANCH   3  22
TORSDOF 7
ENDMDL
MODEL 3
REMARK VINA RESULT:      -6.1      1.704      5.065
REMARK  7 active torsions:
REMARK  status: ('A' for Active; 'I' for Inactive)
REMARK    1  A    between atoms: C_2  and  C_3 
REMARK    2  A    between atoms: C_3  and  O_6 
REMARK    3  A    between atoms: C_3  and  C_4 
REMARK    4  A    between atoms: C_7  and  O_6 
REMARK    5  A    between atoms: C_9  and  C_10 
REMARK    6  A    between atoms: N_15  and  C_14 
REMARK    7  A    between atoms: N_20  and  C_19 
REMARK       I    between atoms: C_22  and  N_20 
ROOT
ATOM      1  C   LIG d   1       1.288  81.294 111.506  0.00  0.00     0.161 C 
ATOM      2  C   LIG d   1       2.463  81.744 110.882  0.00  0.00     0.016 C 
ATOM      3  C   LIG d   1       2.680  81.674 109.487  0.00  0.00     0.038 C 
ATOM      4  C   LIG d   1       1.668  81.283 108.598  0.00  0.00     0.028 C 
ATOM      5  C   LIG d   1       0.642  80.344 109.223  0.00  0.00    -0.047 C 
ATOM      6  C   LIG d   1       0.128  80.968 110.541  0.00  0.00     0.091 C 
ENDROOT
BRANCH   1   7
ATOM      7  O   LIG d   1       0.861  82.251 112.495  0.00  0.00    -0.368 OA
BRANCH   7   8
ATOM      8  C   LIG d   1       1.081  83.646 112.169  0.00  0.00     0.119 C 
BRANCH   8   9
ATOM      9  C   LIG d   1       1.807  84.292 113.365  0.00  0.00     0.028 C 
ATOM     10  C   LIG d   1       2.907  85.272 112.923  0.00  0.00     0.006 C 
ENDBRANCH   8   9
BRANCH   8  11
ATOM     11  C   LIG d   1      -0.244  84.403 112.042  0.00  0.00     0.028 C 
ATOM     12  C   LIG d   1      -0.685  84.591 110.582  0.00  0.00     0.006 C 
ENDBRANCH   8  11
ENDBRANCH   7   8
ENDBRANCH   1   7
BRANCH   6  13
ATOM     13  N   LIG d   1      -0.817  80.074 111.260  0.00  0.00    -0.311 N 
ATOM     14  C   LIG d   1      -1.944  80.503 111.826  0.00  0.00     0.210 C 
ATOM     15  C   LIG d   1      -2.765  79.420 112.534  0.00  0.00     0.109 C 
ATOM     16  O   LIG d   1      -2.357  81.672 111.782  0.00  0.00    -0.276 OA
ATOM     17  H   LIG d   1      -0.575  79.105 111.316  0.00  0.00     0.149 HD
ENDBRANCH   6  13
BRANCH   5  18
ATOM     18  N   LIG d   1      -0.427  80.128 108.230  0.00  0.00     0.381 N 
ATOM     19  H   LIG d   1      -0.093  80.359 107.316  0.00  0.00    -0.090 HD
ATOM     20  H   LIG d   1      -1.199  80.735 108.446  0.00  0.00    -0.090 HD
ATOM     21  H   LIG d   1      -0.726  79.178 108.253  0.00  0.00    -0.090 HD
ENDBRANCH   5  18
BRANCH   3  22
ATOM     22  C   LIG d   1       3.936  81.958 108.972  0.00  0.00     0.382 C 
ATOM     23  O   LIG d   1       4.126  81.928 107.732  0.00  0.00    -0.241 OA
ATOM     24  O   LIG d   1       4.891  82.201 109.734  0.00  0.00    -0.241 OA
ENDBRANCH   3  22
TORSDOF 7
ENDMDL
MODEL 4
REMARK VINA RESULT:      -6.0      2.498      4.187
REMARK  7 active torsions:
REMARK  status: ('A' for Active; 'I' for Inactive)
REMARK    1  A    between atoms: C_2  and  C_3 
REMARK    2  A    between atoms: C_3  and  O_6 
REMARK    3  A    between atoms: C_3  and  C_4 
REMARK    4  A    between atoms: C_7  and  O_6 
REMARK    5  A    between atoms: C_9  and  C_10 
REMARK    6  A    between atoms: N_15  and  C_14 
REMARK    7  A    between atoms: N_20  and  C_19 
REMARK       I    between atoms: C_22  and  N_20 
ROOT
ATOM      1  C   LIG d   1       1.822  82.822 112.256  0.00  0.00     0.161 C 
ATOM      2  C   LIG d   1       0.838  81.822 112.329  0.00  0.00     0.016 C 
ATOM      3  C   LIG d   1      -0.545  82.079 112.193  0.00  0.00     0.038 C 
ATOM      4  C   LIG d   1      -1.031  83.341 111.821  0.00  0.00     0.028 C 
ATOM      5  C   LIG d   1      -0.115  84.489 112.233  0.00  0.00    -0.047 C 
ATOM      6  C   LIG d   1       1.319  84.187 111.741  0.00  0.00     0.091 C 
ENDROOT
BRANCH   1   7
ATOM      7  O   LIG d   1       2.929  82.362 111.457  0.00  0.00    -0.368 OA
BRANCH   7   8
ATOM      8  C   LIG d   1       2.680  82.237 110.035  0.00  0.00     0.119 C 
BRANCH   8   9
ATOM      9  C   LIG d   1       2.932  80.767 109.647  0.00  0.00     0.028 C 
ATOM     10  C   LIG d   1       1.666  80.075 109.116  0.00  0.00     0.006 C 
ENDBRANCH   8   9
BRANCH   8  11
ATOM     11  C   LIG d   1       3.690  83.050 109.219  0.00  0.00     0.028 C 
ATOM     12  C   LIG d   1       4.299  82.250 108.057  0.00  0.00     0.006 C 
ENDBRANCH   8  11
ENDBRANCH   7   8
ENDBRANCH   1   7
BRANCH   6  13
ATOM     13  N   LIG d   1       2.296  85.219 112.175  0.00  0.00    -0.311 N 
ATOM     14  C   LIG d   1       2.577  86.309 111.462  0.00  0.00     0.210 C 
ATOM     15  C   LIG d   1       3.629  87.234 112.082  0.00  0.00     0.109 C 
ATOM     16  O   LIG d   1       2.032  86.613 110.391  0.00  0.00    -0.276 OA
ATOM     17  H   LIG d   1       2.762  85.068 113.048  0.00  0.00     0.149 HD
ENDBRANCH   6  13
BRANCH   5  18
ATOM     18  N   LIG d   1      -0.672  85.730 111.664  0.00  0.00     0.381 N 
ATOM     19  H   LIG d   1      -1.570  85.914 112.065  0.00  0.00    -0.090 HD
ATOM     20  H   LIG d   1      -0.788  85.610 110.673  0.00  0.00    -0.090 HD
ATOM     21  H   LIG d   1      -0.058  86.494 111.844  0.00  0.00    -0.090 HD
ENDBRANCH   5  18
BRANCH   3  22
ATOM     22  C   LIG d   1      -1.461  81.075 112.468  0.00  0.00     0.382 C 
ATOM     23  O   LIG d   1      -1.099  80.050 113.094  0.00  0.00    -0.241 OA
ATOM     24  O   LIG d   1      -2.635  81.162 112.060  0.00  0.00    -0.241 OA
ENDBRANCH   3  22
TORSDOF 7
ENDMDL
MODEL 5
REMARK VINA RESULT:      -5.7      2.233      4.232
REMARK  7 active torsions:
REMARK  status: ('A' for Active; 'I' for Inactive)
REMARK    1  A    between atoms: C_2  and  C_3 
REMARK    2  A    between atoms: C_3  and  O_6 
REMARK    3  A    between atoms: C_3  and  C_4 
REMARK    4  A    between atoms: C_7  and  O_6 
REMARK    5  A    between atoms: C_9  and  C_10 
REMARK    6  A    between atoms: N_15  and  C_14 
REMARK    7  A    between atoms: N_20  and  C_19 
REMARK       I    between atoms: C_22  and  N_20 
ROOT
ATOM      1  C   LIG d   1       1.264  82.489 111.357  0.00  0.00     0.161 C 
ATOM      2  C   LIG d   1       0.197  81.609 111.604  0.00  0.00     0.016 C 
ATOM      3  C   LIG d   1      -1.057  82.029 112.105  0.00  0.00     0.038 C 
ATOM      4  C   LIG d   1      -1.381  83.387 112.249  0.00  0.00     0.028 C 
ATOM      5  C   LIG d   1      -0.166  84.277 112.491  0.00  0.00    -0.047 C 
ATOM      6  C   LIG d   1       0.893  83.986 111.403  0.00  0.00     0.091 C 
ENDROOT
BRANCH   1   7
ATOM      7  O   LIG d   1       1.881  82.164 110.095  0.00  0.00    -0.368 OA
BRANCH   7   8
ATOM      8  C   LIG d   1       2.677  80.954 110.067  0.00  0.00     0.119 C 
BRANCH   8   9
ATOM      9  C   LIG d   1       4.134  81.365 109.780  0.00  0.00     0.028 C 
ATOM     10  C   LIG d   1       4.232  82.727 109.073  0.00  0.00     0.006 C 
ENDBRANCH   8   9
BRANCH   8  11
ATOM     11  C   LIG d   1       2.273  80.048 108.900  0.00  0.00     0.028 C 
ATOM     12  C   LIG d   1       0.795  80.204 108.508  0.00  0.00     0.006 C 
ENDBRANCH   8  11
ENDBRANCH   7   8
ENDBRANCH   1   7
BRANCH   6  13
ATOM     13  N   LIG d   1       2.148  84.754 111.614  0.00  0.00    -0.311 N 
ATOM     14  C   LIG d   1       2.375  85.949 111.073  0.00  0.00     0.210 C 
ATOM     15  C   LIG d   1       3.742  86.558 111.402  0.00  0.00     0.109 C 
ATOM     16  O   LIG d   1       1.562  86.577 110.378  0.00  0.00    -0.276 OA
ATOM     17  H   LIG d   1       2.849  84.332 112.190  0.00  0.00     0.149 HD
ENDBRANCH   6  13
BRANCH   5  18
ATOM     18  N   LIG d   1      -0.631  85.677 112.485  0.00  0.00     0.381 N 
ATOM     19  H   LIG d   1      -1.130  85.864 111.638  0.00  0.00    -0.090 HD
ATOM     20  H   LIG d   1       0.168  86.285 112.522  0.00  0.00    -0.090 HD
ATOM     21  H   LIG d   1      -1.221  85.843 113.270  0.00  0.00    -0.090 HD
ENDBRANCH   5  18
BRANCH   3  22
ATOM     22  C   LIG d   1      -1.989  81.084 112.504  0.00  0.00     0.382 C 
ATOM     23  O   LIG d   1      -1.606  79.978 112.958  0.00  0.00    -0.241 OA
ATOM     24  O   LIG d   1      -3.209  81.305 112.376  0.00  0.00    -0.241 OA
ENDBRANCH   3  22
TORSDOF 7
ENDMDL
MODEL 6
REMARK VINA RESULT:      -5.7      2.155      4.573
REMARK  7 active torsions:
REMARK  status: ('A' for Active; 'I' for Inactive)
REMARK    1  A    between atoms: C_2  and  C_3 
REMARK    2  A    between atoms: C_3  and  O_6 
REMARK    3  A    between atoms: C_3  and  C_4 
REMARK    4  A    between atoms: C_7  and  O_6 
REMARK    5  A    between atoms: C_9  and  C_10 
REMARK    6  A    between atoms: N_15  and  C_14 
REMARK    7  A    between atoms: N_20  and  C_19 
REMARK       I    between atoms: C_22  and  N_20 
ROOT
ATOM      1  C   LIG d   1       0.022  82.060 110.880  0.00  0.00     0.161 C 
ATOM      2  C   LIG d   1      -0.040  83.416 111.243  0.00  0.00     0.016 C 
ATOM      3  C   LIG d   1       0.052  83.868 112.580  0.00  0.00     0.038 C 
ATOM      4  C   LIG d   1       0.366  83.000 113.636  0.00  0.00     0.028 C 
ATOM      5  C   LIG d   1      -0.063  81.559 113.384  0.00  0.00    -0.047 C 
ATOM      6  C   LIG d   1       0.475  81.109 112.006  0.00  0.00     0.091 C 
ENDROOT
BRANCH   1   7
ATOM      7  O   LIG d   1       0.865  81.903 109.721  0.00  0.00    -0.368 OA
BRANCH   7   8
ATOM      8  C   LIG d   1       2.290  81.848 109.973  0.00  0.00     0.119 C 
BRANCH   8   9
ATOM      9  C   LIG d   1       2.953  82.954 109.130  0.00  0.00     0.028 C 
ATOM     10  C   LIG d   1       4.367  82.569 108.663  0.00  0.00     0.006 C 
ENDBRANCH   8   9
BRANCH   8  11
ATOM     11  C   LIG d   1       2.895  80.535 109.467  0.00  0.00     0.028 C 
ATOM     12  C   LIG d   1       1.908  79.708 108.629  0.00  0.00     0.006 C 
ENDBRANCH   8  11
ENDBRANCH   7   8
ENDBRANCH   1   7
BRANCH   6  13
ATOM     13  N   LIG d   1       0.029  79.738 111.644  0.00  0.00    -0.311 N 
ATOM     14  C   LIG d   1      -1.251  79.381 111.561  0.00  0.00     0.210 C 
ATOM     15  C   LIG d   1      -1.491  77.914 111.192  0.00  0.00     0.109 C 
ATOM     16  O   LIG d   1      -2.211  80.149 111.728  0.00  0.00    -0.276 OA
ATOM     17  H   LIG d   1       0.743  79.059 111.462  0.00  0.00     0.149 HD
ENDBRANCH   6  13
BRANCH   5  18
ATOM     18  N   LIG d   1       0.447  80.740 114.499  0.00  0.00     0.381 N 
ATOM     19  H   LIG d   1       1.376  81.028 114.734  0.00  0.00    -0.090 HD
ATOM     20  H   LIG d   1       0.479  79.778 114.209  0.00  0.00    -0.090 HD
ATOM     21  H   LIG d   1      -0.148  80.835 115.293  0.00  0.00    -0.090 HD
ENDBRANCH   5  18
BRANCH   3  22
ATOM     22  C   LIG d   1      -0.211  85.197 112.875  0.00  0.00     0.382 C 
ATOM     23  O   LIG d   1      -1.382  85.561 113.138  0.00  0.00    -0.241 OA
ATOM     24  O   LIG d   1       0.702  86.044 112.839  0.00  0.00    -0.241 OA
ENDBRANCH   3  22
TORSDOF 7
ENDMDL
MODEL 7
REMARK VINA RESULT:      -5.7      1.927      3.745
REMARK  7 active torsions:
REMARK  status: ('A' for Active; 'I' for Inactive)
REMARK    1  A    between atoms: C_2  and  C_3 
REMARK    2  A    between atoms: C_3  and  O_6 
REMARK    3  A    between atoms: C_3  and  C_4 
REMARK    4  A    between atoms: C_7  and  O_6 
REMARK    5  A    between atoms: C_9  and  C_10 
REMARK    6  A    between atoms: N_15  and  C_14 
REMARK    7  A    between atoms: N_20  and  C_19 
REMARK       I    between atoms: C_22  and  N_20 
ROOT
ATOM      1  C   LIG d   1       0.485  81.291 111.026  0.00  0.00     0.161 C 
ATOM      2  C   LIG d   1      -0.518  80.316 111.154  0.00  0.00     0.016 C 
ATOM      3  C   LIG d   1      -1.587  80.416 112.075  0.00  0.00     0.038 C 
ATOM      4  C   LIG d   1      -1.809  81.577 112.830  0.00  0.00     0.028 C 
ATOM      5  C   LIG d   1      -0.538  82.376 113.100  0.00  0.00    -0.047 C 
ATOM      6  C   LIG d   1       0.198  82.616 111.762  0.00  0.00     0.091 C 
ENDROOT
BRANCH   1   7
ATOM      7  O   LIG d   1       0.749  81.540 109.631  0.00  0.00    -0.368 OA
BRANCH   7   8
ATOM      8  C   LIG d   1       2.018  81.057 109.126  0.00  0.00     0.119 C 
BRANCH   8   9
ATOM      9  C   LIG d   1       2.985  80.958 110.322  0.00  0.00     0.028 C 
ATOM     10  C   LIG d   1       4.275  81.765 110.103  0.00  0.00     0.006 C 
ENDBRANCH   8   9
BRANCH   8  11
ATOM     11  C   LIG d   1       2.659  82.069 108.170  0.00  0.00     0.028 C 
ATOM     12  C   LIG d   1       1.708  83.215 107.791  0.00  0.00     0.006 C 
ENDBRANCH   8  11
ENDBRANCH   7   8
ENDBRANCH   1   7
BRANCH   6  13
ATOM     13  N   LIG d   1       1.495  83.318 111.947  0.00  0.00    -0.311 N 
ATOM     14  C   LIG d   1       1.791  84.476 111.359  0.00  0.00     0.210 C 
ATOM     15  C   LIG d   1       3.190  85.018 111.668  0.00  0.00     0.109 C 
ATOM     16  O   LIG d   1       1.017  85.122 110.637  0.00  0.00    -0.276 OA
ATOM     17  H   LIG d   1       2.170  82.880 112.542  0.00  0.00     0.149 HD
ENDBRANCH   6  13
BRANCH   5  18
ATOM     18  N   LIG d   1      -0.934  83.627 113.774  0.00  0.00     0.381 N 
ATOM     19  H   LIG d   1      -1.842  83.520 114.181  0.00  0.00    -0.090 HD
ATOM     20  H   LIG d   1      -0.978  84.364 113.093  0.00  0.00    -0.090 HD
ATOM     21  H   LIG d   1      -0.270  83.858 114.481  0.00  0.00    -0.090 HD
ENDBRANCH   5  18
BRANCH   3  22
ATOM     22  C   LIG d   1      -2.424  79.329 112.277  0.00  0.00     0.382 C 
ATOM     23  O   LIG d   1      -3.512  79.480 112.882  0.00  0.00    -0.241 OA
ATOM     24  O   LIG d   1      -2.084  78.191 111.900  0.00  0.00    -0.241 OA
ENDBRANCH   3  22
TORSDOF 7
ENDMDL
MODEL 8
REMARK VINA RESULT:      -5.5      2.489      5.701
REMARK  7 active torsions:
REMARK  status: ('A' for Active; 'I' for Inactive)
REMARK    1  A    between atoms: C_2  and  C_3 
REMARK    2  A    between atoms: C_3  and  O_6 
REMARK    3  A    between atoms: C_3  and  C_4 
REMARK    4  A    between atoms: C_7  and  O_6 
REMARK    5  A    between atoms: C_9  and  C_10 
REMARK    6  A    between atoms: N_15  and  C_14 
REMARK    7  A    between atoms: N_20  and  C_19 
REMARK       I    between atoms: C_22  and  N_20 
ROOT
ATOM      1  C   LIG d   1       0.438  83.736 110.706  0.00  0.00     0.161 C 
ATOM      2  C   LIG d   1       1.333  84.819 110.737  0.00  0.00     0.016 C 
ATOM      3  C   LIG d   1       1.772  85.432 111.933  0.00  0.00     0.038 C 
ATOM      4  C   LIG d   1       1.461  84.904 113.194  0.00  0.00     0.028 C 
ATOM      5  C   LIG d   1       0.154  84.118 113.217  0.00  0.00    -0.047 C 
ATOM      6  C   LIG d   1       0.175  83.076 112.076  0.00  0.00     0.091 C 
ENDROOT
BRANCH   1   7
ATOM      7  O   LIG d   1       0.892  82.754 109.755  0.00  0.00    -0.368 OA
BRANCH   7   8
ATOM      8  C   LIG d   1       1.994  81.915 110.181  0.00  0.00     0.119 C 
BRANCH   8   9
ATOM      9  C   LIG d   1       3.238  82.341 109.377  0.00  0.00     0.028 C 
ATOM     10  C   LIG d   1       4.317  81.246 109.341  0.00  0.00     0.006 C 
ENDBRANCH   8   9
BRANCH   8  11
ATOM     11  C   LIG d   1       1.754  80.449 109.811  0.00  0.00     0.028 C 
ATOM     12  C   LIG d   1       0.319  80.183 109.329  0.00  0.00     0.006 C 
ENDBRANCH   8  11
ENDBRANCH   7   8
ENDBRANCH   1   7
BRANCH   6  13
ATOM     13  N   LIG d   1      -1.101  82.321 111.974  0.00  0.00    -0.311 N 
ATOM     14  C   LIG d   1      -1.343  81.196 112.645  0.00  0.00     0.210 C 
ATOM     15  C   LIG d   1      -2.714  80.568 112.380  0.00  0.00     0.109 C 
ATOM     16  O   LIG d   1      -0.565  80.677 113.459  0.00  0.00    -0.276 OA
ATOM     17  H   LIG d   1      -1.800  82.689 111.359  0.00  0.00     0.149 HD
ENDBRANCH   6  13
BRANCH   5  18
ATOM     18  N   LIG d   1       0.023  83.510 114.554  0.00  0.00     0.381 N 
ATOM     19  H   LIG d   1      -0.762  83.906 115.031  0.00  0.00    -0.090 HD
ATOM     20  H   LIG d   1       0.851  83.713 115.086  0.00  0.00    -0.090 HD
ATOM     21  H   LIG d   1      -0.093  82.524 114.470  0.00  0.00    -0.090 HD
ENDBRANCH   5  18
BRANCH   3  22
ATOM     22  C   LIG d   1       2.499  86.612 111.873  0.00  0.00     0.382 C 
ATOM     23  O   LIG d   1       2.228  87.472 111.001  0.00  0.00    -0.241 OA
ATOM     24  O   LIG d   1       3.450  86.807 112.653  0.00  0.00    -0.241 OA
ENDBRANCH   3  22
TORSDOF 7
ENDMDL
MODEL 9
REMARK VINA RESULT:      -5.1      2.137      4.731
REMARK  7 active torsions:
REMARK  status: ('A' for Active; 'I' for Inactive)
REMARK    1  A    between atoms: C_2  and  C_3 
REMARK    2  A    between atoms: C_3  and  O_6 
REMARK    3  A    between atoms: C_3  and  C_4 
REMARK    4  A    between atoms: C_7  and  O_6 
REMARK    5  A    between atoms: C_9  and  C_10 
REMARK    6  A    between atoms: N_15  and  C_14 
REMARK    7  A    between atoms: N_20  and  C_19 
REMARK       I    between atoms: C_22  and  N_20 
ROOT
ATOM      1  C   LIG d   1       0.450  82.049 109.984  0.00  0.00     0.161 C 
ATOM      2  C   LIG d   1       0.698  83.431 109.946  0.00  0.00     0.016 C 
ATOM      3  C   LIG d   1       0.143  84.347 110.870  0.00  0.00     0.038 C 
ATOM      4  C   LIG d   1      -0.580  83.921 111.993  0.00  0.00     0.028 C 
ATOM      5  C   LIG d   1      -1.277  82.579 111.791  0.00  0.00    -0.047 C 
ATOM      6  C   LIG d   1      -0.247  81.552 111.268  0.00  0.00     0.091 C 
ENDROOT
BRANCH   1   7
ATOM      7  O   LIG d   1       1.678  81.326 109.769  0.00  0.00    -0.368 OA
BRANCH   7   8
ATOM      8  C   LIG d   1       2.896  82.012 110.150  0.00  0.00     0.119 C 
BRANCH   8   9
ATOM      9  C   LIG d   1       4.022  81.501 109.231  0.00  0.00     0.028 C 
ATOM     10  C   LIG d   1       3.931  82.084 107.811  0.00  0.00     0.006 C 
ENDBRANCH   8   9
BRANCH   8  11
ATOM     11  C   LIG d   1       3.328  81.633 111.570  0.00  0.00     0.028 C 
ATOM     12  C   LIG d   1       2.888  82.664 112.622  0.00  0.00     0.006 C 
ENDBRANCH   8  11
ENDBRANCH   7   8
ENDBRANCH   1   7
BRANCH   6  13
ATOM     13  N   LIG d   1      -0.864  80.235 110.964  0.00  0.00    -0.311 N 
ATOM     14  C   LIG d   1      -0.974  79.253 111.856  0.00  0.00     0.210 C 
ATOM     15  C   LIG d   1      -1.624  77.970 111.330  0.00  0.00     0.109 C 
ATOM     16  O   LIG d   1      -0.623  79.334 113.043  0.00  0.00    -0.276 OA
ATOM     17  H   LIG d   1      -1.204  80.095 110.032  0.00  0.00     0.149 HD
ENDBRANCH   6  13
BRANCH   5  18
ATOM     18  N   LIG d   1      -1.878  82.190 113.081  0.00  0.00     0.381 N 
ATOM     19  H   LIG d   1      -2.304  82.987 113.510  0.00  0.00    -0.090 HD
ATOM     20  H   LIG d   1      -1.152  81.855 113.690  0.00  0.00    -0.090 HD
ATOM     21  H   LIG d   1      -2.558  81.476 112.939  0.00  0.00    -0.090 HD
ENDBRANCH   5  18
BRANCH   3  22
ATOM     22  C   LIG d   1       0.278  85.710 110.651  0.00  0.00     0.382 C 
ATOM     23  O   LIG d   1       0.803  86.126 109.591  0.00  0.00    -0.241 OA
ATOM     24  O   LIG d   1      -0.079  86.527 111.521  0.00  0.00    -0.241 OA
ENDBRANCH   3  22
TORSDOF 7
ENDMDL
