MODEL 1
REMARK VINA RESULT:      -6.6      0.000      0.000
REMARK  7 active torsions:
REMARK  status: ('A' for Active; 'I' for Inactive)
REMARK    1  A    between atoms: C_2  and  C_3 
REMARK    2  A    between atoms: C_3  and  O_6 
REMARK    3  A    between atoms: C_3  and  C_4 
REMARK    4  A    between atoms: C_7  and  O_6 
REMARK    5  A    between atoms: C_9  and  C_10 
REMARK    6  A    between atoms: N_15  and  C_14 
REMARK    7  A    between atoms: N_20  and  C_19 
REMARK       I    between atoms: C_22  and  N_20 
ROOT
ATOM      1  C   LIG d   1       0.609  82.556 111.164  0.00  0.00     0.161 C 
ATOM      2  C   LIG d   1      -0.475  82.354 112.034  0.00  0.00     0.016 C 
ATOM      3  C   LIG d   1      -1.070  81.091 112.255  0.00  0.00     0.038 C 
ATOM      4  C   LIG d   1      -0.520  79.911 111.733  0.00  0.00     0.028 C 
ATOM      5  C   LIG d   1       0.269  80.128 110.447  0.00  0.00    -0.047 C 
ATOM      6  C   LIG d   1       1.293  81.264 110.672  0.00  0.00     0.091 C 
ENDROOT
BRANCH   1   7
ATOM      7  O   LIG d   1       1.575  83.430 111.782  0.00  0.00    -0.368 OA
BRANCH   7   8
ATOM      8  C   LIG d   1       1.623  84.787 111.276  0.00  0.00     0.119 C 
BRANCH   8   9
ATOM      9  C   LIG d   1       0.793  84.826 109.978  0.00  0.00     0.028 C 
ATOM     10  C   LIG d   1      -0.475  85.686 110.118  0.00  0.00     0.006 C 
ENDBRANCH   8   9
BRANCH   8  11
ATOM     11  C   LIG d   1       3.044  85.176 110.860  0.00  0.00     0.028 C 
ATOM     12  C   LIG d   1       3.639  86.288 111.738  0.00  0.00     0.006 C 
ENDBRANCH   8  11
ENDBRANCH   7   8
ENDBRANCH   1   7
BRANCH   6  13
ATOM     13  N   LIG d   1       2.050  81.598 109.437  0.00  0.00    -0.311 N 
ATOM     14  C   LIG d   1       3.376  81.715 109.399  0.00  0.00     0.210 C 
ATOM     15  C   LIG d   1       3.953  82.084 108.029  0.00  0.00     0.109 C 
ATOM     16  O   LIG d   1       4.131  81.516 110.362  0.00  0.00    -0.276 OA
ATOM     17  H   LIG d   1       1.518  81.745 108.602  0.00  0.00     0.149 HD
ENDBRANCH   6  13
BRANCH   5  18
ATOM     18  N   LIG d   1       0.900  78.843 110.089  0.00  0.00     0.381 N 
ATOM     19  H   LIG d   1       1.465  78.520 110.849  0.00  0.00    -0.090 HD
ATOM     20  H   LIG d   1       1.496  78.984 109.292  0.00  0.00    -0.090 HD
ATOM     21  H   LIG d   1       0.200  78.167 109.875  0.00  0.00    -0.090 HD
ENDBRANCH   5  18
BRANCH   3  22
ATOM     22  C   LIG d   1      -2.253  81.005 112.974  0.00  0.00     0.382 C 
ATOM     23  O   LIG d   1      -2.293  80.338 114.037  0.00  0.00    -0.241 OA
ATOM     24  O   LIG d   1      -3.291  81.548 112.551  0.00  0.00    -0.241 OA
ENDBRANCH   3  22
TORSDOF 7
ENDMDL
MODEL 2
REMARK VINA RESULT:      -6.5      2.479      4.073
REMARK  7 active torsions:
REMARK  status: ('A' for Active; 'I' for Inactive)
REMARK    1  A    between atoms: C_2  and  C_3 
REMARK    2  A    between atoms: C_3  and  O_6 
REMARK    3  A    between atoms: C_3  and  C_4 
REMARK    4  A    between atoms: C_7  and  O_6 
REMARK    5  A    between atoms: C_9  and  C_10 
REMARK    6  A    between atoms: N_15  and  C_14 
REMARK    7  A    between atoms: N_20  and  C_19 
REMARK       I    between atoms: C_22  and  N_20 
ROOT
ATOM      1  C   LIG d   1       0.909  80.119 110.539  0.00  0.00     0.161 C 
ATOM      2  C   LIG d   1      -0.054  79.108 110.388  0.00  0.00     0.016 C 
ATOM      3  C   LIG d   1      -0.952  78.729 111.412  0.00  0.00     0.038 C 
ATOM      4  C   LIG d   1      -1.047  79.443 112.616  0.00  0.00     0.028 C 
ATOM      5  C   LIG d   1       0.247  80.147 113.007  0.00  0.00    -0.047 C 
ATOM      6  C   LIG d   1       0.746  80.984 111.806  0.00  0.00     0.091 C 
ENDROOT
BRANCH   1   7
ATOM      7  O   LIG d   1       0.932  80.953 109.363  0.00  0.00    -0.368 OA
BRANCH   7   8
ATOM      8  C   LIG d   1       2.149  80.915 108.578  0.00  0.00     0.119 C 
BRANCH   8   9
ATOM      9  C   LIG d   1       3.103  79.909 109.252  0.00  0.00     0.028 C 
ATOM     10  C   LIG d   1       4.490  80.512 109.530  0.00  0.00     0.006 C 
ENDBRANCH   8   9
BRANCH   8  11
ATOM     11  C   LIG d   1       2.881  82.260 108.621  0.00  0.00     0.028 C 
ATOM     12  C   LIG d   1       1.924  83.456 108.742  0.00  0.00     0.006 C 
ENDBRANCH   8  11
ENDBRANCH   7   8
ENDBRANCH   1   7
BRANCH   6  13
ATOM     13  N   LIG d   1       2.052  81.639 112.075  0.00  0.00    -0.311 N 
ATOM     14  C   LIG d   1       2.168  82.901 112.485  0.00  0.00     0.210 C 
ATOM     15  C   LIG d   1       3.608  83.386 112.684  0.00  0.00     0.109 C 
ATOM     16  O   LIG d   1       1.216  83.655 112.733  0.00  0.00    -0.276 OA
ATOM     17  H   LIG d   1       2.876  81.090 111.930  0.00  0.00     0.149 HD
ENDBRANCH   6  13
BRANCH   5  18
ATOM     18  N   LIG d   1      -0.033  80.963 114.204  0.00  0.00     0.381 N 
ATOM     19  H   LIG d   1       0.004  80.388 115.022  0.00  0.00    -0.090 HD
ATOM     20  H   LIG d   1      -0.960  81.344 114.128  0.00  0.00    -0.090 HD
ATOM     21  H   LIG d   1       0.633  81.701 114.277  0.00  0.00    -0.090 HD
ENDBRANCH   5  18
BRANCH   3  22
ATOM     22  C   LIG d   1      -1.738  77.598 111.253  0.00  0.00     0.382 C 
ATOM     23  O   LIG d   1      -2.989  77.699 111.254  0.00  0.00    -0.241 OA
ATOM     24  O   LIG d   1      -1.214  76.473 111.152  0.00  0.00    -0.241 OA
ENDBRANCH   3  22
TORSDOF 7
ENDMDL
MODEL 3
REMARK VINA RESULT:      -6.3      2.593      4.188
REMARK  7 active torsions:
REMARK  status: ('A' for Active; 'I' for Inactive)
REMARK    1  A    between atoms: C_2  and  C_3 
REMARK    2  A    between atoms: C_3  and  O_6 
REMARK    3  A    between atoms: C_3  and  C_4 
REMARK    4  A    between atoms: C_7  and  O_6 
REMARK    5  A    between atoms: C_9  and  C_10 
REMARK    6  A    between atoms: N_15  and  C_14 
REMARK    7  A    between atoms: N_20  and  C_19 
REMARK       I    between atoms: C_22  and  N_20 
ROOT
ATOM      1  C   LIG d   1       0.319  80.408 111.148  0.00  0.00     0.161 C 
ATOM      2  C   LIG d   1      -0.145  79.084 111.082  0.00  0.00     0.016 C 
ATOM      3  C   LIG d   1      -1.290  78.625 111.773  0.00  0.00     0.038 C 
ATOM      4  C   LIG d   1      -2.141  79.502 112.463  0.00  0.00     0.028 C 
ATOM      5  C   LIG d   1      -1.435  80.754 112.973  0.00  0.00    -0.047 C 
ATOM      6  C   LIG d   1      -0.659  81.404 111.805  0.00  0.00     0.091 C 
ENDROOT
BRANCH   1   7
ATOM      7  O   LIG d   1       0.687  80.863 109.830  0.00  0.00    -0.368 OA
BRANCH   7   8
ATOM      8  C   LIG d   1       2.062  81.288 109.664  0.00  0.00     0.119 C 
BRANCH   8   9
ATOM      9  C   LIG d   1       2.064  82.470 108.675  0.00  0.00     0.028 C 
ATOM     10  C   LIG d   1       2.860  83.675 109.204  0.00  0.00     0.006 C 
ENDBRANCH   8   9
BRANCH   8  11
ATOM     11  C   LIG d   1       2.905  80.198 108.995  0.00  0.00     0.028 C 
ATOM     12  C   LIG d   1       4.398  80.301 109.345  0.00  0.00     0.006 C 
ENDBRANCH   8  11
ENDBRANCH   7   8
ENDBRANCH   1   7
BRANCH   6  13
ATOM     13  N   LIG d   1       0.128  82.588 112.237  0.00  0.00    -0.311 N 
ATOM     14  C   LIG d   1       0.101  83.758 111.601  0.00  0.00     0.210 C 
ATOM     15  C   LIG d   1       1.002  84.841 112.202  0.00  0.00     0.109 C 
ATOM     16  O   LIG d   1      -0.609  84.011 110.616  0.00  0.00    -0.276 OA
ATOM     17  H   LIG d   1       0.707  82.480 113.047  0.00  0.00     0.149 HD
ENDBRANCH   6  13
BRANCH   5  18
ATOM     18  N   LIG d   1      -2.463  81.641 113.549  0.00  0.00     0.381 N 
ATOM     19  H   LIG d   1      -2.127  82.040 114.403  0.00  0.00    -0.090 HD
ATOM     20  H   LIG d   1      -3.283  81.097 113.757  0.00  0.00    -0.090 HD
ATOM     21  H   LIG d   1      -2.691  82.364 112.903  0.00  0.00    -0.090 HD
ENDBRANCH   5  18
BRANCH   3  22
ATOM     22  C   LIG d   1      -1.571  77.268 111.813  0.00  0.00     0.382 C 
ATOM     23  O   LIG d   1      -2.212  76.788 112.779  0.00  0.00    -0.241 OA
ATOM     24  O   LIG d   1      -1.153  76.510 110.917  0.00  0.00    -0.241 OA
ENDBRANCH   3  22
TORSDOF 7
ENDMDL
MODEL 4
REMARK VINA RESULT:      -6.3      2.302      4.862
REMARK  7 active torsions:
REMARK  status: ('A' for Active; 'I' for Inactive)
REMARK    1  A    between atoms: C_2  and  C_3 
REMARK    2  A    between atoms: C_3  and  O_6 
REMARK    3  A    between atoms: C_3  and  C_4 
REMARK    4  A    between atoms: C_7  and  O_6 
REMARK    5  A    between atoms: C_9  and  C_10 
REMARK    6  A    between atoms: N_15  and  C_14 
REMARK    7  A    between atoms: N_20  and  C_19 
REMARK       I    between atoms: C_22  and  N_20 
ROOT
ATOM      1  C   LIG d   1       1.411  83.222 109.722  0.00  0.00     0.161 C 
ATOM      2  C   LIG d   1       1.573  84.582 110.034  0.00  0.00     0.016 C 
ATOM      3  C   LIG d   1       0.941  85.209 111.132  0.00  0.00     0.038 C 
ATOM      4  C   LIG d   1       0.217  84.479 112.087  0.00  0.00     0.028 C 
ATOM      5  C   LIG d   1      -0.389  83.194 111.535  0.00  0.00    -0.047 C 
ATOM      6  C   LIG d   1       0.715  82.386 110.816  0.00  0.00     0.091 C 
ENDROOT
BRANCH   1   7
ATOM      7  O   LIG d   1       2.687  82.643 109.384  0.00  0.00    -0.368 OA
BRANCH   7   8
ATOM      8  C   LIG d   1       3.328  81.863 110.423  0.00  0.00     0.119 C 
BRANCH   8   9
ATOM      9  C   LIG d   1       4.446  82.732 111.031  0.00  0.00     0.028 C 
ATOM     10  C   LIG d   1       4.051  83.330 112.391  0.00  0.00     0.006 C 
ENDBRANCH   8   9
BRANCH   8  11
ATOM     11  C   LIG d   1       4.038  80.637 109.842  0.00  0.00     0.028 C 
ATOM     12  C   LIG d   1       3.201  79.915 108.773  0.00  0.00     0.006 C 
ENDBRANCH   8  11
ENDBRANCH   7   8
ENDBRANCH   1   7
BRANCH   6  13
ATOM     13  N   LIG d   1       0.189  81.153 110.173  0.00  0.00    -0.311 N 
ATOM     14  C   LIG d   1       0.156  79.967 110.779  0.00  0.00     0.210 C 
ATOM     15  C   LIG d   1      -0.407  78.823 109.930  0.00  0.00     0.109 C 
ATOM     16  O   LIG d   1       0.511  79.761 111.949  0.00  0.00    -0.276 OA
ATOM     17  H   LIG d   1      -0.148  81.237 109.235  0.00  0.00     0.149 HD
ENDBRANCH   6  13
BRANCH   5  18
ATOM     18  N   LIG d   1      -0.996  82.465 112.665  0.00  0.00     0.381 N 
ATOM     19  H   LIG d   1      -0.277  82.058 113.230  0.00  0.00    -0.090 HD
ATOM     20  H   LIG d   1      -1.570  81.724 112.304  0.00  0.00    -0.090 HD
ATOM     21  H   LIG d   1      -1.548  83.086 113.214  0.00  0.00    -0.090 HD
ENDBRANCH   5  18
BRANCH   3  22
ATOM     22  C   LIG d   1       0.995  86.589 111.261  0.00  0.00     0.382 C 
ATOM     23  O   LIG d   1       2.092  87.186 111.144  0.00  0.00    -0.241 OA
ATOM     24  O   LIG d   1      -0.031  87.238 111.538  0.00  0.00    -0.241 OA
ENDBRANCH   3  22
TORSDOF 7
ENDMDL
MODEL 5
REMARK VINA RESULT:      -6.2      1.477      4.934
REMARK  7 active torsions:
REMARK  status: ('A' for Active; 'I' for Inactive)
REMARK    1  A    between atoms: C_2  and  C_3 
REMARK    2  A    between atoms: C_3  and  O_6 
REMARK    3  A    between atoms: C_3  and  C_4 
REMARK    4  A    between atoms: C_7  and  O_6 
REMARK    5  A    between atoms: C_9  and  C_10 
REMARK    6  A    between atoms: N_15  and  C_14 
REMARK    7  A    between atoms: N_20  and  C_19 
REMARK       I    between atoms: C_22  and  N_20 
ROOT
ATOM      1  C   LIG d   1       1.617  81.820 112.077  0.00  0.00     0.161 C 
ATOM      2  C   LIG d   1       2.629  81.957 111.113  0.00  0.00     0.016 C 
ATOM      3  C   LIG d   1       2.607  81.298 109.862  0.00  0.00     0.038 C 
ATOM      4  C   LIG d   1       1.489  80.572 109.427  0.00  0.00     0.028 C 
ATOM      5  C   LIG d   1       0.660  79.993 110.569  0.00  0.00    -0.047 C 
ATOM      6  C   LIG d   1       0.336  81.120 111.575  0.00  0.00     0.091 C 
ENDROOT
BRANCH   1   7
ATOM      7  O   LIG d   1       1.297  83.110 112.636  0.00  0.00    -0.368 OA
BRANCH   7   8
ATOM      8  C   LIG d   1       1.321  84.227 111.714  0.00  0.00     0.119 C 
BRANCH   8   9
ATOM      9  C   LIG d   1       2.205  85.324 112.339  0.00  0.00     0.028 C 
ATOM     10  C   LIG d   1       3.299  85.815 111.377  0.00  0.00     0.006 C 
ENDBRANCH   8   9
BRANCH   8  11
ATOM     11  C   LIG d   1      -0.067  84.859 111.568  0.00  0.00     0.028 C 
ATOM     12  C   LIG d   1      -0.338  85.379 110.148  0.00  0.00     0.006 C 
ENDBRANCH   8  11
ENDBRANCH   7   8
ENDBRANCH   1   7
BRANCH   6  13
ATOM     13  N   LIG d   1      -0.400  80.623 112.766  0.00  0.00    -0.311 N 
ATOM     14  C   LIG d   1      -1.604  81.069 113.123  0.00  0.00     0.210 C 
ATOM     15  C   LIG d   1      -2.176  80.436 114.395  0.00  0.00     0.109 C 
ATOM     16  O   LIG d   1      -2.265  81.905 112.489  0.00  0.00    -0.276 OA
ATOM     17  H   LIG d   1       0.050  79.921 113.320  0.00  0.00     0.149 HD
ENDBRANCH   6  13
BRANCH   5  18
ATOM     18  N   LIG d   1      -0.545  79.380 109.979  0.00  0.00     0.381 N 
ATOM     19  H   LIG d   1      -1.354  79.658 110.497  0.00  0.00    -0.090 HD
ATOM     20  H   LIG d   1      -0.463  78.381 110.035  0.00  0.00    -0.090 HD
ATOM     21  H   LIG d   1      -0.639  79.660 109.027  0.00  0.00    -0.090 HD
ENDBRANCH   5  18
BRANCH   3  22
ATOM     22  C   LIG d   1       3.729  81.330 109.049  0.00  0.00     0.382 C 
ATOM     23  O   LIG d   1       3.792  82.147 108.099  0.00  0.00    -0.241 OA
ATOM     24  O   LIG d   1       4.661  80.522 109.225  0.00  0.00    -0.241 OA
ENDBRANCH   3  22
TORSDOF 7
ENDMDL
MODEL 6
REMARK VINA RESULT:      -5.9      2.220      4.034
REMARK  7 active torsions:
REMARK  status: ('A' for Active; 'I' for Inactive)
REMARK    1  A    between atoms: C_2  and  C_3 
REMARK    2  A    between atoms: C_3  and  O_6 
REMARK    3  A    between atoms: C_3  and  C_4 
REMARK    4  A    between atoms: C_7  and  O_6 
REMARK    5  A    between atoms: C_9  and  C_10 
REMARK    6  A    between atoms: N_15  and  C_14 
REMARK    7  A    between atoms: N_20  and  C_19 
REMARK       I    between atoms: C_22  and  N_20 
ROOT
ATOM      1  C   LIG d   1       2.330  82.081 112.265  0.00  0.00     0.161 C 
ATOM      2  C   LIG d   1       1.374  81.053 112.307  0.00  0.00     0.016 C 
ATOM      3  C   LIG d   1       0.005  81.251 112.016  0.00  0.00     0.038 C 
ATOM      4  C   LIG d   1      -0.477  82.468 111.512  0.00  0.00     0.028 C 
ATOM      5  C   LIG d   1       0.358  83.672 111.934  0.00  0.00    -0.047 C 
ATOM      6  C   LIG d   1       1.843  83.390 111.610  0.00  0.00     0.091 C 
ENDROOT
BRANCH   1   7
ATOM      7  O   LIG d   1       3.526  81.609 111.613  0.00  0.00    -0.368 OA
BRANCH   7   8
ATOM      8  C   LIG d   1       3.466  81.502 110.170  0.00  0.00     0.119 C 
BRANCH   8   9
ATOM      9  C   LIG d   1       3.596  80.009 109.810  0.00  0.00     0.028 C 
ATOM     10  C   LIG d   1       2.332  79.457 109.131  0.00  0.00     0.006 C 
ENDBRANCH   8   9
BRANCH   8  11
ATOM     11  C   LIG d   1       4.667  82.185 109.510  0.00  0.00     0.028 C 
ATOM     12  C   LIG d   1       4.555  82.238 107.978  0.00  0.00     0.006 C 
ENDBRANCH   8  11
ENDBRANCH   7   8
ENDBRANCH   1   7
BRANCH   6  13
ATOM     13  N   LIG d   1       2.740  84.483 112.067  0.00  0.00    -0.311 N 
ATOM     14  C   LIG d   1       3.049  85.540 111.319  0.00  0.00     0.210 C 
ATOM     15  C   LIG d   1       4.007  86.540 111.975  0.00  0.00     0.109 C 
ATOM     16  O   LIG d   1       2.595  85.762 110.186  0.00  0.00    -0.276 OA
ATOM     17  H   LIG d   1       3.129  84.399 112.987  0.00  0.00     0.149 HD
ENDBRANCH   6  13
BRANCH   5  18
ATOM     18  N   LIG d   1      -0.174  84.853 111.228  0.00  0.00     0.381 N 
ATOM     19  H   LIG d   1      -0.369  84.619 110.275  0.00  0.00    -0.090 HD
ATOM     20  H   LIG d   1       0.522  85.578 111.238  0.00  0.00    -0.090 HD
ATOM     21  H   LIG d   1      -1.004  85.173 111.676  0.00  0.00    -0.090 HD
ENDBRANCH   5  18
BRANCH   3  22
ATOM     22  C   LIG d   1      -0.906  80.235 112.266  0.00  0.00     0.382 C 
ATOM     23  O   LIG d   1      -0.502  79.059 112.430  0.00  0.00    -0.241 OA
ATOM     24  O   LIG d   1      -2.128  80.473 112.286  0.00  0.00    -0.241 OA
ENDBRANCH   3  22
TORSDOF 7
ENDMDL
MODEL 7
REMARK VINA RESULT:      -5.8      2.666      4.804
REMARK  7 active torsions:
REMARK  status: ('A' for Active; 'I' for Inactive)
REMARK    1  A    between atoms: C_2  and  C_3 
REMARK    2  A    between atoms: C_3  and  O_6 
REMARK    3  A    between atoms: C_3  and  C_4 
REMARK    4  A    between atoms: C_7  and  O_6 
REMARK    5  A    between atoms: C_9  and  C_10 
REMARK    6  A    between atoms: N_15  and  C_14 
REMARK    7  A    between atoms: N_20  and  C_19 
REMARK       I    between atoms: C_22  and  N_20 
ROOT
ATOM      1  C   LIG d   1       2.763  83.763 111.592  0.00  0.00     0.161 C 
ATOM      2  C   LIG d   1       1.730  82.819 111.717  0.00  0.00     0.016 C 
ATOM      3  C   LIG d   1       0.358  83.159 111.681  0.00  0.00     0.038 C 
ATOM      4  C   LIG d   1      -0.077  84.455 111.366  0.00  0.00     0.028 C 
ATOM      5  C   LIG d   1       0.932  85.538 111.731  0.00  0.00    -0.047 C 
ATOM      6  C   LIG d   1       2.308  85.165 111.136  0.00  0.00     0.091 C 
ENDROOT
BRANCH   1   7
ATOM      7  O   LIG d   1       3.784  83.255 110.709  0.00  0.00    -0.368 OA
BRANCH   7   8
ATOM      8  C   LIG d   1       3.348  82.296 109.716  0.00  0.00     0.119 C 
BRANCH   8   9
ATOM      9  C   LIG d   1       4.446  81.221 109.596  0.00  0.00     0.028 C 
ATOM     10  C   LIG d   1       3.867  79.805 109.438  0.00  0.00     0.006 C 
ENDBRANCH   8   9
BRANCH   8  11
ATOM     11  C   LIG d   1       3.253  82.935 108.327  0.00  0.00     0.028 C 
ATOM     12  C   LIG d   1       1.831  83.408 107.985  0.00  0.00     0.006 C 
ENDBRANCH   8  11
ENDBRANCH   7   8
ENDBRANCH   1   7
BRANCH   6  13
ATOM     13  N   LIG d   1       3.372  86.129 111.518  0.00  0.00    -0.311 N 
ATOM     14  C   LIG d   1       3.456  86.689 112.723  0.00  0.00     0.210 C 
ATOM     15  C   LIG d   1       4.618  87.672 112.901  0.00  0.00     0.109 C 
ATOM     16  O   LIG d   1       2.697  86.441 113.672  0.00  0.00    -0.276 OA
ATOM     17  H   LIG d   1       4.048  86.363 110.817  0.00  0.00     0.149 HD
ENDBRANCH   6  13
BRANCH   5  18
ATOM     18  N   LIG d   1       0.411  86.822 111.223  0.00  0.00     0.381 N 
ATOM     19  H   LIG d   1      -0.352  86.654 110.598  0.00  0.00    -0.090 HD
ATOM     20  H   LIG d   1       1.140  87.289 110.714  0.00  0.00    -0.090 HD
ATOM     21  H   LIG d   1       0.108  87.392 111.983  0.00  0.00    -0.090 HD
ENDBRANCH   5  18
BRANCH   3  22
ATOM     22  C   LIG d   1      -0.595  82.205 112.003  0.00  0.00     0.382 C 
ATOM     23  O   LIG d   1      -0.526  81.056 111.503  0.00  0.00    -0.241 OA
ATOM     24  O   LIG d   1      -1.548  82.491 112.753  0.00  0.00    -0.241 OA
ENDBRANCH   3  22
TORSDOF 7
ENDMDL
MODEL 8
REMARK VINA RESULT:      -5.8      2.435      5.704
REMARK  7 active torsions:
REMARK  status: ('A' for Active; 'I' for Inactive)
REMARK    1  A    between atoms: C_2  and  C_3 
REMARK    2  A    between atoms: C_3  and  O_6 
REMARK    3  A    between atoms: C_3  and  C_4 
REMARK    4  A    between atoms: C_7  and  O_6 
REMARK    5  A    between atoms: C_9  and  C_10 
REMARK    6  A    between atoms: N_15  and  C_14 
REMARK    7  A    between atoms: N_20  and  C_19 
REMARK       I    between atoms: C_22  and  N_20 
ROOT
ATOM      1  C   LIG d   1       0.626  82.140 110.331  0.00  0.00     0.161 C 
ATOM      2  C   LIG d   1       1.487  81.093 109.963  0.00  0.00     0.016 C 
ATOM      3  C   LIG d   1       2.897  81.204 109.978  0.00  0.00     0.038 C 
ATOM      4  C   LIG d   1       3.547  82.327 110.510  0.00  0.00     0.028 C 
ATOM      5  C   LIG d   1       2.718  83.604 110.423  0.00  0.00    -0.047 C 
ATOM      6  C   LIG d   1       1.317  83.335 111.020  0.00  0.00     0.091 C 
ENDROOT
BRANCH   1   7
ATOM      7  O   LIG d   1      -0.436  81.630 111.161  0.00  0.00    -0.368 OA
BRANCH   7   8
ATOM      8  C   LIG d   1      -0.105  80.488 111.990  0.00  0.00     0.119 C 
BRANCH   8   9
ATOM      9  C   LIG d   1      -1.264  79.480 111.873  0.00  0.00     0.028 C 
ATOM     10  C   LIG d   1      -0.978  78.373 110.844  0.00  0.00     0.006 C 
ENDBRANCH   8   9
BRANCH   8  11
ATOM     11  C   LIG d   1      -0.050  80.873 113.471  0.00  0.00     0.028 C 
ATOM     12  C   LIG d   1      -1.339  80.515 114.228  0.00  0.00     0.006 C 
ENDBRANCH   8  11
ENDBRANCH   7   8
ENDBRANCH   1   7
BRANCH   6  13
ATOM     13  N   LIG d   1       0.414  84.509 110.898  0.00  0.00    -0.311 N 
ATOM     14  C   LIG d   1       0.276  85.430 111.850  0.00  0.00     0.210 C 
ATOM     15  C   LIG d   1      -0.723  86.546 111.530  0.00  0.00     0.109 C 
ATOM     16  O   LIG d   1       0.909  85.445 112.916  0.00  0.00    -0.276 OA
ATOM     17  H   LIG d   1      -0.115  84.592 110.051  0.00  0.00     0.149 HD
ENDBRANCH   6  13
BRANCH   5  18
ATOM     18  N   LIG d   1       3.456  84.664 111.136  0.00  0.00     0.381 N 
ATOM     19  H   LIG d   1       3.280  84.597 112.118  0.00  0.00    -0.090 HD
ATOM     20  H   LIG d   1       3.128  85.559 110.817  0.00  0.00    -0.090 HD
ATOM     21  H   LIG d   1       4.432  84.578 110.958  0.00  0.00    -0.090 HD
ENDBRANCH   5  18
BRANCH   3  22
ATOM     22  C   LIG d   1       3.671  80.198 109.419  0.00  0.00     0.382 C 
ATOM     23  O   LIG d   1       3.163  79.077 109.179  0.00  0.00    -0.241 OA
ATOM     24  O   LIG d   1       4.882  80.384 109.194  0.00  0.00    -0.241 OA
ENDBRANCH   3  22
TORSDOF 7
ENDMDL
MODEL 9
REMARK VINA RESULT:      -5.8      2.212      4.945
REMARK  7 active torsions:
REMARK  status: ('A' for Active; 'I' for Inactive)
REMARK    1  A    between atoms: C_2  and  C_3 
REMARK    2  A    between atoms: C_3  and  O_6 
REMARK    3  A    between atoms: C_3  and  C_4 
REMARK    4  A    between atoms: C_7  and  O_6 
REMARK    5  A    between atoms: C_9  and  C_10 
REMARK    6  A    between atoms: N_15  and  C_14 
REMARK    7  A    between atoms: N_20  and  C_19 
REMARK       I    between atoms: C_22  and  N_20 
ROOT
ATOM      1  C   LIG d   1       1.462  82.746 110.048  0.00  0.00     0.161 C 
ATOM      2  C   LIG d   1       1.678  84.119 110.252  0.00  0.00     0.016 C 
ATOM      3  C   LIG d   1       0.973  84.883 111.211  0.00  0.00     0.038 C 
ATOM      4  C   LIG d   1       0.106  84.289 112.140  0.00  0.00     0.028 C 
ATOM      5  C   LIG d   1      -0.520  82.991 111.642  0.00  0.00    -0.047 C 
ATOM      6  C   LIG d   1       0.601  82.058 111.128  0.00  0.00     0.091 C 
ENDROOT
BRANCH   1   7
ATOM      7  O   LIG d   1       2.727  82.068 109.910  0.00  0.00    -0.368 OA
BRANCH   7   8
ATOM      8  C   LIG d   1       2.993  81.472 108.616  0.00  0.00     0.119 C 
BRANCH   8   9
ATOM      9  C   LIG d   1       2.996  79.942 108.803  0.00  0.00     0.028 C 
ATOM     10  C   LIG d   1       1.933  79.243 107.940  0.00  0.00     0.006 C 
ENDBRANCH   8   9
BRANCH   8  11
ATOM     11  C   LIG d   1       4.398  81.823 108.119  0.00  0.00     0.028 C 
ATOM     12  C   LIG d   1       5.193  82.667 109.128  0.00  0.00     0.006 C 
ENDBRANCH   8  11
ENDBRANCH   7   8
ENDBRANCH   1   7
BRANCH   6  13
ATOM     13  N   LIG d   1       0.067  80.800 110.544  0.00  0.00    -0.311 N 
ATOM     14  C   LIG d   1      -0.131  79.690 111.252  0.00  0.00     0.210 C 
ATOM     15  C   LIG d   1      -0.668  78.499 110.452  0.00  0.00     0.109 C 
ATOM     16  O   LIG d   1       0.057  79.587 112.474  0.00  0.00    -0.276 OA
ATOM     17  H   LIG d   1      -0.142  80.804 109.565  0.00  0.00     0.149 HD
ENDBRANCH   6  13
BRANCH   5  18
ATOM     18  N   LIG d   1      -1.290  82.410 112.758  0.00  0.00     0.381 N 
ATOM     19  H   LIG d   1      -2.201  82.821 112.791  0.00  0.00    -0.090 HD
ATOM     20  H   LIG d   1      -0.818  82.617 113.620  0.00  0.00    -0.090 HD
ATOM     21  H   LIG d   1      -1.367  81.423 112.641  0.00  0.00    -0.090 HD
ENDBRANCH   5  18
BRANCH   3  22
ATOM     22  C   LIG d   1       1.103  86.263 111.220  0.00  0.00     0.382 C 
ATOM     23  O   LIG d   1       0.132  86.982 111.557  0.00  0.00    -0.241 OA
ATOM     24  O   LIG d   1       2.165  86.800 110.852  0.00  0.00    -0.241 OA
ENDBRANCH   3  22
TORSDOF 7
ENDMDL
