MODEL 1
REMARK VINA RESULT:      -6.6      0.000      0.000
REMARK  7 active torsions:
REMARK  status: ('A' for Active; 'I' for Inactive)
REMARK    1  A    between atoms: C_2  and  C_3 
REMARK    2  A    between atoms: C_3  and  O_6 
REMARK    3  A    between atoms: C_3  and  C_4 
REMARK    4  A    between atoms: C_7  and  O_6 
REMARK    5  A    between atoms: C_9  and  C_10 
REMARK    6  A    between atoms: N_15  and  C_14 
REMARK    7  A    between atoms: N_20  and  C_19 
REMARK       I    between atoms: C_22  and  N_20 
ROOT
ATOM      1  C   LIG d   1       1.565  82.853 111.589  0.00  0.00     0.161 C 
ATOM      2  C   LIG d   1       2.538  82.536 110.626  0.00  0.00     0.016 C 
ATOM      3  C   LIG d   1       2.523  81.342 109.869  0.00  0.00     0.038 C 
ATOM      4  C   LIG d   1       1.444  80.447 109.916  0.00  0.00     0.028 C 
ATOM      5  C   LIG d   1       0.689  80.478 111.241  0.00  0.00    -0.047 C 
ATOM      6  C   LIG d   1       0.320  81.941 111.574  0.00  0.00     0.091 C 
ENDROOT
BRANCH   1   7
ATOM      7  O   LIG d   1       1.175  84.234 111.453  0.00  0.00    -0.368 OA
BRANCH   7   8
ATOM      8  C   LIG d   1       1.817  84.976 110.387  0.00  0.00     0.119 C 
BRANCH   8   9
ATOM      9  C   LIG d   1       2.506  86.199 111.024  0.00  0.00     0.028 C 
ATOM     10  C   LIG d   1       4.011  85.974 111.249  0.00  0.00     0.006 C 
ENDBRANCH   8   9
BRANCH   8  11
ATOM     11  C   LIG d   1       0.788  85.553 109.411  0.00  0.00     0.028 C 
ATOM     12  C   LIG d   1      -0.633  85.588 109.996  0.00  0.00     0.006 C 
ENDBRANCH   8  11
ENDBRANCH   7   8
ENDBRANCH   1   7
BRANCH   6  13
ATOM     13  N   LIG d   1      -0.347  82.070 112.896  0.00  0.00    -0.311 N 
ATOM     14  C   LIG d   1      -1.669  82.028 113.058  0.00  0.00     0.210 C 
ATOM     15  C   LIG d   1      -2.149  82.201 114.502  0.00  0.00     0.109 C 
ATOM     16  O   LIG d   1      -2.487  81.831 112.147  0.00  0.00    -0.276 OA
ATOM     17  H   LIG d   1       0.243  82.202 113.694  0.00  0.00     0.149 HD
ENDBRANCH   6  13
BRANCH   5  18
ATOM     18  N   LIG d   1      -0.489  79.601 111.103  0.00  0.00     0.381 N 
ATOM     19  H   LIG d   1      -1.124  79.766 111.858  0.00  0.00    -0.090 HD
ATOM     20  H   LIG d   1      -0.188  78.643 111.147  0.00  0.00    -0.090 HD
ATOM     21  H   LIG d   1      -0.943  79.775 110.233  0.00  0.00    -0.090 HD
ENDBRANCH   5  18
BRANCH   3  22
ATOM     22  C   LIG d   1       3.617  81.014 109.082  0.00  0.00     0.382 C 
ATOM     23  O   LIG d   1       4.250  79.953 109.300  0.00  0.00    -0.241 OA
ATOM     24  O   LIG d   1       4.006  81.788 108.187  0.00  0.00    -0.241 OA
ENDBRANCH   3  22
TORSDOF 7
ENDMDL
MODEL 2
REMARK VINA RESULT:      -5.9      1.588      4.908
REMARK  7 active torsions:
REMARK  status: ('A' for Active; 'I' for Inactive)
REMARK    1  A    between atoms: C_2  and  C_3 
REMARK    2  A    between atoms: C_3  and  O_6 
REMARK    3  A    between atoms: C_3  and  C_4 
REMARK    4  A    between atoms: C_7  and  O_6 
REMARK    5  A    between atoms: C_9  and  C_10 
REMARK    6  A    between atoms: N_15  and  C_14 
REMARK    7  A    between atoms: N_20  and  C_19 
REMARK       I    between atoms: C_22  and  N_20 
ROOT
ATOM      1  C   LIG d   1       0.606  82.772 111.323  0.00  0.00     0.161 C 
ATOM      2  C   LIG d   1      -0.528  82.542 112.120  0.00  0.00     0.016 C 
ATOM      3  C   LIG d   1      -1.148  81.277 112.244  0.00  0.00     0.038 C 
ATOM      4  C   LIG d   1      -0.582  80.117 111.694  0.00  0.00     0.028 C 
ATOM      5  C   LIG d   1       0.280  80.387 110.466  0.00  0.00    -0.047 C 
ATOM      6  C   LIG d   1       1.302  81.496 110.804  0.00  0.00     0.091 C 
ENDROOT
BRANCH   1   7
ATOM      7  O   LIG d   1       1.545  83.600 112.037  0.00  0.00    -0.368 OA
BRANCH   7   8
ATOM      8  C   LIG d   1       1.705  84.953 111.544  0.00  0.00     0.119 C 
BRANCH   8   9
ATOM      9  C   LIG d   1       0.657  85.169 110.434  0.00  0.00     0.028 C 
ATOM     10  C   LIG d   1      -0.503  86.069 110.890  0.00  0.00     0.006 C 
ENDBRANCH   8   9
BRANCH   8  11
ATOM     11  C   LIG d   1       3.063  85.141 110.861  0.00  0.00     0.028 C 
ATOM     12  C   LIG d   1       3.953  86.169 111.577  0.00  0.00     0.006 C 
ENDBRANCH   8  11
ENDBRANCH   7   8
ENDBRANCH   1   7
BRANCH   6  13
ATOM     13  N   LIG d   1       2.130  81.881 109.632  0.00  0.00    -0.311 N 
ATOM     14  C   LIG d   1       3.458  81.776 109.605  0.00  0.00     0.210 C 
ATOM     15  C   LIG d   1       4.118  82.247 108.306  0.00  0.00     0.109 C 
ATOM     16  O   LIG d   1       4.148  81.308 110.523  0.00  0.00    -0.276 OA
ATOM     17  H   LIG d   1       1.648  82.242 108.831  0.00  0.00     0.149 HD
ENDBRANCH   6  13
BRANCH   5  18
ATOM     18  N   LIG d   1       0.916  79.114 110.079  0.00  0.00     0.381 N 
ATOM     19  H   LIG d   1       1.505  78.790 110.820  0.00  0.00    -0.090 HD
ATOM     20  H   LIG d   1       1.487  79.269 109.267  0.00  0.00    -0.090 HD
ATOM     21  H   LIG d   1       0.218  78.431 109.878  0.00  0.00    -0.090 HD
ENDBRANCH   5  18
BRANCH   3  22
ATOM     22  C   LIG d   1      -2.369  81.171 112.891  0.00  0.00     0.382 C 
ATOM     23  O   LIG d   1      -3.026  82.205 113.165  0.00  0.00    -0.241 OA
ATOM     24  O   LIG d   1      -2.802  80.058 113.245  0.00  0.00    -0.241 OA
ENDBRANCH   3  22
TORSDOF 7
ENDMDL
MODEL 3
REMARK VINA RESULT:      -5.9      2.486      5.403
REMARK  7 active torsions:
REMARK  status: ('A' for Active; 'I' for Inactive)
REMARK    1  A    between atoms: C_2  and  C_3 
REMARK    2  A    between atoms: C_3  and  O_6 
REMARK    3  A    between atoms: C_3  and  C_4 
REMARK    4  A    between atoms: C_7  and  O_6 
REMARK    5  A    between atoms: C_9  and  C_10 
REMARK    6  A    between atoms: N_15  and  C_14 
REMARK    7  A    between atoms: N_20  and  C_19 
REMARK       I    between atoms: C_22  and  N_20 
ROOT
ATOM      1  C   LIG d   1       2.038  85.280 110.464  0.00  0.00     0.161 C 
ATOM      2  C   LIG d   1       0.992  86.003 111.063  0.00  0.00     0.016 C 
ATOM      3  C   LIG d   1      -0.177  85.398 111.578  0.00  0.00     0.038 C 
ATOM      4  C   LIG d   1      -0.314  84.004 111.666  0.00  0.00     0.028 C 
ATOM      5  C   LIG d   1       0.494  83.249 110.615  0.00  0.00    -0.047 C 
ATOM      6  C   LIG d   1       1.956  83.750 110.651  0.00  0.00     0.091 C 
ENDROOT
BRANCH   1   7
ATOM      7  O   LIG d   1       3.307  85.775 110.935  0.00  0.00    -0.368 OA
BRANCH   7   8
ATOM      8  C   LIG d   1       3.391  86.067 112.352  0.00  0.00     0.119 C 
BRANCH   8   9
ATOM      9  C   LIG d   1       4.355  87.257 112.523  0.00  0.00     0.028 C 
ATOM     10  C   LIG d   1       3.805  88.326 113.482  0.00  0.00     0.006 C 
ENDBRANCH   8   9
BRANCH   8  11
ATOM     11  C   LIG d   1       4.034  84.910 113.122  0.00  0.00     0.028 C 
ATOM     12  C   LIG d   1       3.414  84.704 114.513  0.00  0.00     0.006 C 
ENDBRANCH   8  11
ENDBRANCH   7   8
ENDBRANCH   1   7
BRANCH   6  13
ATOM     13  N   LIG d   1       2.796  83.123 109.597  0.00  0.00    -0.311 N 
ATOM     14  C   LIG d   1       3.594  82.080 109.820  0.00  0.00     0.210 C 
ATOM     15  C   LIG d   1       4.388  81.602 108.601  0.00  0.00     0.109 C 
ATOM     16  O   LIG d   1       3.694  81.486 110.904  0.00  0.00    -0.276 OA
ATOM     17  H   LIG d   1       2.752  83.523 108.681  0.00  0.00     0.149 HD
ENDBRANCH   6  13
BRANCH   5  18
ATOM     18  N   LIG d   1       0.370  81.809 110.908  0.00  0.00     0.381 N 
ATOM     19  H   LIG d   1      -0.402  81.425 110.399  0.00  0.00    -0.090 HD
ATOM     20  H   LIG d   1       0.190  81.691 111.890  0.00  0.00    -0.090 HD
ATOM     21  H   LIG d   1       1.210  81.336 110.658  0.00  0.00    -0.090 HD
ENDBRANCH   5  18
BRANCH   3  22
ATOM     22  C   LIG d   1      -1.243  86.190 111.976  0.00  0.00     0.382 C 
ATOM     23  O   LIG d   1      -1.742  87.018 111.176  0.00  0.00    -0.241 OA
ATOM     24  O   LIG d   1      -1.683  86.119 113.139  0.00  0.00    -0.241 OA
ENDBRANCH   3  22
TORSDOF 7
ENDMDL
MODEL 4
REMARK VINA RESULT:      -5.6      3.369      5.864
REMARK  7 active torsions:
REMARK  status: ('A' for Active; 'I' for Inactive)
REMARK    1  A    between atoms: C_2  and  C_3 
REMARK    2  A    between atoms: C_3  and  O_6 
REMARK    3  A    between atoms: C_3  and  C_4 
REMARK    4  A    between atoms: C_7  and  O_6 
REMARK    5  A    between atoms: C_9  and  C_10 
REMARK    6  A    between atoms: N_15  and  C_14 
REMARK    7  A    between atoms: N_20  and  C_19 
REMARK       I    between atoms: C_22  and  N_20 
ROOT
ATOM      1  C   LIG d   1       3.190  85.582 112.407  0.00  0.00     0.161 C 
ATOM      2  C   LIG d   1       3.967  86.749 112.323  0.00  0.00     0.016 C 
ATOM      3  C   LIG d   1       4.024  87.722 113.348  0.00  0.00     0.038 C 
ATOM      4  C   LIG d   1       3.423  87.517 114.598  0.00  0.00     0.028 C 
ATOM      5  C   LIG d   1       2.215  86.587 114.545  0.00  0.00    -0.047 C 
ATOM      6  C   LIG d   1       2.615  85.288 113.809  0.00  0.00     0.091 C 
ENDROOT
BRANCH   1   7
ATOM      7  O   LIG d   1       3.950  84.454 111.931  0.00  0.00    -0.368 OA
BRANCH   7   8
ATOM      8  C   LIG d   1       3.362  83.703 110.840  0.00  0.00     0.119 C 
BRANCH   8   9
ATOM      9  C   LIG d   1       4.486  83.392 109.833  0.00  0.00     0.028 C 
ATOM     10  C   LIG d   1       4.447  81.935 109.341  0.00  0.00     0.006 C 
ENDBRANCH   8   9
BRANCH   8  11
ATOM     11  C   LIG d   1       2.347  84.549 110.066  0.00  0.00     0.028 C 
ATOM     12  C   LIG d   1       1.116  83.743 109.621  0.00  0.00     0.006 C 
ENDBRANCH   8  11
ENDBRANCH   7   8
ENDBRANCH   1   7
BRANCH   6  13
ATOM     13  N   LIG d   1       1.469  84.357 113.638  0.00  0.00    -0.311 N 
ATOM     14  C   LIG d   1       0.295  84.726 113.128  0.00  0.00     0.210 C 
ATOM     15  C   LIG d   1      -0.758  83.615 113.059  0.00  0.00     0.109 C 
ATOM     16  O   LIG d   1       0.036  85.859 112.696  0.00  0.00    -0.276 OA
ATOM     17  H   LIG d   1       1.602  83.410 113.934  0.00  0.00     0.149 HD
ENDBRANCH   6  13
BRANCH   5  18
ATOM     18  N   LIG d   1       1.772  86.352 115.932  0.00  0.00     0.381 N 
ATOM     19  H   LIG d   1       1.505  85.395 116.045  0.00  0.00    -0.090 HD
ATOM     20  H   LIG d   1       0.969  86.928 116.118  0.00  0.00    -0.090 HD
ATOM     21  H   LIG d   1       2.505  86.578 116.567  0.00  0.00    -0.090 HD
ENDBRANCH   5  18
BRANCH   3  22
ATOM     22  C   LIG d   1       4.657  88.933 113.111  0.00  0.00     0.382 C 
ATOM     23  O   LIG d   1       4.015  90.006 113.212  0.00  0.00    -0.241 OA
ATOM     24  O   LIG d   1       5.850  88.963 112.756  0.00  0.00    -0.241 OA
ENDBRANCH   3  22
TORSDOF 7
ENDMDL
MODEL 5
REMARK VINA RESULT:      -5.4      2.550      4.180
REMARK  7 active torsions:
REMARK  status: ('A' for Active; 'I' for Inactive)
REMARK    1  A    between atoms: C_2  and  C_3 
REMARK    2  A    between atoms: C_3  and  O_6 
REMARK    3  A    between atoms: C_3  and  C_4 
REMARK    4  A    between atoms: C_7  and  O_6 
REMARK    5  A    between atoms: C_9  and  C_10 
REMARK    6  A    between atoms: N_15  and  C_14 
REMARK    7  A    between atoms: N_20  and  C_19 
REMARK       I    between atoms: C_22  and  N_20 
ROOT
ATOM      1  C   LIG d   1       2.382  82.637 112.657  0.00  0.00     0.161 C 
ATOM      2  C   LIG d   1       1.822  81.591 111.904  0.00  0.00     0.016 C 
ATOM      3  C   LIG d   1       0.430  81.423 111.720  0.00  0.00     0.038 C 
ATOM      4  C   LIG d   1      -0.496  82.383 112.154  0.00  0.00     0.028 C 
ATOM      5  C   LIG d   1      -0.013  83.193 113.353  0.00  0.00    -0.047 C 
ATOM      6  C   LIG d   1       1.393  83.756 113.044  0.00  0.00     0.091 C 
ENDROOT
BRANCH   1   7
ATOM      7  O   LIG d   1       3.515  83.189 111.958  0.00  0.00    -0.368 OA
BRANCH   7   8
ATOM      8  C   LIG d   1       3.285  83.586 110.584  0.00  0.00     0.119 C 
BRANCH   8   9
ATOM      9  C   LIG d   1       4.465  83.057 109.746  0.00  0.00     0.028 C 
ATOM     10  C   LIG d   1       4.011  82.106 108.626  0.00  0.00     0.006 C 
ENDBRANCH   8   9
BRANCH   8  11
ATOM     11  C   LIG d   1       3.327  85.109 110.429  0.00  0.00     0.028 C 
ATOM     12  C   LIG d   1       4.223  85.790 111.475  0.00  0.00     0.006 C 
ENDBRANCH   8  11
ENDBRANCH   7   8
ENDBRANCH   1   7
BRANCH   6  13
ATOM     13  N   LIG d   1       1.975  84.491 114.198  0.00  0.00    -0.311 N 
ATOM     14  C   LIG d   1       1.869  85.809 114.356  0.00  0.00     0.210 C 
ATOM     15  C   LIG d   1       2.559  86.368 115.604  0.00  0.00     0.109 C 
ATOM     16  O   LIG d   1       1.243  86.564 113.598  0.00  0.00    -0.276 OA
ATOM     17  H   LIG d   1       2.474  83.951 114.878  0.00  0.00     0.149 HD
ENDBRANCH   6  13
BRANCH   5  18
ATOM     18  N   LIG d   1      -1.014  84.245 113.612  0.00  0.00     0.381 N 
ATOM     19  H   LIG d   1      -1.645  84.310 112.839  0.00  0.00    -0.090 HD
ATOM     20  H   LIG d   1      -0.541  85.126 113.709  0.00  0.00    -0.090 HD
ATOM     21  H   LIG d   1      -1.519  84.037 114.446  0.00  0.00    -0.090 HD
ENDBRANCH   5  18
BRANCH   3  22
ATOM     22  C   LIG d   1      -0.050  80.264 111.130  0.00  0.00     0.382 C 
ATOM     23  O   LIG d   1       0.423  79.875 110.036  0.00  0.00    -0.241 OA
ATOM     24  O   LIG d   1      -0.981  79.626 111.657  0.00  0.00    -0.241 OA
ENDBRANCH   3  22
TORSDOF 7
ENDMDL
MODEL 6
REMARK VINA RESULT:      -5.4      3.679      6.606
REMARK  7 active torsions:
REMARK  status: ('A' for Active; 'I' for Inactive)
REMARK    1  A    between atoms: C_2  and  C_3 
REMARK    2  A    between atoms: C_3  and  O_6 
REMARK    3  A    between atoms: C_3  and  C_4 
REMARK    4  A    between atoms: C_7  and  O_6 
REMARK    5  A    between atoms: C_9  and  C_10 
REMARK    6  A    between atoms: N_15  and  C_14 
REMARK    7  A    between atoms: N_20  and  C_19 
REMARK       I    between atoms: C_22  and  N_20 
ROOT
ATOM      1  C   LIG d   1       2.479  85.554 112.834  0.00  0.00     0.161 C 
ATOM      2  C   LIG d   1       1.366  84.759 113.156  0.00  0.00     0.016 C 
ATOM      3  C   LIG d   1       0.506  85.029 114.246  0.00  0.00     0.038 C 
ATOM      4  C   LIG d   1       0.614  86.206 115.001  0.00  0.00     0.028 C 
ATOM      5  C   LIG d   1       2.027  86.781 115.029  0.00  0.00    -0.047 C 
ATOM      6  C   LIG d   1       2.548  86.903 113.579  0.00  0.00     0.091 C 
ENDROOT
BRANCH   1   7
ATOM      7  O   LIG d   1       2.533  85.764 111.410  0.00  0.00    -0.368 OA
BRANCH   7   8
ATOM      8  C   LIG d   1       1.733  84.867 110.602  0.00  0.00     0.119 C 
BRANCH   8   9
ATOM      9  C   LIG d   1       2.702  84.008 109.766  0.00  0.00     0.028 C 
ATOM     10  C   LIG d   1       2.354  82.511 109.820  0.00  0.00     0.006 C 
ENDBRANCH   8   9
BRANCH   8  11
ATOM     11  C   LIG d   1       0.891  85.637 109.580  0.00  0.00     0.028 C 
ATOM     12  C   LIG d   1      -0.611  85.610 109.905  0.00  0.00     0.006 C 
ENDBRANCH   8  11
ENDBRANCH   7   8
ENDBRANCH   1   7
BRANCH   6  13
ATOM     13  N   LIG d   1       3.955  87.378 113.521  0.00  0.00    -0.311 N 
ATOM     14  C   LIG d   1       4.291  88.652 113.327  0.00  0.00     0.210 C 
ATOM     15  C   LIG d   1       5.798  88.924 113.281  0.00  0.00     0.109 C 
ATOM     16  O   LIG d   1       3.484  89.588 113.222  0.00  0.00    -0.276 OA
ATOM     17  H   LIG d   1       4.674  86.689 113.628  0.00  0.00     0.149 HD
ENDBRANCH   6  13
BRANCH   5  18
ATOM     18  N   LIG d   1       1.967  88.075 115.734  0.00  0.00     0.381 N 
ATOM     19  H   LIG d   1       1.853  88.816 115.071  0.00  0.00    -0.090 HD
ATOM     20  H   LIG d   1       2.834  88.220 116.222  0.00  0.00    -0.090 HD
ATOM     21  H   LIG d   1       1.209  88.078 116.380  0.00  0.00    -0.090 HD
ENDBRANCH   5  18
BRANCH   3  22
ATOM     22  C   LIG d   1      -0.451  84.096 114.614  0.00  0.00     0.382 C 
ATOM     23  O   LIG d   1      -1.572  84.093 114.051  0.00  0.00    -0.241 OA
ATOM     24  O   LIG d   1      -0.223  83.285 115.531  0.00  0.00    -0.241 OA
ENDBRANCH   3  22
TORSDOF 7
ENDMDL
MODEL 7
REMARK VINA RESULT:      -5.3      2.822      5.030
REMARK  7 active torsions:
REMARK  status: ('A' for Active; 'I' for Inactive)
REMARK    1  A    between atoms: C_2  and  C_3 
REMARK    2  A    between atoms: C_3  and  O_6 
REMARK    3  A    between atoms: C_3  and  C_4 
REMARK    4  A    between atoms: C_7  and  O_6 
REMARK    5  A    between atoms: C_9  and  C_10 
REMARK    6  A    between atoms: N_15  and  C_14 
REMARK    7  A    between atoms: N_20  and  C_19 
REMARK       I    between atoms: C_22  and  N_20 
ROOT
ATOM      1  C   LIG d   1       1.433  83.717 112.435  0.00  0.00     0.161 C 
ATOM      2  C   LIG d   1       0.391  82.842 112.083  0.00  0.00     0.016 C 
ATOM      3  C   LIG d   1      -0.818  82.740 112.809  0.00  0.00     0.038 C 
ATOM      4  C   LIG d   1      -1.131  83.621 113.855  0.00  0.00     0.028 C 
ATOM      5  C   LIG d   1       0.097  84.181 114.563  0.00  0.00    -0.047 C 
ATOM      6  C   LIG d   1       1.064  84.763 113.507  0.00  0.00     0.091 C 
ENDROOT
BRANCH   1   7
ATOM      7  O   LIG d   1       1.944  84.367 111.255  0.00  0.00    -0.368 OA
BRANCH   7   8
ATOM      8  C   LIG d   1       1.588  83.761 109.988  0.00  0.00     0.119 C 
BRANCH   8   9
ATOM      9  C   LIG d   1       2.897  83.349 109.287  0.00  0.00     0.028 C 
ATOM     10  C   LIG d   1       3.369  81.946 109.703  0.00  0.00     0.006 C 
ENDBRANCH   8   9
BRANCH   8  11
ATOM     11  C   LIG d   1       0.928  84.776 109.050  0.00  0.00     0.028 C 
ATOM     12  C   LIG d   1      -0.142  85.628 109.752  0.00  0.00     0.006 C 
ENDBRANCH   8  11
ENDBRANCH   7   8
ENDBRANCH   1   7
BRANCH   6  13
ATOM     13  N   LIG d   1       2.330  85.257 114.108  0.00  0.00    -0.311 N 
ATOM     14  C   LIG d   1       2.727  86.527 114.041  0.00  0.00     0.210 C 
ATOM     15  C   LIG d   1       4.074  86.819 114.710  0.00  0.00     0.109 C 
ATOM     16  O   LIG d   1       2.077  87.445 113.520  0.00  0.00    -0.276 OA
ATOM     17  H   LIG d   1       2.904  84.585 114.578  0.00  0.00     0.149 HD
ENDBRANCH   6  13
BRANCH   5  18
ATOM     18  N   LIG d   1      -0.369  85.186 115.537  0.00  0.00     0.381 N 
ATOM     19  H   LIG d   1       0.393  85.775 115.807  0.00  0.00    -0.090 HD
ATOM     20  H   LIG d   1      -0.708  84.713 116.356  0.00  0.00    -0.090 HD
ATOM     21  H   LIG d   1      -1.098  85.736 115.137  0.00  0.00    -0.090 HD
ENDBRANCH   5  18
BRANCH   3  22
ATOM     22  C   LIG d   1      -1.712  81.722 112.515  0.00  0.00     0.382 C 
ATOM     23  O   LIG d   1      -1.309  80.677 111.949  0.00  0.00    -0.241 OA
ATOM     24  O   LIG d   1      -2.925  81.853 112.768  0.00  0.00    -0.241 OA
ENDBRANCH   3  22
TORSDOF 7
ENDMDL
MODEL 8
REMARK VINA RESULT:      -5.3      2.464      4.881
REMARK  7 active torsions:
REMARK  status: ('A' for Active; 'I' for Inactive)
REMARK    1  A    between atoms: C_2  and  C_3 
REMARK    2  A    between atoms: C_3  and  O_6 
REMARK    3  A    between atoms: C_3  and  C_4 
REMARK    4  A    between atoms: C_7  and  O_6 
REMARK    5  A    between atoms: C_9  and  C_10 
REMARK    6  A    between atoms: N_15  and  C_14 
REMARK    7  A    between atoms: N_20  and  C_19 
REMARK       I    between atoms: C_22  and  N_20 
ROOT
ATOM      1  C   LIG d   1       0.986  85.201 111.279  0.00  0.00     0.161 C 
ATOM      2  C   LIG d   1       1.871  86.284 111.402  0.00  0.00     0.016 C 
ATOM      3  C   LIG d   1       2.424  86.701 112.635  0.00  0.00     0.038 C 
ATOM      4  C   LIG d   1       2.247  85.962 113.814  0.00  0.00     0.028 C 
ATOM      5  C   LIG d   1       0.955  85.152 113.833  0.00  0.00    -0.047 C 
ATOM      6  C   LIG d   1       0.868  84.315 112.537  0.00  0.00     0.091 C 
ENDROOT
BRANCH   1   7
ATOM      7  O   LIG d   1       1.348  84.401 110.135  0.00  0.00    -0.368 OA
BRANCH   7   8
ATOM      8  C   LIG d   1       2.322  83.355 110.372  0.00  0.00     0.119 C 
BRANCH   8   9
ATOM      9  C   LIG d   1       3.697  83.895 109.934  0.00  0.00     0.028 C 
ATOM     10  C   LIG d   1       4.610  82.792 109.373  0.00  0.00     0.006 C 
ENDBRANCH   8   9
BRANCH   8  11
ATOM     11  C   LIG d   1       2.061  82.139 109.479  0.00  0.00     0.028 C 
ATOM     12  C   LIG d   1       1.524  80.930 110.262  0.00  0.00     0.006 C 
ENDBRANCH   8  11
ENDBRANCH   7   8
ENDBRANCH   1   7
BRANCH   6  13
ATOM     13  N   LIG d   1      -0.406  83.556 112.436  0.00  0.00    -0.311 N 
ATOM     14  C   LIG d   1      -0.563  82.321 112.908  0.00  0.00     0.210 C 
ATOM     15  C   LIG d   1      -1.951  81.714 112.681  0.00  0.00     0.109 C 
ATOM     16  O   LIG d   1       0.305  81.682 113.521  0.00  0.00    -0.276 OA
ATOM     17  H   LIG d   1      -1.173  84.011 111.980  0.00  0.00     0.149 HD
ENDBRANCH   6  13
BRANCH   5  18
ATOM     18  N   LIG d   1       0.965  84.326 115.055  0.00  0.00     0.381 N 
ATOM     19  H   LIG d   1       1.074  83.362 114.812  0.00  0.00    -0.090 HD
ATOM     20  H   LIG d   1       0.085  84.434 115.528  0.00  0.00    -0.090 HD
ATOM     21  H   LIG d   1       1.709  84.611 115.654  0.00  0.00    -0.090 HD
ENDBRANCH   5  18
BRANCH   3  22
ATOM     22  C   LIG d   1       3.132  87.891 112.704  0.00  0.00     0.382 C 
ATOM     23  O   LIG d   1       2.545  88.952 113.026  0.00  0.00    -0.241 OA
ATOM     24  O   LIG d   1       4.341  87.925 112.404  0.00  0.00    -0.241 OA
ENDBRANCH   3  22
TORSDOF 7
ENDMDL
MODEL 9
REMARK VINA RESULT:      -5.3      2.845      5.076
REMARK  7 active torsions:
REMARK  status: ('A' for Active; 'I' for Inactive)
REMARK    1  A    between atoms: C_2  and  C_3 
REMARK    2  A    between atoms: C_3  and  O_6 
REMARK    3  A    between atoms: C_3  and  C_4 
REMARK    4  A    between atoms: C_7  and  O_6 
REMARK    5  A    between atoms: C_9  and  C_10 
REMARK    6  A    between atoms: N_15  and  C_14 
REMARK    7  A    between atoms: N_20  and  C_19 
REMARK       I    between atoms: C_22  and  N_20 
ROOT
ATOM      1  C   LIG d   1       1.803  83.521 112.104  0.00  0.00     0.161 C 
ATOM      2  C   LIG d   1       1.028  84.402 111.331  0.00  0.00     0.016 C 
ATOM      3  C   LIG d   1      -0.027  85.180 111.861  0.00  0.00     0.038 C 
ATOM      4  C   LIG d   1      -0.283  85.243 113.239  0.00  0.00     0.028 C 
ATOM      5  C   LIG d   1       0.145  83.988 113.992  0.00  0.00    -0.047 C 
ATOM      6  C   LIG d   1       1.611  83.660 113.629  0.00  0.00     0.091 C 
ENDROOT
BRANCH   1   7
ATOM      7  O   LIG d   1       3.195  83.664 111.759  0.00  0.00    -0.368 OA
BRANCH   7   8
ATOM      8  C   LIG d   1       3.475  84.326 110.501  0.00  0.00     0.119 C 
BRANCH   8   9
ATOM      9  C   LIG d   1       4.275  83.341 109.627  0.00  0.00     0.028 C 
ATOM     10  C   LIG d   1       3.382  82.577 108.635  0.00  0.00     0.006 C 
ENDBRANCH   8   9
BRANCH   8  11
ATOM     11  C   LIG d   1       4.397  85.533 110.701  0.00  0.00     0.028 C 
ATOM     12  C   LIG d   1       4.050  86.346 111.957  0.00  0.00     0.006 C 
ENDBRANCH   8  11
ENDBRANCH   7   8
ENDBRANCH   1   7
BRANCH   6  13
ATOM     13  N   LIG d   1       2.082  82.399 114.258  0.00  0.00    -0.311 N 
ATOM     14  C   LIG d   1       3.233  82.296 114.921  0.00  0.00     0.210 C 
ATOM     15  C   LIG d   1       3.537  80.900 115.474  0.00  0.00     0.109 C 
ATOM     16  O   LIG d   1       4.015  83.235 115.132  0.00  0.00    -0.276 OA
ATOM     17  H   LIG d   1       1.494  81.594 114.163  0.00  0.00     0.149 HD
ENDBRANCH   6  13
BRANCH   5  18
ATOM     18  N   LIG d   1      -0.051  84.244 115.431  0.00  0.00     0.381 N 
ATOM     19  H   LIG d   1       0.476  83.584 115.968  0.00  0.00    -0.090 HD
ATOM     20  H   LIG d   1      -1.024  84.126 115.653  0.00  0.00    -0.090 HD
ATOM     21  H   LIG d   1       0.238  85.171 115.656  0.00  0.00    -0.090 HD
ENDBRANCH   5  18
BRANCH   3  22
ATOM     22  C   LIG d   1      -0.866  85.875 111.003  0.00  0.00     0.382 C 
ATOM     23  O   LIG d   1      -0.965  85.524 109.802  0.00  0.00    -0.241 OA
ATOM     24  O   LIG d   1      -1.491  86.875 111.403  0.00  0.00    -0.241 OA
ENDBRANCH   3  22
TORSDOF 7
ENDMDL
