MODEL 1
REMARK VINA RESULT:      -5.9      0.000      0.000
REMARK  7 active torsions:
REMARK  status: ('A' for Active; 'I' for Inactive)
REMARK    1  A    between atoms: C_2  and  C_3 
REMARK    2  A    between atoms: C_3  and  O_6 
REMARK    3  A    between atoms: C_3  and  C_4 
REMARK    4  A    between atoms: C_7  and  O_6 
REMARK    5  A    between atoms: C_9  and  C_10 
REMARK    6  A    between atoms: N_15  and  C_14 
REMARK    7  A    between atoms: N_20  and  C_19 
REMARK       I    between atoms: C_22  and  N_20 
ROOT
ATOM      1  C   LIG d   1      -0.125  58.332 118.296  0.00  0.00     0.161 C 
ATOM      2  C   LIG d   1      -0.187  58.922 117.023  0.00  0.00     0.016 C 
ATOM      3  C   LIG d   1      -1.378  59.021 116.268  0.00  0.00     0.038 C 
ATOM      4  C   LIG d   1      -2.627  58.669 116.803  0.00  0.00     0.028 C 
ATOM      5  C   LIG d   1      -2.541  57.603 117.890  0.00  0.00    -0.047 C 
ATOM      6  C   LIG d   1      -1.496  58.042 118.942  0.00  0.00     0.091 C 
ENDROOT
BRANCH   1   7
ATOM      7  O   LIG d   1       0.680  59.144 119.173  0.00  0.00    -0.368 OA
BRANCH   7   8
ATOM      8  C   LIG d   1       1.960  58.587 119.560  0.00  0.00     0.119 C 
BRANCH   8   9
ATOM      9  C   LIG d   1       3.058  59.485 118.957  0.00  0.00     0.028 C 
ATOM     10  C   LIG d   1       4.115  59.897 119.995  0.00  0.00     0.006 C 
ENDBRANCH   8   9
BRANCH   8  11
ATOM     11  C   LIG d   1       2.179  57.205 118.937  0.00  0.00     0.028 C 
ATOM     12  C   LIG d   1       2.507  56.126 119.980  0.00  0.00     0.006 C 
ENDBRANCH   8  11
ENDBRANCH   7   8
ENDBRANCH   1   7
BRANCH   6  13
ATOM     13  N   LIG d   1      -1.289  57.016 119.997  0.00  0.00    -0.311 N 
ATOM     14  C   LIG d   1      -1.593  57.211 121.279  0.00  0.00     0.210 C 
ATOM     15  C   LIG d   1      -1.281  56.031 122.205  0.00  0.00     0.109 C 
ATOM     16  O   LIG d   1      -2.122  58.237 121.732  0.00  0.00    -0.276 OA
ATOM     17  H   LIG d   1      -0.893  56.142 119.712  0.00  0.00     0.149 HD
ENDBRANCH   6  13
BRANCH   5  18
ATOM     18  N   LIG d   1      -3.893  57.432 118.454  0.00  0.00     0.381 N 
ATOM     19  H   LIG d   1      -4.505  58.132 118.086  0.00  0.00    -0.090 HD
ATOM     20  H   LIG d   1      -3.846  57.546 119.451  0.00  0.00    -0.090 HD
ATOM     21  H   LIG d   1      -4.242  56.525 118.233  0.00  0.00    -0.090 HD
ENDBRANCH   5  18
BRANCH   3  22
ATOM     22  C   LIG d   1      -1.322  59.440 114.947  0.00  0.00     0.382 C 
ATOM     23  O   LIG d   1      -2.370  59.484 114.259  0.00  0.00    -0.241 OA
ATOM     24  O   LIG d   1      -0.231  59.733 114.423  0.00  0.00    -0.241 OA
ENDBRANCH   3  22
TORSDOF 7
ENDMDL
MODEL 2
REMARK VINA RESULT:      -5.7     15.603     16.970
REMARK  7 active torsions:
REMARK  status: ('A' for Active; 'I' for Inactive)
REMARK    1  A    between atoms: C_2  and  C_3 
REMARK    2  A    between atoms: C_3  and  O_6 
REMARK    3  A    between atoms: C_3  and  C_4 
REMARK    4  A    between atoms: C_7  and  O_6 
REMARK    5  A    between atoms: C_9  and  C_10 
REMARK    6  A    between atoms: N_15  and  C_14 
REMARK    7  A    between atoms: N_20  and  C_19 
REMARK       I    between atoms: C_22  and  N_20 
ROOT
ATOM      1  C   LIG d   1      -4.546  74.421 117.696  0.00  0.00     0.161 C 
ATOM      2  C   LIG d   1      -4.700  75.189 116.530  0.00  0.00     0.016 C 
ATOM      3  C   LIG d   1      -3.618  75.579 115.707  0.00  0.00     0.038 C 
ATOM      4  C   LIG d   1      -2.318  75.096 115.914  0.00  0.00     0.028 C 
ATOM      5  C   LIG d   1      -2.031  74.731 117.367  0.00  0.00    -0.047 C 
ATOM      6  C   LIG d   1      -3.149  73.793 117.877  0.00  0.00     0.091 C 
ENDROOT
BRANCH   1   7
ATOM      7  O   LIG d   1      -5.565  73.402 117.748  0.00  0.00    -0.368 OA
BRANCH   7   8
ATOM      8  C   LIG d   1      -6.616  73.501 116.756  0.00  0.00     0.119 C 
BRANCH   8   9
ATOM      9  C   LIG d   1      -7.945  73.705 117.509  0.00  0.00     0.028 C 
ATOM     10  C   LIG d   1      -8.365  75.183 117.567  0.00  0.00     0.006 C 
ENDBRANCH   8   9
BRANCH   8  11
ATOM     11  C   LIG d   1      -6.782  72.186 115.989  0.00  0.00     0.028 C 
ATOM     12  C   LIG d   1      -8.129  71.499 116.268  0.00  0.00     0.006 C 
ENDBRANCH   8  11
ENDBRANCH   7   8
ENDBRANCH   1   7
BRANCH   6  13
ATOM     13  N   LIG d   1      -2.991  73.454 119.316  0.00  0.00    -0.311 N 
ATOM     14  C   LIG d   1      -2.377  72.354 119.747  0.00  0.00     0.210 C 
ATOM     15  C   LIG d   1      -2.342  72.187 121.269  0.00  0.00     0.109 C 
ATOM     16  O   LIG d   1      -1.829  71.516 119.014  0.00  0.00    -0.276 OA
ATOM     17  H   LIG d   1      -3.379  74.095 119.981  0.00  0.00     0.149 HD
ENDBRANCH   6  13
BRANCH   5  18
ATOM     18  N   LIG d   1      -0.692  74.115 117.416  0.00  0.00     0.381 N 
ATOM     19  H   LIG d   1      -0.731  73.259 117.933  0.00  0.00    -0.090 HD
ATOM     20  H   LIG d   1      -0.064  74.740 117.889  0.00  0.00    -0.090 HD
ATOM     21  H   LIG d   1      -0.364  73.938 116.492  0.00  0.00    -0.090 HD
ENDBRANCH   5  18
BRANCH   3  22
ATOM     22  C   LIG d   1      -3.827  76.493 114.685  0.00  0.00     0.382 C 
ATOM     23  O   LIG d   1      -4.154  76.092 113.542  0.00  0.00    -0.241 OA
ATOM     24  O   LIG d   1      -3.648  77.710 114.881  0.00  0.00    -0.241 OA
ENDBRANCH   3  22
TORSDOF 7
ENDMDL
MODEL 3
REMARK VINA RESULT:      -5.6     33.476     34.612
REMARK  7 active torsions:
REMARK  status: ('A' for Active; 'I' for Inactive)
REMARK    1  A    between atoms: C_2  and  C_3 
REMARK    2  A    between atoms: C_3  and  O_6 
REMARK    3  A    between atoms: C_3  and  C_4 
REMARK    4  A    between atoms: C_7  and  O_6 
REMARK    5  A    between atoms: C_9  and  C_10 
REMARK    6  A    between atoms: N_15  and  C_14 
REMARK    7  A    between atoms: N_20  and  C_19 
REMARK       I    between atoms: C_22  and  N_20 
ROOT
ATOM      1  C   LIG d   1      -5.384  92.585 117.831  0.00  0.00     0.161 C 
ATOM      2  C   LIG d   1      -6.371  91.754 117.277  0.00  0.00     0.016 C 
ATOM      3  C   LIG d   1      -6.080  90.654 116.436  0.00  0.00     0.038 C 
ATOM      4  C   LIG d   1      -4.765  90.218 116.215  0.00  0.00     0.028 C 
ATOM      5  C   LIG d   1      -3.729  91.329 116.345  0.00  0.00    -0.047 C 
ATOM      6  C   LIG d   1      -3.941  92.059 117.691  0.00  0.00     0.091 C 
ENDROOT
BRANCH   1   7
ATOM      7  O   LIG d   1      -5.689  92.849 119.215  0.00  0.00    -0.368 OA
BRANCH   7   8
ATOM      8  C   LIG d   1      -6.163  94.184 119.520  0.00  0.00     0.119 C 
BRANCH   8   9
ATOM      9  C   LIG d   1      -5.101  94.860 120.410  0.00  0.00     0.028 C 
ATOM     10  C   LIG d   1      -4.312  93.846 121.255  0.00  0.00     0.006 C 
ENDBRANCH   8   9
BRANCH   8  11
ATOM     11  C   LIG d   1      -7.436  94.143 120.369  0.00  0.00     0.028 C 
ATOM     12  C   LIG d   1      -8.714  94.034 119.522  0.00  0.00     0.006 C 
ENDBRANCH   8  11
ENDBRANCH   7   8
ENDBRANCH   1   7
BRANCH   6  13
ATOM     13  N   LIG d   1      -3.022  93.214 117.860  0.00  0.00    -0.311 N 
ATOM     14  C   LIG d   1      -1.856  93.136 118.501  0.00  0.00     0.210 C 
ATOM     15  C   LIG d   1      -1.072  94.450 118.579  0.00  0.00     0.109 C 
ATOM     16  O   LIG d   1      -1.383  92.097 118.984  0.00  0.00    -0.276 OA
ATOM     17  H   LIG d   1      -3.313  94.090 117.472  0.00  0.00     0.149 HD
ENDBRANCH   6  13
BRANCH   5  18
ATOM     18  N   LIG d   1      -2.395  90.710 116.226  0.00  0.00     0.381 N 
ATOM     19  H   LIG d   1      -2.463  89.855 115.711  0.00  0.00    -0.090 HD
ATOM     20  H   LIG d   1      -2.053  90.497 117.147  0.00  0.00    -0.090 HD
ATOM     21  H   LIG d   1      -1.769  91.334 115.767  0.00  0.00    -0.090 HD
ENDBRANCH   5  18
BRANCH   3  22
ATOM     22  C   LIG d   1      -7.110  90.003 115.776  0.00  0.00     0.382 C 
ATOM     23  O   LIG d   1      -7.971  89.367 116.430  0.00  0.00    -0.241 OA
ATOM     24  O   LIG d   1      -7.164  90.006 114.531  0.00  0.00    -0.241 OA
ENDBRANCH   3  22
TORSDOF 7
ENDMDL
MODEL 4
REMARK VINA RESULT:      -5.4     17.454     18.951
REMARK  7 active torsions:
REMARK  status: ('A' for Active; 'I' for Inactive)
REMARK    1  A    between atoms: C_2  and  C_3 
REMARK    2  A    between atoms: C_3  and  O_6 
REMARK    3  A    between atoms: C_3  and  C_4 
REMARK    4  A    between atoms: C_7  and  O_6 
REMARK    5  A    between atoms: C_9  and  C_10 
REMARK    6  A    between atoms: N_15  and  C_14 
REMARK    7  A    between atoms: N_20  and  C_19 
REMARK       I    between atoms: C_22  and  N_20 
ROOT
ATOM      1  C   LIG d   1      -7.913  75.008 118.010  0.00  0.00     0.161 C 
ATOM      2  C   LIG d   1      -8.971  75.932 118.031  0.00  0.00     0.016 C 
ATOM      3  C   LIG d   1      -8.784  77.327 118.163  0.00  0.00     0.038 C 
ATOM      4  C   LIG d   1      -7.509  77.910 118.130  0.00  0.00     0.028 C 
ATOM      5  C   LIG d   1      -6.404  76.979 118.618  0.00  0.00    -0.047 C 
ATOM      6  C   LIG d   1      -6.511  75.635 117.861  0.00  0.00     0.091 C 
ENDROOT
BRANCH   1   7
ATOM      7  O   LIG d   1      -8.138  74.032 116.974  0.00  0.00    -0.368 OA
BRANCH   7   8
ATOM      8  C   LIG d   1      -8.336  72.667 117.417  0.00  0.00     0.119 C 
BRANCH   8   9
ATOM      9  C   LIG d   1      -7.355  71.777 116.629  0.00  0.00     0.028 C 
ATOM     10  C   LIG d   1      -6.634  72.547 115.510  0.00  0.00     0.006 C 
ENDBRANCH   8   9
BRANCH   8  11
ATOM     11  C   LIG d   1      -9.732  72.157 117.047  0.00  0.00     0.028 C 
ATOM     12  C   LIG d   1      -9.751  70.656 116.719  0.00  0.00     0.006 C 
ENDBRANCH   8  11
ENDBRANCH   7   8
ENDBRANCH   1   7
BRANCH   6  13
ATOM     13  N   LIG d   1      -5.519  74.636 118.338  0.00  0.00    -0.311 N 
ATOM     14  C   LIG d   1      -4.348  74.423 117.739  0.00  0.00     0.210 C 
ATOM     15  C   LIG d   1      -3.483  73.334 118.381  0.00  0.00     0.109 C 
ATOM     16  O   LIG d   1      -3.930  75.054 116.757  0.00  0.00    -0.276 OA
ATOM     17  H   LIG d   1      -5.763  74.101 119.148  0.00  0.00     0.149 HD
ENDBRANCH   6  13
BRANCH   5  18
ATOM     18  N   LIG d   1      -5.116  77.664 118.400  0.00  0.00     0.381 N 
ATOM     19  H   LIG d   1      -4.997  78.385 119.083  0.00  0.00    -0.090 HD
ATOM     20  H   LIG d   1      -5.123  78.089 117.490  0.00  0.00    -0.090 HD
ATOM     21  H   LIG d   1      -4.367  77.010 118.464  0.00  0.00    -0.090 HD
ENDBRANCH   5  18
BRANCH   3  22
ATOM     22  C   LIG d   1      -9.880  78.151 118.370  0.00  0.00     0.382 C 
ATOM     23  O   LIG d   1      -9.785  79.385 118.163  0.00  0.00    -0.241 OA
ATOM     24  O   LIG d   1     -10.950  77.683 118.803  0.00  0.00    -0.241 OA
ENDBRANCH   3  22
TORSDOF 7
ENDMDL
MODEL 5
REMARK VINA RESULT:      -5.3     15.521     16.738
REMARK  7 active torsions:
REMARK  status: ('A' for Active; 'I' for Inactive)
REMARK    1  A    between atoms: C_2  and  C_3 
REMARK    2  A    between atoms: C_3  and  O_6 
REMARK    3  A    between atoms: C_3  and  C_4 
REMARK    4  A    between atoms: C_7  and  O_6 
REMARK    5  A    between atoms: C_9  and  C_10 
REMARK    6  A    between atoms: N_15  and  C_14 
REMARK    7  A    between atoms: N_20  and  C_19 
REMARK       I    between atoms: C_22  and  N_20 
ROOT
ATOM      1  C   LIG d   1      -4.596  73.855 117.646  0.00  0.00     0.161 C 
ATOM      2  C   LIG d   1      -5.720  73.013 117.611  0.00  0.00     0.016 C 
ATOM      3  C   LIG d   1      -6.692  73.055 116.584  0.00  0.00     0.038 C 
ATOM      4  C   LIG d   1      -6.524  73.844 115.436  0.00  0.00     0.028 C 
ATOM      5  C   LIG d   1      -5.660  75.078 115.671  0.00  0.00    -0.047 C 
ATOM      6  C   LIG d   1      -4.338  74.645 116.346  0.00  0.00     0.091 C 
ENDROOT
BRANCH   1   7
ATOM      7  O   LIG d   1      -3.428  73.094 118.011  0.00  0.00    -0.368 OA
BRANCH   7   8
ATOM      8  C   LIG d   1      -3.049  73.138 119.409  0.00  0.00     0.119 C 
BRANCH   8   9
ATOM      9  C   LIG d   1      -2.042  74.292 119.579  0.00  0.00     0.028 C 
ATOM     10  C   LIG d   1      -0.842  74.171 118.624  0.00  0.00     0.006 C 
ENDBRANCH   8   9
BRANCH   8  11
ATOM     11  C   LIG d   1      -2.290  71.874 119.820  0.00  0.00     0.028 C 
ATOM     12  C   LIG d   1      -1.991  71.822 121.327  0.00  0.00     0.006 C 
ENDBRANCH   8  11
ENDBRANCH   7   8
ENDBRANCH   1   7
BRANCH   6  13
ATOM     13  N   LIG d   1      -3.470  75.802 116.688  0.00  0.00    -0.311 N 
ATOM     14  C   LIG d   1      -2.488  76.239 115.901  0.00  0.00     0.210 C 
ATOM     15  C   LIG d   1      -1.702  77.433 116.452  0.00  0.00     0.109 C 
ATOM     16  O   LIG d   1      -2.215  75.771 114.786  0.00  0.00    -0.276 OA
ATOM     17  H   LIG d   1      -3.643  76.260 117.561  0.00  0.00     0.149 HD
ENDBRANCH   6  13
BRANCH   5  18
ATOM     18  N   LIG d   1      -5.454  75.733 114.365  0.00  0.00     0.381 N 
ATOM     19  H   LIG d   1      -5.520  75.056 113.632  0.00  0.00    -0.090 HD
ATOM     20  H   LIG d   1      -4.532  76.132 114.344  0.00  0.00    -0.090 HD
ATOM     21  H   LIG d   1      -6.136  76.447 114.231  0.00  0.00    -0.090 HD
ENDBRANCH   5  18
BRANCH   3  22
ATOM     22  C   LIG d   1      -7.866  72.330 116.719  0.00  0.00     0.382 C 
ATOM     23  O   LIG d   1      -8.082  71.342 115.976  0.00  0.00    -0.241 OA
ATOM     24  O   LIG d   1      -8.732  72.679 117.544  0.00  0.00    -0.241 OA
ENDBRANCH   3  22
TORSDOF 7
ENDMDL
MODEL 6
REMARK VINA RESULT:      -5.1     33.299     34.375
REMARK  7 active torsions:
REMARK  status: ('A' for Active; 'I' for Inactive)
REMARK    1  A    between atoms: C_2  and  C_3 
REMARK    2  A    between atoms: C_3  and  O_6 
REMARK    3  A    between atoms: C_3  and  C_4 
REMARK    4  A    between atoms: C_7  and  O_6 
REMARK    5  A    between atoms: C_9  and  C_10 
REMARK    6  A    between atoms: N_15  and  C_14 
REMARK    7  A    between atoms: N_20  and  C_19 
REMARK       I    between atoms: C_22  and  N_20 
ROOT
ATOM      1  C   LIG d   1      -4.817  92.148 117.972  0.00  0.00     0.161 C 
ATOM      2  C   LIG d   1      -4.475  92.959 119.067  0.00  0.00     0.016 C 
ATOM      3  C   LIG d   1      -5.319  93.971 119.580  0.00  0.00     0.038 C 
ATOM      4  C   LIG d   1      -6.635  94.139 119.124  0.00  0.00     0.028 C 
ATOM      5  C   LIG d   1      -6.842  93.680 117.685  0.00  0.00    -0.047 C 
ATOM      6  C   LIG d   1      -6.293  92.242 117.534  0.00  0.00     0.091 C 
ENDROOT
BRANCH   1   7
ATOM      7  O   LIG d   1      -4.463  90.778 118.250  0.00  0.00    -0.368 OA
BRANCH   7   8
ATOM      8  C   LIG d   1      -3.057  90.447 118.137  0.00  0.00     0.119 C 
BRANCH   8   9
ATOM      9  C   LIG d   1      -2.556  91.010 116.793  0.00  0.00     0.028 C 
ATOM     10  C   LIG d   1      -1.054  91.340 116.818  0.00  0.00     0.006 C 
ENDBRANCH   8   9
BRANCH   8  11
ATOM     11  C   LIG d   1      -2.847  88.933 118.047  0.00  0.00     0.028 C 
ATOM     12  C   LIG d   1      -2.679  88.271 119.424  0.00  0.00     0.006 C 
ENDBRANCH   8  11
ENDBRANCH   7   8
ENDBRANCH   1   7
BRANCH   6  13
ATOM     13  N   LIG d   1      -6.379  91.747 116.135  0.00  0.00    -0.311 N 
ATOM     14  C   LIG d   1      -6.907  90.569 115.806  0.00  0.00     0.210 C 
ATOM     15  C   LIG d   1      -6.878  90.244 114.309  0.00  0.00     0.109 C 
ATOM     16  O   LIG d   1      -7.425  89.777 116.607  0.00  0.00    -0.276 OA
ATOM     17  H   LIG d   1      -6.011  92.340 115.418  0.00  0.00     0.149 HD
ENDBRANCH   6  13
BRANCH   5  18
ATOM     18  N   LIG d   1      -8.282  93.783 117.386  0.00  0.00     0.381 N 
ATOM     19  H   LIG d   1      -8.445  93.565 116.424  0.00  0.00    -0.090 HD
ATOM     20  H   LIG d   1      -8.582  94.728 117.551  0.00  0.00    -0.090 HD
ATOM     21  H   LIG d   1      -8.797  93.158 117.968  0.00  0.00    -0.090 HD
ENDBRANCH   5  18
BRANCH   3  22
ATOM     22  C   LIG d   1      -4.834  94.854 120.532  0.00  0.00     0.382 C 
ATOM     23  O   LIG d   1      -5.499  95.083 121.571  0.00  0.00    -0.241 OA
ATOM     24  O   LIG d   1      -3.760  95.457 120.346  0.00  0.00    -0.241 OA
ENDBRANCH   3  22
TORSDOF 7
ENDMDL
MODEL 7
REMARK VINA RESULT:      -5.0     18.911     20.447
REMARK  7 active torsions:
REMARK  status: ('A' for Active; 'I' for Inactive)
REMARK    1  A    between atoms: C_2  and  C_3 
REMARK    2  A    between atoms: C_3  and  O_6 
REMARK    3  A    between atoms: C_3  and  C_4 
REMARK    4  A    between atoms: C_7  and  O_6 
REMARK    5  A    between atoms: C_9  and  C_10 
REMARK    6  A    between atoms: N_15  and  C_14 
REMARK    7  A    between atoms: N_20  and  C_19 
REMARK       I    between atoms: C_22  and  N_20 
ROOT
ATOM      1  C   LIG d   1      -7.154  76.616 117.356  0.00  0.00     0.161 C 
ATOM      2  C   LIG d   1      -8.457  76.984 117.729  0.00  0.00     0.016 C 
ATOM      3  C   LIG d   1      -8.820  78.303 118.089  0.00  0.00     0.038 C 
ATOM      4  C   LIG d   1      -7.931  79.380 117.952  0.00  0.00     0.028 C 
ATOM      5  C   LIG d   1      -6.465  78.973 118.062  0.00  0.00    -0.047 C 
ATOM      6  C   LIG d   1      -6.197  77.798 117.095  0.00  0.00     0.091 C 
ENDROOT
BRANCH   1   7
ATOM      7  O   LIG d   1      -7.202  75.746 116.208  0.00  0.00    -0.368 OA
BRANCH   7   8
ATOM      8  C   LIG d   1      -6.460  74.506 116.315  0.00  0.00     0.119 C 
BRANCH   8   9
ATOM      9  C   LIG d   1      -6.007  74.113 114.896  0.00  0.00     0.028 C 
ATOM     10  C   LIG d   1      -5.471  75.313 114.097  0.00  0.00     0.006 C 
ENDBRANCH   8   9
BRANCH   8  11
ATOM     11  C   LIG d   1      -7.359  73.359 116.786  0.00  0.00     0.028 C 
ATOM     12  C   LIG d   1      -7.089  72.045 116.036  0.00  0.00     0.006 C 
ENDBRANCH   8  11
ENDBRANCH   7   8
ENDBRANCH   1   7
BRANCH   6  13
ATOM     13  N   LIG d   1      -4.807  77.283 117.200  0.00  0.00    -0.311 N 
ATOM     14  C   LIG d   1      -3.804  77.720 116.441  0.00  0.00     0.210 C 
ATOM     15  C   LIG d   1      -2.455  77.041 116.698  0.00  0.00     0.109 C 
ATOM     16  O   LIG d   1      -3.896  78.628 115.601  0.00  0.00    -0.276 OA
ATOM     17  H   LIG d   1      -4.636  76.566 117.878  0.00  0.00     0.149 HD
ENDBRANCH   6  13
BRANCH   5  18
ATOM     18  N   LIG d   1      -5.649  80.165 117.764  0.00  0.00     0.381 N 
ATOM     19  H   LIG d   1      -5.669  80.792 118.543  0.00  0.00    -0.090 HD
ATOM     20  H   LIG d   1      -6.041  80.637 116.969  0.00  0.00    -0.090 HD
ATOM     21  H   LIG d   1      -4.710  79.895 117.570  0.00  0.00    -0.090 HD
ENDBRANCH   5  18
BRANCH   3  22
ATOM     22  C   LIG d   1     -10.073  78.548 118.628  0.00  0.00     0.382 C 
ATOM     23  O   LIG d   1     -10.890  77.606 118.768  0.00  0.00    -0.241 OA
ATOM     24  O   LIG d   1     -10.413  79.706 118.936  0.00  0.00    -0.241 OA
ENDBRANCH   3  22
TORSDOF 7
ENDMDL
MODEL 8
REMARK VINA RESULT:      -5.0     33.612     34.646
REMARK  7 active torsions:
REMARK  status: ('A' for Active; 'I' for Inactive)
REMARK    1  A    between atoms: C_2  and  C_3 
REMARK    2  A    between atoms: C_3  and  O_6 
REMARK    3  A    between atoms: C_3  and  C_4 
REMARK    4  A    between atoms: C_7  and  O_6 
REMARK    5  A    between atoms: C_9  and  C_10 
REMARK    6  A    between atoms: N_15  and  C_14 
REMARK    7  A    between atoms: N_20  and  C_19 
REMARK       I    between atoms: C_22  and  N_20 
ROOT
ATOM      1  C   LIG d   1      -5.432  91.566 119.036  0.00  0.00     0.161 C 
ATOM      2  C   LIG d   1      -4.546  90.759 118.302  0.00  0.00     0.016 C 
ATOM      3  C   LIG d   1      -4.657  90.550 116.908  0.00  0.00     0.038 C 
ATOM      4  C   LIG d   1      -5.577  91.259 116.123  0.00  0.00     0.028 C 
ATOM      5  C   LIG d   1      -6.817  91.700 116.892  0.00  0.00    -0.047 C 
ATOM      6  C   LIG d   1      -6.375  92.436 118.178  0.00  0.00     0.091 C 
ENDROOT
BRANCH   1   7
ATOM      7  O   LIG d   1      -4.693  92.389 119.959  0.00  0.00    -0.368 OA
BRANCH   7   8
ATOM      8  C   LIG d   1      -4.126  93.606 119.415  0.00  0.00     0.119 C 
BRANCH   8   9
ATOM      9  C   LIG d   1      -2.600  93.535 119.615  0.00  0.00     0.028 C 
ATOM     10  C   LIG d   1      -2.199  92.557 120.733  0.00  0.00     0.006 C 
ENDBRANCH   8   9
BRANCH   8  11
ATOM     11  C   LIG d   1      -4.582  94.835 120.206  0.00  0.00     0.028 C 
ATOM     12  C   LIG d   1      -3.845  96.119 119.791  0.00  0.00     0.006 C 
ENDBRANCH   8  11
ENDBRANCH   7   8
ENDBRANCH   1   7
BRANCH   6  13
ATOM     13  N   LIG d   1      -7.527  92.827 119.032  0.00  0.00    -0.311 N 
ATOM     14  C   LIG d   1      -8.127  94.014 118.955  0.00  0.00     0.210 C 
ATOM     15  C   LIG d   1      -9.282  94.219 119.940  0.00  0.00     0.109 C 
ATOM     16  O   LIG d   1      -7.833  94.904 118.143  0.00  0.00    -0.276 OA
ATOM     17  H   LIG d   1      -7.851  92.153 119.698  0.00  0.00     0.149 HD
ENDBRANCH   6  13
BRANCH   5  18
ATOM     18  N   LIG d   1      -7.624  92.545 115.992  0.00  0.00     0.381 N 
ATOM     19  H   LIG d   1      -7.181  92.606 115.097  0.00  0.00    -0.090 HD
ATOM     20  H   LIG d   1      -7.682  93.470 116.379  0.00  0.00    -0.090 HD
ATOM     21  H   LIG d   1      -8.538  92.161 115.892  0.00  0.00    -0.090 HD
ENDBRANCH   5  18
BRANCH   3  22
ATOM     22  C   LIG d   1      -3.866  89.592 116.293  0.00  0.00     0.382 C 
ATOM     23  O   LIG d   1      -4.281  89.000 115.267  0.00  0.00    -0.241 OA
ATOM     24  O   LIG d   1      -2.761  89.280 116.775  0.00  0.00    -0.241 OA
ENDBRANCH   3  22
TORSDOF 7
ENDMDL
MODEL 9
REMARK VINA RESULT:      -4.9     16.029     17.408
REMARK  7 active torsions:
REMARK  status: ('A' for Active; 'I' for Inactive)
REMARK    1  A    between atoms: C_2  and  C_3 
REMARK    2  A    between atoms: C_3  and  O_6 
REMARK    3  A    between atoms: C_3  and  C_4 
REMARK    4  A    between atoms: C_7  and  O_6 
REMARK    5  A    between atoms: C_9  and  C_10 
REMARK    6  A    between atoms: N_15  and  C_14 
REMARK    7  A    between atoms: N_20  and  C_19 
REMARK       I    between atoms: C_22  and  N_20 
ROOT
ATOM      1  C   LIG d   1      -4.965  75.180 117.694  0.00  0.00     0.161 C 
ATOM      2  C   LIG d   1      -5.823  74.116 118.016  0.00  0.00     0.016 C 
ATOM      3  C   LIG d   1      -6.503  73.343 117.047  0.00  0.00     0.038 C 
ATOM      4  C   LIG d   1      -6.252  73.486 115.675  0.00  0.00     0.028 C 
ATOM      5  C   LIG d   1      -5.776  74.883 115.289  0.00  0.00    -0.047 C 
ATOM      6  C   LIG d   1      -4.592  75.279 116.200  0.00  0.00     0.091 C 
ENDROOT
BRANCH   1   7
ATOM      7  O   LIG d   1      -3.775  75.111 118.504  0.00  0.00    -0.368 OA
BRANCH   7   8
ATOM      8  C   LIG d   1      -2.912  73.970 118.273  0.00  0.00     0.119 C 
BRANCH   8   9
ATOM      9  C   LIG d   1      -2.597  73.343 119.645  0.00  0.00     0.028 C 
ATOM     10  C   LIG d   1      -2.371  71.824 119.558  0.00  0.00     0.006 C 
ENDBRANCH   8   9
BRANCH   8  11
ATOM     11  C   LIG d   1      -1.557  74.402 117.704  0.00  0.00     0.028 C 
ATOM     12  C   LIG d   1      -1.174  75.837 118.101  0.00  0.00     0.006 C 
ENDBRANCH   8  11
ENDBRANCH   7   8
ENDBRANCH   1   7
BRANCH   6  13
ATOM     13  N   LIG d   1      -4.120  76.666 115.945  0.00  0.00    -0.311 N 
ATOM     14  C   LIG d   1      -3.095  76.956 115.146  0.00  0.00     0.210 C 
ATOM     15  C   LIG d   1      -2.761  78.447 115.038  0.00  0.00     0.109 C 
ATOM     16  O   LIG d   1      -2.451  76.123 114.491  0.00  0.00    -0.276 OA
ATOM     17  H   LIG d   1      -4.606  77.406 116.412  0.00  0.00     0.149 HD
ENDBRANCH   6  13
BRANCH   5  18
ATOM     18  N   LIG d   1      -5.420  74.853 113.858  0.00  0.00     0.381 N 
ATOM     19  H   LIG d   1      -5.593  75.749 113.447  0.00  0.00    -0.090 HD
ATOM     20  H   LIG d   1      -5.999  74.176 113.393  0.00  0.00    -0.090 HD
ATOM     21  H   LIG d   1      -4.460  74.610 113.750  0.00  0.00    -0.090 HD
ENDBRANCH   5  18
BRANCH   3  22
ATOM     22  C   LIG d   1      -7.477  72.441 117.448  0.00  0.00     0.382 C 
ATOM     23  O   LIG d   1      -8.192  72.692 118.448  0.00  0.00    -0.241 OA
ATOM     24  O   LIG d   1      -7.621  71.359 116.848  0.00  0.00    -0.241 OA
ENDBRANCH   3  22
TORSDOF 7
ENDMDL
