MODEL 1
REMARK VINA RESULT:      -6.2      0.000      0.000
REMARK  7 active torsions:
REMARK  status: ('A' for Active; 'I' for Inactive)
REMARK    1  A    between atoms: C_2  and  C_3 
REMARK    2  A    between atoms: C_3  and  O_6 
REMARK    3  A    between atoms: C_3  and  C_4 
REMARK    4  A    between atoms: C_7  and  O_6 
REMARK    5  A    between atoms: C_9  and  C_10 
REMARK    6  A    between atoms: N_15  and  C_14 
REMARK    7  A    between atoms: N_20  and  C_19 
REMARK       I    between atoms: C_22  and  N_20 
ROOT
ATOM      1  C   LIG d   1      -7.635  76.502 117.532  0.00  0.00     0.161 C 
ATOM      2  C   LIG d   1      -8.910  76.943 117.924  0.00  0.00     0.016 C 
ATOM      3  C   LIG d   1      -9.243  78.306 118.101  0.00  0.00     0.038 C 
ATOM      4  C   LIG d   1      -8.359  79.336 117.748  0.00  0.00     0.028 C 
ATOM      5  C   LIG d   1      -6.892  78.929 117.828  0.00  0.00    -0.047 C 
ATOM      6  C   LIG d   1      -6.691  77.617 117.036  0.00  0.00     0.091 C 
ENDROOT
BRANCH   1   7
ATOM      7  O   LIG d   1      -7.760  75.470 116.534  0.00  0.00    -0.368 OA
BRANCH   7   8
ATOM      8  C   LIG d   1      -7.677  74.106 117.015  0.00  0.00     0.119 C 
BRANCH   8   9
ATOM      9  C   LIG d   1      -6.695  73.351 116.098  0.00  0.00     0.028 C 
ATOM     10  C   LIG d   1      -6.094  74.257 115.010  0.00  0.00     0.006 C 
ENDBRANCH   8   9
BRANCH   8  11
ATOM     11  C   LIG d   1      -9.016  73.378 116.861  0.00  0.00     0.028 C 
ATOM     12  C   LIG d   1      -8.869  71.848 116.884  0.00  0.00     0.006 C 
ENDBRANCH   8  11
ENDBRANCH   7   8
ENDBRANCH   1   7
BRANCH   6  13
ATOM     13  N   LIG d   1      -5.299  77.104 117.133  0.00  0.00    -0.311 N 
ATOM     14  C   LIG d   1      -4.355  77.372 116.233  0.00  0.00     0.210 C 
ATOM     15  C   LIG d   1      -2.994  76.726 116.512  0.00  0.00     0.109 C 
ATOM     16  O   LIG d   1      -4.506  78.108 115.247  0.00  0.00    -0.276 OA
ATOM     17  H   LIG d   1      -5.081  76.523 117.918  0.00  0.00     0.149 HD
ENDBRANCH   6  13
BRANCH   5  18
ATOM     18  N   LIG d   1      -6.089  80.050 117.303  0.00  0.00     0.381 N 
ATOM     19  H   LIG d   1      -5.696  80.570 118.062  0.00  0.00    -0.090 HD
ATOM     20  H   LIG d   1      -6.689  80.662 116.779  0.00  0.00    -0.090 HD
ATOM     21  H   LIG d   1      -5.362  79.703 116.716  0.00  0.00    -0.090 HD
ENDBRANCH   5  18
BRANCH   3  22
ATOM     22  C   LIG d   1     -10.459  78.648 118.673  0.00  0.00     0.382 C 
ATOM     23  O   LIG d   1     -11.367  77.788 118.778  0.00  0.00    -0.241 OA
ATOM     24  O   LIG d   1     -10.675  79.817 119.045  0.00  0.00    -0.241 OA
ENDBRANCH   3  22
TORSDOF 7
ENDMDL
MODEL 2
REMARK VINA RESULT:      -5.8      1.931      2.525
REMARK  7 active torsions:
REMARK  status: ('A' for Active; 'I' for Inactive)
REMARK    1  A    between atoms: C_2  and  C_3 
REMARK    2  A    between atoms: C_3  and  O_6 
REMARK    3  A    between atoms: C_3  and  C_4 
REMARK    4  A    between atoms: C_7  and  O_6 
REMARK    5  A    between atoms: C_9  and  C_10 
REMARK    6  A    between atoms: N_15  and  C_14 
REMARK    7  A    between atoms: N_20  and  C_19 
REMARK       I    between atoms: C_22  and  N_20 
ROOT
ATOM      1  C   LIG d   1      -6.250  76.874 116.943  0.00  0.00     0.161 C 
ATOM      2  C   LIG d   1      -7.167  77.896 117.240  0.00  0.00     0.016 C 
ATOM      3  C   LIG d   1      -6.830  79.269 117.238  0.00  0.00     0.038 C 
ATOM      4  C   LIG d   1      -5.582  79.726 116.789  0.00  0.00     0.028 C 
ATOM      5  C   LIG d   1      -4.465  78.702 116.962  0.00  0.00    -0.047 C 
ATOM      6  C   LIG d   1      -4.914  77.359 116.342  0.00  0.00     0.091 C 
ENDROOT
BRANCH   1   7
ATOM      7  O   LIG d   1      -6.866  75.902 116.075  0.00  0.00    -0.368 OA
BRANCH   7   8
ATOM      8  C   LIG d   1      -7.017  74.568 116.618  0.00  0.00     0.119 C 
BRANCH   8   9
ATOM      9  C   LIG d   1      -6.574  73.571 115.530  0.00  0.00     0.028 C 
ATOM     10  C   LIG d   1      -6.944  72.120 115.877  0.00  0.00     0.006 C 
ENDBRANCH   8   9
BRANCH   8  11
ATOM     11  C   LIG d   1      -8.489  74.241 116.892  0.00  0.00     0.028 C 
ATOM     12  C   LIG d   1      -9.455  75.172 116.142  0.00  0.00     0.006 C 
ENDBRANCH   8  11
ENDBRANCH   7   8
ENDBRANCH   1   7
BRANCH   6  13
ATOM     13  N   LIG d   1      -3.913  76.279 116.543  0.00  0.00    -0.311 N 
ATOM     14  C   LIG d   1      -3.309  75.644 115.540  0.00  0.00     0.210 C 
ATOM     15  C   LIG d   1      -2.325  74.550 115.967  0.00  0.00     0.109 C 
ATOM     16  O   LIG d   1      -3.470  75.905 114.338  0.00  0.00    -0.276 OA
ATOM     17  H   LIG d   1      -3.698  76.026 117.487  0.00  0.00     0.149 HD
ENDBRANCH   6  13
BRANCH   5  18
ATOM     18  N   LIG d   1      -3.252  79.255 116.329  0.00  0.00     0.381 N 
ATOM     19  H   LIG d   1      -2.727  79.777 117.001  0.00  0.00    -0.090 HD
ATOM     20  H   LIG d   1      -3.527  79.878 115.590  0.00  0.00    -0.090 HD
ATOM     21  H   LIG d   1      -2.693  78.517 115.961  0.00  0.00    -0.090 HD
ENDBRANCH   5  18
BRANCH   3  22
ATOM     22  C   LIG d   1      -7.734  80.199 117.728  0.00  0.00     0.382 C 
ATOM     23  O   LIG d   1      -7.881  81.300 117.143  0.00  0.00    -0.241 OA
ATOM     24  O   LIG d   1      -8.373  79.970 118.773  0.00  0.00    -0.241 OA
ENDBRANCH   3  22
TORSDOF 7
ENDMDL
MODEL 3
REMARK VINA RESULT:      -5.8      1.904      5.139
REMARK  7 active torsions:
REMARK  status: ('A' for Active; 'I' for Inactive)
REMARK    1  A    between atoms: C_2  and  C_3 
REMARK    2  A    between atoms: C_3  and  O_6 
REMARK    3  A    between atoms: C_3  and  C_4 
REMARK    4  A    between atoms: C_7  and  O_6 
REMARK    5  A    between atoms: C_9  and  C_10 
REMARK    6  A    between atoms: N_15  and  C_14 
REMARK    7  A    between atoms: N_20  and  C_19 
REMARK       I    between atoms: C_22  and  N_20 
ROOT
ATOM      1  C   LIG d   1      -6.477  76.780 115.096  0.00  0.00     0.161 C 
ATOM      2  C   LIG d   1      -5.301  76.553 114.362  0.00  0.00     0.016 C 
ATOM      3  C   LIG d   1      -4.016  76.934 114.814  0.00  0.00     0.038 C 
ATOM      4  C   LIG d   1      -3.803  77.437 116.106  0.00  0.00     0.028 C 
ATOM      5  C   LIG d   1      -5.020  78.150 116.687  0.00  0.00    -0.047 C 
ATOM      6  C   LIG d   1      -6.253  77.226 116.556  0.00  0.00     0.091 C 
ENDROOT
BRANCH   1   7
ATOM      7  O   LIG d   1      -7.314  75.607 115.054  0.00  0.00    -0.368 OA
BRANCH   7   8
ATOM      8  C   LIG d   1      -7.119  74.646 116.121  0.00  0.00     0.119 C 
BRANCH   8   9
ATOM      9  C   LIG d   1      -6.533  73.368 115.491  0.00  0.00     0.028 C 
ATOM     10  C   LIG d   1      -7.228  72.093 115.996  0.00  0.00     0.006 C 
ENDBRANCH   8   9
BRANCH   8  11
ATOM     11  C   LIG d   1      -8.455  74.219 116.736  0.00  0.00     0.028 C 
ATOM     12  C   LIG d   1      -9.649  75.004 116.172  0.00  0.00     0.006 C 
ENDBRANCH   8  11
ENDBRANCH   7   8
ENDBRANCH   1   7
BRANCH   6  13
ATOM     13  N   LIG d   1      -7.503  77.880 117.024  0.00  0.00    -0.311 N 
ATOM     14  C   LIG d   1      -8.018  77.692 118.237  0.00  0.00     0.210 C 
ATOM     15  C   LIG d   1      -9.324  78.446 118.509  0.00  0.00     0.109 C 
ATOM     16  O   LIG d   1      -7.501  76.998 119.126  0.00  0.00    -0.276 OA
ATOM     17  H   LIG d   1      -7.971  78.484 116.377  0.00  0.00     0.149 HD
ENDBRANCH   6  13
BRANCH   5  18
ATOM     18  N   LIG d   1      -4.706  78.501 118.084  0.00  0.00     0.381 N 
ATOM     19  H   LIG d   1      -4.562  79.488 118.162  0.00  0.00    -0.090 HD
ATOM     20  H   LIG d   1      -3.856  78.036 118.353  0.00  0.00    -0.090 HD
ATOM     21  H   LIG d   1      -5.451  78.218 118.683  0.00  0.00    -0.090 HD
ENDBRANCH   5  18
BRANCH   3  22
ATOM     22  C   LIG d   1      -2.933  76.851 113.952  0.00  0.00     0.382 C 
ATOM     23  O   LIG d   1      -1.859  76.333 114.344  0.00  0.00    -0.241 OA
ATOM     24  O   LIG d   1      -3.001  77.327 112.803  0.00  0.00    -0.241 OA
ENDBRANCH   3  22
TORSDOF 7
ENDMDL
MODEL 4
REMARK VINA RESULT:      -5.7      2.090      5.291
REMARK  7 active torsions:
REMARK  status: ('A' for Active; 'I' for Inactive)
REMARK    1  A    between atoms: C_2  and  C_3 
REMARK    2  A    between atoms: C_3  and  O_6 
REMARK    3  A    between atoms: C_3  and  C_4 
REMARK    4  A    between atoms: C_7  and  O_6 
REMARK    5  A    between atoms: C_9  and  C_10 
REMARK    6  A    between atoms: N_15  and  C_14 
REMARK    7  A    between atoms: N_20  and  C_19 
REMARK       I    between atoms: C_22  and  N_20 
ROOT
ATOM      1  C   LIG d   1      -5.879  76.275 116.399  0.00  0.00     0.161 C 
ATOM      2  C   LIG d   1      -4.786  75.466 116.044  0.00  0.00     0.016 C 
ATOM      3  C   LIG d   1      -3.441  75.825 116.287  0.00  0.00     0.038 C 
ATOM      4  C   LIG d   1      -3.100  76.956 117.044  0.00  0.00     0.028 C 
ATOM      5  C   LIG d   1      -4.149  78.062 116.987  0.00  0.00    -0.047 C 
ATOM      6  C   LIG d   1      -5.532  77.460 117.325  0.00  0.00     0.091 C 
ENDROOT
BRANCH   1   7
ATOM      7  O   LIG d   1      -6.915  75.465 116.989  0.00  0.00    -0.368 OA
BRANCH   7   8
ATOM      8  C   LIG d   1      -7.760  74.738 116.063  0.00  0.00     0.119 C 
BRANCH   8   9
ATOM      9  C   LIG d   1      -9.161  75.378 116.116  0.00  0.00     0.028 C 
ATOM     10  C   LIG d   1      -9.528  75.874 117.525  0.00  0.00     0.006 C 
ENDBRANCH   8   9
BRANCH   8  11
ATOM     11  C   LIG d   1      -7.960  73.288 116.512  0.00  0.00     0.028 C 
ATOM     12  C   LIG d   1      -6.999  72.311 115.816  0.00  0.00     0.006 C 
ENDBRANCH   8  11
ENDBRANCH   7   8
ENDBRANCH   1   7
BRANCH   6  13
ATOM     13  N   LIG d   1      -6.628  78.457 117.209  0.00  0.00    -0.311 N 
ATOM     14  C   LIG d   1      -7.422  78.795 118.224  0.00  0.00     0.210 C 
ATOM     15  C   LIG d   1      -8.501  79.828 117.884  0.00  0.00     0.109 C 
ATOM     16  O   LIG d   1      -7.315  78.361 119.380  0.00  0.00    -0.276 OA
ATOM     17  H   LIG d   1      -6.765  78.882 116.313  0.00  0.00     0.149 HD
ENDBRANCH   6  13
BRANCH   5  18
ATOM     18  N   LIG d   1      -3.733  79.120 117.927  0.00  0.00     0.381 N 
ATOM     19  H   LIG d   1      -3.126  79.766 117.463  0.00  0.00    -0.090 HD
ATOM     20  H   LIG d   1      -3.226  78.699 118.686  0.00  0.00    -0.090 HD
ATOM     21  H   LIG d   1      -4.533  79.598 118.277  0.00  0.00    -0.090 HD
ENDBRANCH   5  18
BRANCH   3  22
ATOM     22  C   LIG d   1      -2.417  75.069 115.736  0.00  0.00     0.382 C 
ATOM     23  O   LIG d   1      -2.031  75.296 114.565  0.00  0.00    -0.241 OA
ATOM     24  O   LIG d   1      -1.906  74.133 116.380  0.00  0.00    -0.241 OA
ENDBRANCH   3  22
TORSDOF 7
ENDMDL
MODEL 5
REMARK VINA RESULT:      -5.7      2.265      4.805
REMARK  7 active torsions:
REMARK  status: ('A' for Active; 'I' for Inactive)
REMARK    1  A    between atoms: C_2  and  C_3 
REMARK    2  A    between atoms: C_3  and  O_6 
REMARK    3  A    between atoms: C_3  and  C_4 
REMARK    4  A    between atoms: C_7  and  O_6 
REMARK    5  A    between atoms: C_9  and  C_10 
REMARK    6  A    between atoms: N_15  and  C_14 
REMARK    7  A    between atoms: N_20  and  C_19 
REMARK       I    between atoms: C_22  and  N_20 
ROOT
ATOM      1  C   LIG d   1      -6.435  76.107 117.253  0.00  0.00     0.161 C 
ATOM      2  C   LIG d   1      -6.631  74.819 116.730  0.00  0.00     0.016 C 
ATOM      3  C   LIG d   1      -7.906  74.227 116.575  0.00  0.00     0.038 C 
ATOM      4  C   LIG d   1      -9.089  74.949 116.795  0.00  0.00     0.028 C 
ATOM      5  C   LIG d   1      -8.930  76.081 117.803  0.00  0.00    -0.047 C 
ATOM      6  C   LIG d   1      -7.719  76.951 117.394  0.00  0.00     0.091 C 
ENDROOT
BRANCH   1   7
ATOM      7  O   LIG d   1      -5.457  76.812 116.463  0.00  0.00    -0.368 OA
BRANCH   7   8
ATOM      8  C   LIG d   1      -4.685  76.007 115.538  0.00  0.00     0.119 C 
BRANCH   8   9
ATOM      9  C   LIG d   1      -3.199  76.173 115.910  0.00  0.00     0.028 C 
ATOM     10  C   LIG d   1      -2.495  74.823 116.130  0.00  0.00     0.006 C 
ENDBRANCH   8   9
BRANCH   8  11
ATOM     11  C   LIG d   1      -4.806  76.534 114.105  0.00  0.00     0.028 C 
ATOM     12  C   LIG d   1      -6.184  76.258 113.483  0.00  0.00     0.006 C 
ENDBRANCH   8  11
ENDBRANCH   7   8
ENDBRANCH   1   7
BRANCH   6  13
ATOM     13  N   LIG d   1      -7.442  78.033 118.375  0.00  0.00    -0.311 N 
ATOM     14  C   LIG d   1      -7.167  79.288 118.023  0.00  0.00     0.210 C 
ATOM     15  C   LIG d   1      -6.892  80.241 119.191  0.00  0.00     0.109 C 
ATOM     16  O   LIG d   1      -7.157  79.710 116.857  0.00  0.00    -0.276 OA
ATOM     17  H   LIG d   1      -7.460  77.785 119.345  0.00  0.00     0.149 HD
ENDBRANCH   6  13
BRANCH   5  18
ATOM     18  N   LIG d   1     -10.199  76.834 117.833  0.00  0.00     0.381 N 
ATOM     19  H   LIG d   1     -10.801  76.511 117.101  0.00  0.00    -0.090 HD
ATOM     20  H   LIG d   1     -10.003  77.806 117.675  0.00  0.00    -0.090 HD
ATOM     21  H   LIG d   1     -10.645  76.716 118.716  0.00  0.00    -0.090 HD
ENDBRANCH   5  18
BRANCH   3  22
ATOM     22  C   LIG d   1      -8.006  72.887 116.234  0.00  0.00     0.382 C 
ATOM     23  O   LIG d   1      -8.962  72.200 116.667  0.00  0.00    -0.241 OA
ATOM     24  O   LIG d   1      -7.127  72.346 115.537  0.00  0.00    -0.241 OA
ENDBRANCH   3  22
TORSDOF 7
ENDMDL
MODEL 6
REMARK VINA RESULT:      -5.5      2.405      4.270
REMARK  7 active torsions:
REMARK  status: ('A' for Active; 'I' for Inactive)
REMARK    1  A    between atoms: C_2  and  C_3 
REMARK    2  A    between atoms: C_3  and  O_6 
REMARK    3  A    between atoms: C_3  and  C_4 
REMARK    4  A    between atoms: C_7  and  O_6 
REMARK    5  A    between atoms: C_9  and  C_10 
REMARK    6  A    between atoms: N_15  and  C_14 
REMARK    7  A    between atoms: N_20  and  C_19 
REMARK       I    between atoms: C_22  and  N_20 
ROOT
ATOM      1  C   LIG d   1      -6.412  77.361 116.596  0.00  0.00     0.161 C 
ATOM      2  C   LIG d   1      -6.230  78.719 116.909  0.00  0.00     0.016 C 
ATOM      3  C   LIG d   1      -7.198  79.500 117.581  0.00  0.00     0.038 C 
ATOM      4  C   LIG d   1      -8.361  78.933 118.123  0.00  0.00     0.028 C 
ATOM      5  C   LIG d   1      -8.820  77.676 117.393  0.00  0.00    -0.047 C 
ATOM      6  C   LIG d   1      -7.628  76.698 117.278  0.00  0.00     0.091 C 
ENDROOT
BRANCH   1   7
ATOM      7  O   LIG d   1      -5.209  76.625 116.892  0.00  0.00    -0.368 OA
BRANCH   7   8
ATOM      8  C   LIG d   1      -4.284  76.446 115.791  0.00  0.00     0.119 C 
BRANCH   8   9
ATOM      9  C   LIG d   1      -5.120  76.308 114.503  0.00  0.00     0.028 C 
ATOM     10  C   LIG d   1      -5.319  74.840 114.088  0.00  0.00     0.006 C 
ENDBRANCH   8   9
BRANCH   8  11
ATOM     11  C   LIG d   1      -3.514  75.128 115.919  0.00  0.00     0.028 C 
ATOM     12  C   LIG d   1      -2.026  75.337 116.240  0.00  0.00     0.006 C 
ENDBRANCH   8  11
ENDBRANCH   7   8
ENDBRANCH   1   7
BRANCH   6  13
ATOM     13  N   LIG d   1      -7.968  75.477 116.503  0.00  0.00    -0.311 N 
ATOM     14  C   LIG d   1      -7.732  74.241 116.940  0.00  0.00     0.210 C 
ATOM     15  C   LIG d   1      -8.142  73.125 115.975  0.00  0.00     0.109 C 
ATOM     16  O   LIG d   1      -7.252  73.963 118.049  0.00  0.00    -0.276 OA
ATOM     17  H   LIG d   1      -8.390  75.610 115.604  0.00  0.00     0.149 HD
ENDBRANCH   6  13
BRANCH   5  18
ATOM     18  N   LIG d   1      -9.958  77.114 118.145  0.00  0.00     0.381 N 
ATOM     19  H   LIG d   1     -10.153  77.686 118.941  0.00  0.00    -0.090 HD
ATOM     20  H   LIG d   1      -9.711  76.195 118.469  0.00  0.00    -0.090 HD
ATOM     21  H   LIG d   1     -10.762  77.062 117.558  0.00  0.00    -0.090 HD
ENDBRANCH   5  18
BRANCH   3  22
ATOM     22  C   LIG d   1      -7.026  80.872 117.680  0.00  0.00     0.382 C 
ATOM     23  O   LIG d   1      -7.418  81.622 116.754  0.00  0.00    -0.241 OA
ATOM     24  O   LIG d   1      -6.443  81.365 118.664  0.00  0.00    -0.241 OA
ENDBRANCH   3  22
TORSDOF 7
ENDMDL
MODEL 7
REMARK VINA RESULT:      -5.5      1.748      4.863
REMARK  7 active torsions:
REMARK  status: ('A' for Active; 'I' for Inactive)
REMARK    1  A    between atoms: C_2  and  C_3 
REMARK    2  A    between atoms: C_3  and  O_6 
REMARK    3  A    between atoms: C_3  and  C_4 
REMARK    4  A    between atoms: C_7  and  O_6 
REMARK    5  A    between atoms: C_9  and  C_10 
REMARK    6  A    between atoms: N_15  and  C_14 
REMARK    7  A    between atoms: N_20  and  C_19 
REMARK       I    between atoms: C_22  and  N_20 
ROOT
ATOM      1  C   LIG d   1      -6.631  77.219 116.460  0.00  0.00     0.161 C 
ATOM      2  C   LIG d   1      -5.367  77.342 115.858  0.00  0.00     0.016 C 
ATOM      3  C   LIG d   1      -4.530  78.469 116.030  0.00  0.00     0.038 C 
ATOM      4  C   LIG d   1      -4.837  79.488 116.943  0.00  0.00     0.028 C 
ATOM      5  C   LIG d   1      -6.333  79.650 117.190  0.00  0.00    -0.047 C 
ATOM      6  C   LIG d   1      -6.935  78.271 117.547  0.00  0.00     0.091 C 
ENDROOT
BRANCH   1   7
ATOM      7  O   LIG d   1      -6.791  75.889 116.991  0.00  0.00    -0.368 OA
BRANCH   7   8
ATOM      8  C   LIG d   1      -7.193  74.869 116.044  0.00  0.00     0.119 C 
BRANCH   8   9
ATOM      9  C   LIG d   1      -8.555  74.317 116.508  0.00  0.00     0.028 C 
ATOM     10  C   LIG d   1      -9.710  75.291 116.224  0.00  0.00     0.006 C 
ENDBRANCH   8   9
BRANCH   8  11
ATOM     11  C   LIG d   1      -6.238  73.672 116.077  0.00  0.00     0.028 C 
ATOM     12  C   LIG d   1      -6.947  72.336 115.800  0.00  0.00     0.006 C 
ENDBRANCH   8  11
ENDBRANCH   7   8
ENDBRANCH   1   7
BRANCH   6  13
ATOM     13  N   LIG d   1      -8.409  78.324 117.722  0.00  0.00    -0.311 N 
ATOM     14  C   LIG d   1      -9.001  78.559 118.892  0.00  0.00     0.210 C 
ATOM     15  C   LIG d   1     -10.532  78.551 118.856  0.00  0.00     0.109 C 
ATOM     16  O   LIG d   1      -8.403  78.805 119.950  0.00  0.00    -0.276 OA
ATOM     17  H   LIG d   1      -8.971  78.167 116.909  0.00  0.00     0.149 HD
ENDBRANCH   6  13
BRANCH   5  18
ATOM     18  N   LIG d   1      -6.503  80.650 118.261  0.00  0.00     0.381 N 
ATOM     19  H   LIG d   1      -5.810  80.509 118.969  0.00  0.00    -0.090 HD
ATOM     20  H   LIG d   1      -7.409  80.528 118.679  0.00  0.00    -0.090 HD
ATOM     21  H   LIG d   1      -6.423  81.569 117.886  0.00  0.00    -0.090 HD
ENDBRANCH   5  18
BRANCH   3  22
ATOM     22  C   LIG d   1      -3.389  78.602 115.254  0.00  0.00     0.382 C 
ATOM     23  O   LIG d   1      -3.388  78.196 114.067  0.00  0.00    -0.241 OA
ATOM     24  O   LIG d   1      -2.347  79.082 115.739  0.00  0.00    -0.241 OA
ENDBRANCH   3  22
TORSDOF 7
ENDMDL
MODEL 8
REMARK VINA RESULT:      -5.5      1.286      2.166
REMARK  7 active torsions:
REMARK  status: ('A' for Active; 'I' for Inactive)
REMARK    1  A    between atoms: C_2  and  C_3 
REMARK    2  A    between atoms: C_3  and  O_6 
REMARK    3  A    between atoms: C_3  and  C_4 
REMARK    4  A    between atoms: C_7  and  O_6 
REMARK    5  A    between atoms: C_9  and  C_10 
REMARK    6  A    between atoms: N_15  and  C_14 
REMARK    7  A    between atoms: N_20  and  C_19 
REMARK       I    between atoms: C_22  and  N_20 
ROOT
ATOM      1  C   LIG d   1      -6.767  77.216 117.904  0.00  0.00     0.161 C 
ATOM      2  C   LIG d   1      -8.155  77.116 118.099  0.00  0.00     0.016 C 
ATOM      3  C   LIG d   1      -9.028  78.227 118.062  0.00  0.00     0.038 C 
ATOM      4  C   LIG d   1      -8.589  79.503 117.675  0.00  0.00     0.028 C 
ATOM      5  C   LIG d   1      -7.112  79.748 117.962  0.00  0.00    -0.047 C 
ATOM      6  C   LIG d   1      -6.286  78.582 117.372  0.00  0.00     0.091 C 
ENDROOT
BRANCH   1   7
ATOM      7  O   LIG d   1      -6.316  76.155 117.040  0.00  0.00    -0.368 OA
BRANCH   7   8
ATOM      8  C   LIG d   1      -7.272  75.684 116.058  0.00  0.00     0.119 C 
BRANCH   8   9
ATOM      9  C   LIG d   1      -7.316  74.147 116.154  0.00  0.00     0.028 C 
ATOM     10  C   LIG d   1      -8.750  73.609 116.294  0.00  0.00     0.006 C 
ENDBRANCH   8   9
BRANCH   8  11
ATOM     11  C   LIG d   1      -6.800  75.987 114.632  0.00  0.00     0.028 C 
ATOM     12  C   LIG d   1      -5.394  75.440 114.341  0.00  0.00     0.006 C 
ENDBRANCH   8  11
ENDBRANCH   7   8
ENDBRANCH   1   7
BRANCH   6  13
ATOM     13  N   LIG d   1      -4.837  78.701 117.681  0.00  0.00    -0.311 N 
ATOM     14  C   LIG d   1      -3.903  78.907 116.754  0.00  0.00     0.210 C 
ATOM     15  C   LIG d   1      -2.468  78.978 117.285  0.00  0.00     0.109 C 
ATOM     16  O   LIG d   1      -4.131  79.071 115.546  0.00  0.00    -0.276 OA
ATOM     17  H   LIG d   1      -4.567  78.612 118.641  0.00  0.00     0.149 HD
ENDBRANCH   6  13
BRANCH   5  18
ATOM     18  N   LIG d   1      -6.757  81.058 117.386  0.00  0.00     0.381 N 
ATOM     19  H   LIG d   1      -6.788  81.761 118.098  0.00  0.00    -0.090 HD
ATOM     20  H   LIG d   1      -7.431  81.296 116.679  0.00  0.00    -0.090 HD
ATOM     21  H   LIG d   1      -5.845  81.020 116.986  0.00  0.00    -0.090 HD
ENDBRANCH   5  18
BRANCH   3  22
ATOM     22  C   LIG d   1     -10.350  78.076 118.453  0.00  0.00     0.382 C 
ATOM     23  O   LIG d   1     -10.865  78.895 119.251  0.00  0.00    -0.241 OA
ATOM     24  O   LIG d   1     -11.020  77.106 118.051  0.00  0.00    -0.241 OA
ENDBRANCH   3  22
TORSDOF 7
ENDMDL
MODEL 9
REMARK VINA RESULT:      -5.4      2.048      4.322
REMARK  7 active torsions:
REMARK  status: ('A' for Active; 'I' for Inactive)
REMARK    1  A    between atoms: C_2  and  C_3 
REMARK    2  A    between atoms: C_3  and  O_6 
REMARK    3  A    between atoms: C_3  and  C_4 
REMARK    4  A    between atoms: C_7  and  O_6 
REMARK    5  A    between atoms: C_9  and  C_10 
REMARK    6  A    between atoms: N_15  and  C_14 
REMARK    7  A    between atoms: N_20  and  C_19 
REMARK       I    between atoms: C_22  and  N_20 
ROOT
ATOM      1  C   LIG d   1      -7.258  77.760 117.275  0.00  0.00     0.161 C 
ATOM      2  C   LIG d   1      -8.285  78.352 118.029  0.00  0.00     0.016 C 
ATOM      3  C   LIG d   1      -9.575  77.789 118.165  0.00  0.00     0.038 C 
ATOM      4  C   LIG d   1      -9.881  76.511 117.675  0.00  0.00     0.028 C 
ATOM      5  C   LIG d   1      -9.030  76.101 116.477  0.00  0.00    -0.047 C 
ATOM      6  C   LIG d   1      -7.539  76.311 116.826  0.00  0.00     0.091 C 
ENDROOT
BRANCH   1   7
ATOM      7  O   LIG d   1      -6.016  77.827 118.003  0.00  0.00    -0.368 OA
BRANCH   7   8
ATOM      8  C   LIG d   1      -5.069  78.828 117.557  0.00  0.00     0.119 C 
BRANCH   8   9
ATOM      9  C   LIG d   1      -3.830  78.085 117.018  0.00  0.00     0.028 C 
ATOM     10  C   LIG d   1      -3.711  78.177 115.487  0.00  0.00     0.006 C 
ENDBRANCH   8   9
BRANCH   8  11
ATOM     11  C   LIG d   1      -4.557  79.673 118.727  0.00  0.00     0.028 C 
ATOM     12  C   LIG d   1      -5.592  80.698 119.219  0.00  0.00     0.006 C 
ENDBRANCH   8  11
ENDBRANCH   7   8
ENDBRANCH   1   7
BRANCH   6  13
ATOM     13  N   LIG d   1      -6.642  76.014 115.679  0.00  0.00    -0.311 N 
ATOM     14  C   LIG d   1      -6.037  74.840 115.506  0.00  0.00     0.210 C 
ATOM     15  C   LIG d   1      -5.139  74.751 114.268  0.00  0.00     0.109 C 
ATOM     16  O   LIG d   1      -6.183  73.854 116.243  0.00  0.00    -0.276 OA
ATOM     17  H   LIG d   1      -6.492  76.748 115.015  0.00  0.00     0.149 HD
ENDBRANCH   6  13
BRANCH   5  18
ATOM     18  N   LIG d   1      -9.358  74.699 116.157  0.00  0.00     0.381 N 
ATOM     19  H   LIG d   1      -9.444  74.589 115.166  0.00  0.00    -0.090 HD
ATOM     20  H   LIG d   1     -10.240  74.467 116.578  0.00  0.00    -0.090 HD
ATOM     21  H   LIG d   1      -8.646  74.095 116.505  0.00  0.00    -0.090 HD
ENDBRANCH   5  18
BRANCH   3  22
ATOM     22  C   LIG d   1     -10.587  78.525 118.762  0.00  0.00     0.382 C 
ATOM     23  O   LIG d   1     -11.551  77.937 119.308  0.00  0.00    -0.241 OA
ATOM     24  O   LIG d   1     -10.570  79.770 118.723  0.00  0.00    -0.241 OA
ENDBRANCH   3  22
TORSDOF 7
ENDMDL
