MODEL 1
REMARK VINA RESULT:      -6.3      0.000      0.000
REMARK  7 active torsions:
REMARK  status: ('A' for Active; 'I' for Inactive)
REMARK    1  A    between atoms: C_2  and  C_3 
REMARK    2  A    between atoms: C_3  and  O_6 
REMARK    3  A    between atoms: C_3  and  C_4 
REMARK    4  A    between atoms: C_7  and  O_6 
REMARK    5  A    between atoms: C_9  and  C_10 
REMARK    6  A    between atoms: N_15  and  C_14 
REMARK    7  A    between atoms: N_20  and  C_19 
REMARK       I    between atoms: C_22  and  N_20 
ROOT
ATOM      1  C   LIG d   1      -7.220  76.222 117.396  0.00  0.00     0.161 C 
ATOM      2  C   LIG d   1      -8.258  77.132 117.658  0.00  0.00     0.016 C 
ATOM      3  C   LIG d   1      -8.085  78.535 117.643  0.00  0.00     0.038 C 
ATOM      4  C   LIG d   1      -6.890  79.131 117.214  0.00  0.00     0.028 C 
ATOM      5  C   LIG d   1      -5.663  78.249 117.426  0.00  0.00    -0.047 C 
ATOM      6  C   LIG d   1      -5.937  76.855 116.817  0.00  0.00     0.091 C 
ENDROOT
BRANCH   1   7
ATOM      7  O   LIG d   1      -7.696  75.173 116.530  0.00  0.00    -0.368 OA
BRANCH   7   8
ATOM      8  C   LIG d   1      -7.930  73.888 117.156  0.00  0.00     0.119 C 
BRANCH   8   9
ATOM      9  C   LIG d   1      -6.924  72.889 116.551  0.00  0.00     0.028 C 
ATOM     10  C   LIG d   1      -7.618  71.690 115.882  0.00  0.00     0.006 C 
ENDBRANCH   8   9
BRANCH   8  11
ATOM     11  C   LIG d   1      -9.313  73.337 116.798  0.00  0.00     0.028 C 
ATOM     12  C   LIG d   1     -10.361  74.443 116.597  0.00  0.00     0.006 C 
ENDBRANCH   8  11
ENDBRANCH   7   8
ENDBRANCH   1   7
BRANCH   6  13
ATOM     13  N   LIG d   1      -4.820  75.904 117.055  0.00  0.00    -0.311 N 
ATOM     14  C   LIG d   1      -4.165  75.282 116.075  0.00  0.00     0.210 C 
ATOM     15  C   LIG d   1      -3.060  74.328 116.540  0.00  0.00     0.109 C 
ATOM     16  O   LIG d   1      -4.373  75.455 114.865  0.00  0.00    -0.276 OA
ATOM     17  H   LIG d   1      -4.564  75.729 118.007  0.00  0.00     0.149 HD
ENDBRANCH   6  13
BRANCH   5  18
ATOM     18  N   LIG d   1      -4.511  78.933 116.810  0.00  0.00     0.381 N 
ATOM     19  H   LIG d   1      -3.896  78.259 116.399  0.00  0.00    -0.090 HD
ATOM     20  H   LIG d   1      -4.006  79.426 117.525  0.00  0.00    -0.090 HD
ATOM     21  H   LIG d   1      -4.826  79.573 116.114  0.00  0.00    -0.090 HD
ENDBRANCH   5  18
BRANCH   3  22
ATOM     22  C   LIG d   1      -9.104  79.358 118.100  0.00  0.00     0.382 C 
ATOM     23  O   LIG d   1     -10.294  78.965 118.054  0.00  0.00    -0.241 OA
ATOM     24  O   LIG d   1      -8.851  80.505 118.515  0.00  0.00    -0.241 OA
ENDBRANCH   3  22
TORSDOF 7
ENDMDL
MODEL 2
REMARK VINA RESULT:      -6.1      1.723      4.975
REMARK  7 active torsions:
REMARK  status: ('A' for Active; 'I' for Inactive)
REMARK    1  A    between atoms: C_2  and  C_3 
REMARK    2  A    between atoms: C_3  and  O_6 
REMARK    3  A    between atoms: C_3  and  C_4 
REMARK    4  A    between atoms: C_7  and  O_6 
REMARK    5  A    between atoms: C_9  and  C_10 
REMARK    6  A    between atoms: N_15  and  C_14 
REMARK    7  A    between atoms: N_20  and  C_19 
REMARK       I    between atoms: C_22  and  N_20 
ROOT
ATOM      1  C   LIG d   1      -6.124  75.617 115.340  0.00  0.00     0.161 C 
ATOM      2  C   LIG d   1      -4.988  74.908 114.915  0.00  0.00     0.016 C 
ATOM      3  C   LIG d   1      -3.734  74.986 115.564  0.00  0.00     0.038 C 
ATOM      4  C   LIG d   1      -3.570  75.667 116.780  0.00  0.00     0.028 C 
ATOM      5  C   LIG d   1      -4.562  76.808 116.974  0.00  0.00    -0.047 C 
ATOM      6  C   LIG d   1      -5.993  76.277 116.728  0.00  0.00     0.091 C 
ENDROOT
BRANCH   1   7
ATOM      7  O   LIG d   1      -7.279  74.756 115.301  0.00  0.00    -0.368 OA
BRANCH   7   8
ATOM      8  C   LIG d   1      -7.390  73.790 116.375  0.00  0.00     0.119 C 
BRANCH   8   9
ATOM      9  C   LIG d   1      -7.290  72.386 115.747  0.00  0.00     0.028 C 
ATOM     10  C   LIG d   1      -8.471  71.482 116.137  0.00  0.00     0.006 C 
ENDBRANCH   8   9
BRANCH   8  11
ATOM     11  C   LIG d   1      -8.773  73.842 117.031  0.00  0.00     0.028 C 
ATOM     12  C   LIG d   1      -9.665  74.952 116.454  0.00  0.00     0.006 C 
ENDBRANCH   8  11
ENDBRANCH   7   8
ENDBRANCH   1   7
BRANCH   6  13
ATOM     13  N   LIG d   1      -7.018  77.349 116.815  0.00  0.00    -0.311 N 
ATOM     14  C   LIG d   1      -7.575  77.740 117.960  0.00  0.00     0.210 C 
ATOM     15  C   LIG d   1      -8.625  78.847 117.824  0.00  0.00     0.109 C 
ATOM     16  O   LIG d   1      -7.275  77.297 119.080  0.00  0.00    -0.276 OA
ATOM     17  H   LIG d   1      -7.297  77.784 115.958  0.00  0.00     0.149 HD
ENDBRANCH   6  13
BRANCH   5  18
ATOM     18  N   LIG d   1      -4.368  77.340 118.336  0.00  0.00     0.381 N 
ATOM     19  H   LIG d   1      -5.120  77.959 118.568  0.00  0.00    -0.090 HD
ATOM     20  H   LIG d   1      -3.510  77.863 118.362  0.00  0.00    -0.090 HD
ATOM     21  H   LIG d   1      -4.330  76.592 118.992  0.00  0.00    -0.090 HD
ENDBRANCH   5  18
BRANCH   3  22
ATOM     22  C   LIG d   1      -2.618  74.411 114.975  0.00  0.00     0.382 C 
ATOM     23  O   LIG d   1      -1.706  73.934 115.692  0.00  0.00    -0.241 OA
ATOM     24  O   LIG d   1      -2.491  74.404 113.736  0.00  0.00    -0.241 OA
ENDBRANCH   3  22
TORSDOF 7
ENDMDL
MODEL 3
REMARK VINA RESULT:      -6.0      1.680      4.535
REMARK  7 active torsions:
REMARK  status: ('A' for Active; 'I' for Inactive)
REMARK    1  A    between atoms: C_2  and  C_3 
REMARK    2  A    between atoms: C_3  and  O_6 
REMARK    3  A    between atoms: C_3  and  C_4 
REMARK    4  A    between atoms: C_7  and  O_6 
REMARK    5  A    between atoms: C_9  and  C_10 
REMARK    6  A    between atoms: N_15  and  C_14 
REMARK    7  A    between atoms: N_20  and  C_19 
REMARK       I    between atoms: C_22  and  N_20 
ROOT
ATOM      1  C   LIG d   1      -7.364  76.086 116.627  0.00  0.00     0.161 C 
ATOM      2  C   LIG d   1      -6.956  75.632 115.362  0.00  0.00     0.016 C 
ATOM      3  C   LIG d   1      -5.710  75.964 114.781  0.00  0.00     0.038 C 
ATOM      4  C   LIG d   1      -4.719  76.653 115.495  0.00  0.00     0.028 C 
ATOM      5  C   LIG d   1      -5.278  77.561 116.585  0.00  0.00    -0.047 C 
ATOM      6  C   LIG d   1      -6.251  76.746 117.467  0.00  0.00     0.091 C 
ENDROOT
BRANCH   1   7
ATOM      7  O   LIG d   1      -7.971  75.004 117.362  0.00  0.00    -0.368 OA
BRANCH   7   8
ATOM      8  C   LIG d   1      -8.348  73.840 116.587  0.00  0.00     0.119 C 
BRANCH   8   9
ATOM      9  C   LIG d   1      -9.848  73.587 116.832  0.00  0.00     0.028 C 
ATOM     10  C   LIG d   1     -10.683  74.876 116.744  0.00  0.00     0.006 C 
ENDBRANCH   8   9
BRANCH   8  11
ATOM     11  C   LIG d   1      -7.637  72.581 117.090  0.00  0.00     0.028 C 
ATOM     12  C   LIG d   1      -7.261  71.615 115.955  0.00  0.00     0.006 C 
ENDBRANCH   8  11
ENDBRANCH   7   8
ENDBRANCH   1   7
BRANCH   6  13
ATOM     13  N   LIG d   1      -6.907  77.581 118.507  0.00  0.00    -0.311 N 
ATOM     14  C   LIG d   1      -7.575  78.701 118.235  0.00  0.00     0.210 C 
ATOM     15  C   LIG d   1      -8.158  79.420 119.455  0.00  0.00     0.109 C 
ATOM     16  O   LIG d   1      -7.768  79.149 117.095  0.00  0.00    -0.276 OA
ATOM     17  H   LIG d   1      -6.827  77.274 119.457  0.00  0.00     0.149 HD
ENDBRANCH   6  13
BRANCH   5  18
ATOM     18  N   LIG d   1      -4.135  78.110 117.338  0.00  0.00     0.381 N 
ATOM     19  H   LIG d   1      -4.337  79.046 117.627  0.00  0.00    -0.090 HD
ATOM     20  H   LIG d   1      -3.330  78.132 116.737  0.00  0.00    -0.090 HD
ATOM     21  H   LIG d   1      -3.947  77.542 118.135  0.00  0.00    -0.090 HD
ENDBRANCH   5  18
BRANCH   3  22
ATOM     22  C   LIG d   1      -5.462  75.639 113.456  0.00  0.00     0.382 C 
ATOM     23  O   LIG d   1      -4.612  74.760 113.175  0.00  0.00    -0.241 OA
ATOM     24  O   LIG d   1      -6.046  76.244 112.537  0.00  0.00    -0.241 OA
ENDBRANCH   3  22
TORSDOF 7
ENDMDL
MODEL 4
REMARK VINA RESULT:      -5.8     13.616     16.401
REMARK  7 active torsions:
REMARK  status: ('A' for Active; 'I' for Inactive)
REMARK    1  A    between atoms: C_2  and  C_3 
REMARK    2  A    between atoms: C_3  and  O_6 
REMARK    3  A    between atoms: C_3  and  C_4 
REMARK    4  A    between atoms: C_7  and  O_6 
REMARK    5  A    between atoms: C_9  and  C_10 
REMARK    6  A    between atoms: N_15  and  C_14 
REMARK    7  A    between atoms: N_20  and  C_19 
REMARK       I    between atoms: C_22  and  N_20 
ROOT
ATOM      1  C   LIG d   1      -5.572  92.456 117.789  0.00  0.00     0.161 C 
ATOM      2  C   LIG d   1      -6.111  93.584 118.430  0.00  0.00     0.016 C 
ATOM      3  C   LIG d   1      -7.258  94.268 117.966  0.00  0.00     0.038 C 
ATOM      4  C   LIG d   1      -8.037  93.777 116.908  0.00  0.00     0.028 C 
ATOM      5  C   LIG d   1      -7.248  92.927 115.918  0.00  0.00    -0.047 C 
ATOM      6  C   LIG d   1      -6.472  91.840 116.698  0.00  0.00     0.091 C 
ENDROOT
BRANCH   1   7
ATOM      7  O   LIG d   1      -5.218  91.460 118.768  0.00  0.00    -0.368 OA
BRANCH   7   8
ATOM      8  C   LIG d   1      -3.802  91.200 118.932  0.00  0.00     0.119 C 
BRANCH   8   9
ATOM      9  C   LIG d   1      -3.045  92.149 117.982  0.00  0.00     0.028 C 
ATOM     10  C   LIG d   1      -1.943  92.943 118.703  0.00  0.00     0.006 C 
ENDBRANCH   8   9
BRANCH   8  11
ATOM     11  C   LIG d   1      -3.438  89.787 118.467  0.00  0.00     0.028 C 
ATOM     12  C   LIG d   1      -2.427  89.097 119.397  0.00  0.00     0.006 C 
ENDBRANCH   8  11
ENDBRANCH   7   8
ENDBRANCH   1   7
BRANCH   6  13
ATOM     13  N   LIG d   1      -5.607  91.017 115.813  0.00  0.00    -0.311 N 
ATOM     14  C   LIG d   1      -5.766  89.705 115.647  0.00  0.00     0.210 C 
ATOM     15  C   LIG d   1      -4.753  89.045 114.706  0.00  0.00     0.109 C 
ATOM     16  O   LIG d   1      -6.669  89.031 116.166  0.00  0.00    -0.276 OA
ATOM     17  H   LIG d   1      -4.869  91.489 115.329  0.00  0.00     0.149 HD
ENDBRANCH   6  13
BRANCH   5  18
ATOM     18  N   LIG d   1      -8.207  92.368 114.947  0.00  0.00     0.381 N 
ATOM     19  H   LIG d   1      -8.004  92.717 114.032  0.00  0.00    -0.090 HD
ATOM     20  H   LIG d   1      -9.134  92.663 115.199  0.00  0.00    -0.090 HD
ATOM     21  H   LIG d   1      -8.155  91.373 114.950  0.00  0.00    -0.090 HD
ENDBRANCH   5  18
BRANCH   3  22
ATOM     22  C   LIG d   1      -7.614  95.480 118.539  0.00  0.00     0.382 C 
ATOM     23  O   LIG d   1      -7.244  95.755 119.706  0.00  0.00    -0.241 OA
ATOM     24  O   LIG d   1      -8.336  96.283 117.919  0.00  0.00    -0.241 OA
ENDBRANCH   3  22
TORSDOF 7
ENDMDL
MODEL 5
REMARK VINA RESULT:      -5.5      2.105      4.715
REMARK  7 active torsions:
REMARK  status: ('A' for Active; 'I' for Inactive)
REMARK    1  A    between atoms: C_2  and  C_3 
REMARK    2  A    between atoms: C_3  and  O_6 
REMARK    3  A    between atoms: C_3  and  C_4 
REMARK    4  A    between atoms: C_7  and  O_6 
REMARK    5  A    between atoms: C_9  and  C_10 
REMARK    6  A    between atoms: N_15  and  C_14 
REMARK    7  A    between atoms: N_20  and  C_19 
REMARK       I    between atoms: C_22  and  N_20 
ROOT
ATOM      1  C   LIG d   1      -6.791  76.162 115.891  0.00  0.00     0.161 C 
ATOM      2  C   LIG d   1      -8.161  76.155 116.204  0.00  0.00     0.016 C 
ATOM      3  C   LIG d   1      -8.867  74.989 116.579  0.00  0.00     0.038 C 
ATOM      4  C   LIG d   1      -8.214  73.770 116.816  0.00  0.00     0.028 C 
ATOM      5  C   LIG d   1      -6.920  73.613 116.025  0.00  0.00    -0.047 C 
ATOM      6  C   LIG d   1      -6.039  74.864 116.251  0.00  0.00     0.091 C 
ENDROOT
BRANCH   1   7
ATOM      7  O   LIG d   1      -6.155  77.298 116.509  0.00  0.00    -0.368 OA
BRANCH   7   8
ATOM      8  C   LIG d   1      -6.883  77.924 117.594  0.00  0.00     0.119 C 
BRANCH   8   9
ATOM      9  C   LIG d   1      -6.759  79.450 117.414  0.00  0.00     0.028 C 
ATOM     10  C   LIG d   1      -8.083  80.182 117.687  0.00  0.00     0.006 C 
ENDBRANCH   8   9
BRANCH   8  11
ATOM     11  C   LIG d   1      -6.235  77.621 118.948  0.00  0.00     0.028 C 
ATOM     12  C   LIG d   1      -4.733  77.316 118.835  0.00  0.00     0.006 C 
ENDBRANCH   8  11
ENDBRANCH   7   8
ENDBRANCH   1   7
BRANCH   6  13
ATOM     13  N   LIG d   1      -4.790  74.830 115.446  0.00  0.00    -0.311 N 
ATOM     14  C   LIG d   1      -3.575  74.728 115.982  0.00  0.00     0.210 C 
ATOM     15  C   LIG d   1      -2.421  74.731 114.975  0.00  0.00     0.109 C 
ATOM     16  O   LIG d   1      -3.345  74.602 117.195  0.00  0.00    -0.276 OA
ATOM     17  H   LIG d   1      -4.886  74.895 114.452  0.00  0.00     0.149 HD
ENDBRANCH   6  13
BRANCH   5  18
ATOM     18  N   LIG d   1      -6.274  72.364 116.470  0.00  0.00     0.381 N 
ATOM     19  H   LIG d   1      -5.310  72.366 116.202  0.00  0.00    -0.090 HD
ATOM     20  H   LIG d   1      -6.725  71.587 116.018  0.00  0.00    -0.090 HD
ATOM     21  H   LIG d   1      -6.352  72.273 117.459  0.00  0.00    -0.090 HD
ENDBRANCH   5  18
BRANCH   3  22
ATOM     22  C   LIG d   1     -10.249  75.027 116.684  0.00  0.00     0.382 C 
ATOM     23  O   LIG d   1     -10.814  76.038 117.167  0.00  0.00    -0.241 OA
ATOM     24  O   LIG d   1     -10.936  74.045 116.342  0.00  0.00    -0.241 OA
ENDBRANCH   3  22
TORSDOF 7
ENDMDL
MODEL 6
REMARK VINA RESULT:      -5.5     14.214     16.188
REMARK  7 active torsions:
REMARK  status: ('A' for Active; 'I' for Inactive)
REMARK    1  A    between atoms: C_2  and  C_3 
REMARK    2  A    between atoms: C_3  and  O_6 
REMARK    3  A    between atoms: C_3  and  C_4 
REMARK    4  A    between atoms: C_7  and  O_6 
REMARK    5  A    between atoms: C_9  and  C_10 
REMARK    6  A    between atoms: N_15  and  C_14 
REMARK    7  A    between atoms: N_20  and  C_19 
REMARK       I    between atoms: C_22  and  N_20 
ROOT
ATOM      1  C   LIG d   1      -5.851  90.817 118.062  0.00  0.00     0.161 C 
ATOM      2  C   LIG d   1      -5.908  90.370 116.732  0.00  0.00     0.016 C 
ATOM      3  C   LIG d   1      -6.578  91.070 115.703  0.00  0.00     0.038 C 
ATOM      4  C   LIG d   1      -7.114  92.351 115.905  0.00  0.00     0.028 C 
ATOM      5  C   LIG d   1      -7.521  92.616 117.351  0.00  0.00    -0.047 C 
ATOM      6  C   LIG d   1      -6.334  92.267 118.278  0.00  0.00     0.091 C 
ENDROOT
BRANCH   1   7
ATOM      7  O   LIG d   1      -4.515  90.652 118.577  0.00  0.00    -0.368 OA
BRANCH   7   8
ATOM      8  C   LIG d   1      -3.456  90.584 117.590  0.00  0.00     0.119 C 
BRANCH   8   9
ATOM      9  C   LIG d   1      -2.699  89.261 117.815  0.00  0.00     0.028 C 
ATOM     10  C   LIG d   1      -2.503  88.943 119.306  0.00  0.00     0.006 C 
ENDBRANCH   8   9
BRANCH   8  11
ATOM     11  C   LIG d   1      -2.417  91.688 117.811  0.00  0.00     0.028 C 
ATOM     12  C   LIG d   1      -2.787  92.632 118.966  0.00  0.00     0.006 C 
ENDBRANCH   8  11
ENDBRANCH   7   8
ENDBRANCH   1   7
BRANCH   6  13
ATOM     13  N   LIG d   1      -6.676  92.417 119.716  0.00  0.00    -0.311 N 
ATOM     14  C   LIG d   1      -6.413  93.517 120.421  0.00  0.00     0.210 C 
ATOM     15  C   LIG d   1      -6.830  93.456 121.894  0.00  0.00     0.109 C 
ATOM     16  O   LIG d   1      -5.903  94.548 119.958  0.00  0.00    -0.276 OA
ATOM     17  H   LIG d   1      -7.120  91.640 120.164  0.00  0.00     0.149 HD
ENDBRANCH   6  13
BRANCH   5  18
ATOM     18  N   LIG d   1      -7.932  94.029 117.446  0.00  0.00     0.381 N 
ATOM     19  H   LIG d   1      -8.249  94.228 118.374  0.00  0.00    -0.090 HD
ATOM     20  H   LIG d   1      -8.695  94.189 116.811  0.00  0.00    -0.090 HD
ATOM     21  H   LIG d   1      -7.167  94.624 117.213  0.00  0.00    -0.090 HD
ENDBRANCH   5  18
BRANCH   3  22
ATOM     22  C   LIG d   1      -6.753  90.471 114.465  0.00  0.00     0.382 C 
ATOM     23  O   LIG d   1      -6.357  89.296 114.275  0.00  0.00    -0.241 OA
ATOM     24  O   LIG d   1      -7.262  91.106 113.522  0.00  0.00    -0.241 OA
ENDBRANCH   3  22
TORSDOF 7
ENDMDL
MODEL 7
REMARK VINA RESULT:      -5.1      1.956      2.560
REMARK  7 active torsions:
REMARK  status: ('A' for Active; 'I' for Inactive)
REMARK    1  A    between atoms: C_2  and  C_3 
REMARK    2  A    between atoms: C_3  and  O_6 
REMARK    3  A    between atoms: C_3  and  C_4 
REMARK    4  A    between atoms: C_7  and  O_6 
REMARK    5  A    between atoms: C_9  and  C_10 
REMARK    6  A    between atoms: N_15  and  C_14 
REMARK    7  A    between atoms: N_20  and  C_19 
REMARK       I    between atoms: C_22  and  N_20 
ROOT
ATOM      1  C   LIG d   1      -7.428  77.921 117.264  0.00  0.00     0.161 C 
ATOM      2  C   LIG d   1      -8.671  78.485 117.597  0.00  0.00     0.016 C 
ATOM      3  C   LIG d   1      -8.825  79.813 118.059  0.00  0.00     0.038 C 
ATOM      4  C   LIG d   1      -7.756  80.721 118.074  0.00  0.00     0.028 C 
ATOM      5  C   LIG d   1      -6.394  80.051 118.227  0.00  0.00    -0.047 C 
ATOM      6  C   LIG d   1      -6.265  78.931 117.169  0.00  0.00     0.091 C 
ENDROOT
BRANCH   1   7
ATOM      7  O   LIG d   1      -7.544  77.173 116.038  0.00  0.00    -0.368 OA
BRANCH   7   8
ATOM      8  C   LIG d   1      -8.035  75.816 116.163  0.00  0.00     0.119 C 
BRANCH   8   9
ATOM      9  C   LIG d   1      -7.371  75.196 117.408  0.00  0.00     0.028 C 
ATOM     10  C   LIG d   1      -7.684  73.697 117.555  0.00  0.00     0.006 C 
ENDBRANCH   8   9
BRANCH   8  11
ATOM     11  C   LIG d   1      -7.580  74.948 114.986  0.00  0.00     0.028 C 
ATOM     12  C   LIG d   1      -6.140  75.252 114.543  0.00  0.00     0.006 C 
ENDBRANCH   8  11
ENDBRANCH   7   8
ENDBRANCH   1   7
BRANCH   6  13
ATOM     13  N   LIG d   1      -4.996  78.169 117.303  0.00  0.00    -0.311 N 
ATOM     14  C   LIG d   1      -3.918  78.403 116.557  0.00  0.00     0.210 C 
ATOM     15  C   LIG d   1      -2.722  77.489 116.843  0.00  0.00     0.109 C 
ATOM     16  O   LIG d   1      -3.828  79.302 115.707  0.00  0.00    -0.276 OA
ATOM     17  H   LIG d   1      -4.971  77.441 117.991  0.00  0.00     0.149 HD
ENDBRANCH   6  13
BRANCH   5  18
ATOM     18  N   LIG d   1      -5.364  81.098 118.089  0.00  0.00     0.381 N 
ATOM     19  H   LIG d   1      -4.462  80.675 117.999  0.00  0.00    -0.090 HD
ATOM     20  H   LIG d   1      -5.366  81.666 118.918  0.00  0.00    -0.090 HD
ATOM     21  H   LIG d   1      -5.556  81.662 117.291  0.00  0.00    -0.090 HD
ENDBRANCH   5  18
BRANCH   3  22
ATOM     22  C   LIG d   1     -10.052  80.232 118.548  0.00  0.00     0.382 C 
ATOM     23  O   LIG d   1     -10.545  79.680 119.562  0.00  0.00    -0.241 OA
ATOM     24  O   LIG d   1     -10.694  81.125 117.963  0.00  0.00    -0.241 OA
ENDBRANCH   3  22
TORSDOF 7
ENDMDL
MODEL 8
REMARK VINA RESULT:      -5.1      2.692      6.100
REMARK  7 active torsions:
REMARK  status: ('A' for Active; 'I' for Inactive)
REMARK    1  A    between atoms: C_2  and  C_3 
REMARK    2  A    between atoms: C_3  and  O_6 
REMARK    3  A    between atoms: C_3  and  C_4 
REMARK    4  A    between atoms: C_7  and  O_6 
REMARK    5  A    between atoms: C_9  and  C_10 
REMARK    6  A    between atoms: N_15  and  C_14 
REMARK    7  A    between atoms: N_20  and  C_19 
REMARK       I    between atoms: C_22  and  N_20 
ROOT
ATOM      1  C   LIG d   1      -5.755  75.562 116.767  0.00  0.00     0.161 C 
ATOM      2  C   LIG d   1      -4.433  75.200 116.455  0.00  0.00     0.016 C 
ATOM      3  C   LIG d   1      -3.957  75.060 115.131  0.00  0.00     0.038 C 
ATOM      4  C   LIG d   1      -4.734  75.422 114.021  0.00  0.00     0.028 C 
ATOM      5  C   LIG d   1      -6.235  75.309 114.270  0.00  0.00    -0.047 C 
ATOM      6  C   LIG d   1      -6.586  76.068 115.569  0.00  0.00     0.091 C 
ENDROOT
BRANCH   1   7
ATOM      7  O   LIG d   1      -5.757  76.538 117.827  0.00  0.00    -0.368 OA
BRANCH   7   8
ATOM      8  C   LIG d   1      -4.604  77.413 117.890  0.00  0.00     0.119 C 
BRANCH   8   9
ATOM      9  C   LIG d   1      -4.250  77.607 119.377  0.00  0.00     0.028 C 
ATOM     10  C   LIG d   1      -2.756  77.899 119.592  0.00  0.00     0.006 C 
ENDBRANCH   8   9
BRANCH   8  11
ATOM     11  C   LIG d   1      -4.938  78.814 117.366  0.00  0.00     0.028 C 
ATOM     12  C   LIG d   1      -6.413  79.190 117.573  0.00  0.00     0.006 C 
ENDBRANCH   8  11
ENDBRANCH   7   8
ENDBRANCH   1   7
BRANCH   6  13
ATOM     13  N   LIG d   1      -8.022  75.937 115.932  0.00  0.00    -0.311 N 
ATOM     14  C   LIG d   1      -8.616  74.768 116.160  0.00  0.00     0.210 C 
ATOM     15  C   LIG d   1     -10.108  74.856 116.500  0.00  0.00     0.109 C 
ATOM     16  O   LIG d   1      -8.043  73.668 116.146  0.00  0.00    -0.276 OA
ATOM     17  H   LIG d   1      -8.555  76.783 115.996  0.00  0.00     0.149 HD
ENDBRANCH   6  13
BRANCH   5  18
ATOM     18  N   LIG d   1      -6.925  75.846 113.082  0.00  0.00     0.381 N 
ATOM     19  H   LIG d   1      -7.804  75.383 112.962  0.00  0.00    -0.090 HD
ATOM     20  H   LIG d   1      -6.361  75.667 112.269  0.00  0.00    -0.090 HD
ATOM     21  H   LIG d   1      -7.069  76.826 113.185  0.00  0.00    -0.090 HD
ENDBRANCH   5  18
BRANCH   3  22
ATOM     22  C   LIG d   1      -2.702  74.515 114.907  0.00  0.00     0.382 C 
ATOM     23  O   LIG d   1      -2.245  74.452 113.740  0.00  0.00    -0.241 OA
ATOM     24  O   LIG d   1      -2.039  74.046 115.851  0.00  0.00    -0.241 OA
ENDBRANCH   3  22
TORSDOF 7
ENDMDL
MODEL 9
REMARK VINA RESULT:      -5.0      2.241      5.163
REMARK  7 active torsions:
REMARK  status: ('A' for Active; 'I' for Inactive)
REMARK    1  A    between atoms: C_2  and  C_3 
REMARK    2  A    between atoms: C_3  and  O_6 
REMARK    3  A    between atoms: C_3  and  C_4 
REMARK    4  A    between atoms: C_7  and  O_6 
REMARK    5  A    between atoms: C_9  and  C_10 
REMARK    6  A    between atoms: N_15  and  C_14 
REMARK    7  A    between atoms: N_20  and  C_19 
REMARK       I    between atoms: C_22  and  N_20 
ROOT
ATOM      1  C   LIG d   1      -5.864  76.628 115.428  0.00  0.00     0.161 C 
ATOM      2  C   LIG d   1      -6.986  75.799 115.594  0.00  0.00     0.016 C 
ATOM      3  C   LIG d   1      -6.906  74.463 116.048  0.00  0.00     0.038 C 
ATOM      4  C   LIG d   1      -5.704  73.909 116.515  0.00  0.00     0.028 C 
ATOM      5  C   LIG d   1      -4.464  74.541 115.893  0.00  0.00    -0.047 C 
ATOM      6  C   LIG d   1      -4.557  76.078 116.037  0.00  0.00     0.091 C 
ENDROOT
BRANCH   1   7
ATOM      7  O   LIG d   1      -6.145  77.942 115.949  0.00  0.00    -0.368 OA
BRANCH   7   8
ATOM      8  C   LIG d   1      -6.464  78.012 117.361  0.00  0.00     0.119 C 
BRANCH   8   9
ATOM      9  C   LIG d   1      -7.955  78.381 117.481  0.00  0.00     0.028 C 
ATOM     10  C   LIG d   1      -8.173  79.892 117.670  0.00  0.00     0.006 C 
ENDBRANCH   8   9
BRANCH   8  11
ATOM     11  C   LIG d   1      -5.707  79.154 118.046  0.00  0.00     0.028 C 
ATOM     12  C   LIG d   1      -4.542  79.690 117.199  0.00  0.00     0.006 C 
ENDBRANCH   8  11
ENDBRANCH   7   8
ENDBRANCH   1   7
BRANCH   6  13
ATOM     13  N   LIG d   1      -3.424  76.779 115.380  0.00  0.00    -0.311 N 
ATOM     14  C   LIG d   1      -2.302  77.114 116.015  0.00  0.00     0.210 C 
ATOM     15  C   LIG d   1      -1.268  77.849 115.156  0.00  0.00     0.109 C 
ATOM     16  O   LIG d   1      -2.051  76.843 117.199  0.00  0.00    -0.276 OA
ATOM     17  H   LIG d   1      -3.530  77.009 114.411  0.00  0.00     0.149 HD
ENDBRANCH   6  13
BRANCH   5  18
ATOM     18  N   LIG d   1      -3.284  73.968 116.568  0.00  0.00     0.381 N 
ATOM     19  H   LIG d   1      -2.488  74.023 115.965  0.00  0.00    -0.090 HD
ATOM     20  H   LIG d   1      -3.463  72.999 116.767  0.00  0.00    -0.090 HD
ATOM     21  H   LIG d   1      -3.103  74.461 117.415  0.00  0.00    -0.090 HD
ENDBRANCH   5  18
BRANCH   3  22
ATOM     22  C   LIG d   1      -8.030  73.652 116.001  0.00  0.00     0.382 C 
ATOM     23  O   LIG d   1      -7.930  72.464 115.611  0.00  0.00    -0.241 OA
ATOM     24  O   LIG d   1      -9.149  74.107 116.302  0.00  0.00    -0.241 OA
ENDBRANCH   3  22
TORSDOF 7
ENDMDL
