MODEL 1
REMARK VINA RESULT:      -5.7      0.000      0.000
REMARK  7 active torsions:
REMARK  status: ('A' for Active; 'I' for Inactive)
REMARK    1  A    between atoms: C_2  and  C_3 
REMARK    2  A    between atoms: C_3  and  O_6 
REMARK    3  A    between atoms: C_3  and  C_4 
REMARK    4  A    between atoms: C_7  and  O_6 
REMARK    5  A    between atoms: C_9  and  C_10 
REMARK    6  A    between atoms: N_15  and  C_14 
REMARK    7  A    between atoms: N_20  and  C_19 
REMARK       I    between atoms: C_22  and  N_20 
ROOT
ATOM      1  C   LIG d   1      -7.557  76.532 117.576  0.00  0.00     0.161 C 
ATOM      2  C   LIG d   1      -8.625  77.341 117.999  0.00  0.00     0.016 C 
ATOM      3  C   LIG d   1      -8.543  78.749 118.099  0.00  0.00     0.038 C 
ATOM      4  C   LIG d   1      -7.428  79.461 117.635  0.00  0.00     0.028 C 
ATOM      5  C   LIG d   1      -6.135  78.653 117.671  0.00  0.00    -0.047 C 
ATOM      6  C   LIG d   1      -6.369  77.300 116.960  0.00  0.00     0.091 C 
ENDROOT
BRANCH   1   7
ATOM      7  O   LIG d   1      -8.037  75.531 116.658  0.00  0.00    -0.368 OA
BRANCH   7   8
ATOM      8  C   LIG d   1      -8.212  74.199 117.201  0.00  0.00     0.119 C 
BRANCH   8   9
ATOM      9  C   LIG d   1      -7.077  73.318 116.643  0.00  0.00     0.028 C 
ATOM     10  C   LIG d   1      -6.054  72.926 117.722  0.00  0.00     0.006 C 
ENDBRANCH   8   9
BRANCH   8  11
ATOM     11  C   LIG d   1      -9.508  73.558 116.697  0.00  0.00     0.028 C 
ATOM     12  C   LIG d   1      -9.349  72.062 116.380  0.00  0.00     0.006 C 
ENDBRANCH   8  11
ENDBRANCH   7   8
ENDBRANCH   1   7
BRANCH   6  13
ATOM     13  N   LIG d   1      -5.179  76.413 117.024  0.00  0.00    -0.311 N 
ATOM     14  C   LIG d   1      -4.489  76.034 115.949  0.00  0.00     0.210 C 
ATOM     15  C   LIG d   1      -3.308  75.101 116.235  0.00  0.00     0.109 C 
ATOM     16  O   LIG d   1      -4.724  76.406 114.790  0.00  0.00    -0.276 OA
ATOM     17  H   LIG d   1      -4.899  76.089 117.929  0.00  0.00     0.149 HD
ENDBRANCH   6  13
BRANCH   5  18
ATOM     18  N   LIG d   1      -5.083  79.467 117.033  0.00  0.00     0.381 N 
ATOM     19  H   LIG d   1      -4.605  80.006 117.726  0.00  0.00    -0.090 HD
ATOM     20  H   LIG d   1      -5.512  80.100 116.381  0.00  0.00    -0.090 HD
ATOM     21  H   LIG d   1      -4.437  78.876 116.557  0.00  0.00    -0.090 HD
ENDBRANCH   5  18
BRANCH   3  22
ATOM     22  C   LIG d   1      -9.571  79.456 118.706  0.00  0.00     0.382 C 
ATOM     23  O   LIG d   1      -9.918  79.175 119.878  0.00  0.00    -0.241 OA
ATOM     24  O   LIG d   1     -10.184  80.341 118.080  0.00  0.00    -0.241 OA
ENDBRANCH   3  22
TORSDOF 7
ENDMDL
MODEL 2
REMARK VINA RESULT:      -5.6      1.959      2.752
REMARK  7 active torsions:
REMARK  status: ('A' for Active; 'I' for Inactive)
REMARK    1  A    between atoms: C_2  and  C_3 
REMARK    2  A    between atoms: C_3  and  O_6 
REMARK    3  A    between atoms: C_3  and  C_4 
REMARK    4  A    between atoms: C_7  and  O_6 
REMARK    5  A    between atoms: C_9  and  C_10 
REMARK    6  A    between atoms: N_15  and  C_14 
REMARK    7  A    between atoms: N_20  and  C_19 
REMARK       I    between atoms: C_22  and  N_20 
ROOT
ATOM      1  C   LIG d   1      -6.581  74.913 118.249  0.00  0.00     0.161 C 
ATOM      2  C   LIG d   1      -7.893  75.341 117.985  0.00  0.00     0.016 C 
ATOM      3  C   LIG d   1      -8.253  76.700 117.839  0.00  0.00     0.038 C 
ATOM      4  C   LIG d   1      -7.293  77.721 117.797  0.00  0.00     0.028 C 
ATOM      5  C   LIG d   1      -6.017  77.385 118.563  0.00  0.00    -0.047 C 
ATOM      6  C   LIG d   1      -5.502  76.004 118.097  0.00  0.00     0.091 C 
ENDROOT
BRANCH   1   7
ATOM      7  O   LIG d   1      -6.263  73.775 117.424  0.00  0.00    -0.368 OA
BRANCH   7   8
ATOM      8  C   LIG d   1      -6.898  73.734 116.122  0.00  0.00     0.119 C 
BRANCH   8   9
ATOM      9  C   LIG d   1      -7.357  72.284 115.876  0.00  0.00     0.028 C 
ATOM     10  C   LIG d   1      -8.809  72.044 116.324  0.00  0.00     0.006 C 
ENDBRANCH   8   9
BRANCH   8  11
ATOM     11  C   LIG d   1      -5.896  74.037 115.004  0.00  0.00     0.028 C 
ATOM     12  C   LIG d   1      -5.944  75.502 114.541  0.00  0.00     0.006 C 
ENDBRANCH   8  11
ENDBRANCH   7   8
ENDBRANCH   1   7
BRANCH   6  13
ATOM     13  N   LIG d   1      -4.303  75.561 118.856  0.00  0.00    -0.311 N 
ATOM     14  C   LIG d   1      -3.197  75.100 118.275  0.00  0.00     0.210 C 
ATOM     15  C   LIG d   1      -2.087  74.678 119.243  0.00  0.00     0.109 C 
ATOM     16  O   LIG d   1      -3.017  75.030 117.050  0.00  0.00    -0.276 OA
ATOM     17  H   LIG d   1      -4.351  75.613 119.854  0.00  0.00     0.149 HD
ENDBRANCH   6  13
BRANCH   5  18
ATOM     18  N   LIG d   1      -5.053  78.474 118.322  0.00  0.00     0.381 N 
ATOM     19  H   LIG d   1      -5.051  78.717 117.351  0.00  0.00    -0.090 HD
ATOM     20  H   LIG d   1      -4.132  78.154 118.568  0.00  0.00    -0.090 HD
ATOM     21  H   LIG d   1      -5.293  79.270 118.870  0.00  0.00    -0.090 HD
ENDBRANCH   5  18
BRANCH   3  22
ATOM     22  C   LIG d   1      -9.593  77.052 117.772  0.00  0.00     0.382 C 
ATOM     23  O   LIG d   1      -9.951  78.215 118.080  0.00  0.00    -0.241 OA
ATOM     24  O   LIG d   1     -10.452  76.210 117.452  0.00  0.00    -0.241 OA
ENDBRANCH   3  22
TORSDOF 7
ENDMDL
MODEL 3
REMARK VINA RESULT:      -5.2      2.435      5.381
REMARK  7 active torsions:
REMARK  status: ('A' for Active; 'I' for Inactive)
REMARK    1  A    between atoms: C_2  and  C_3 
REMARK    2  A    between atoms: C_3  and  O_6 
REMARK    3  A    between atoms: C_3  and  C_4 
REMARK    4  A    between atoms: C_7  and  O_6 
REMARK    5  A    between atoms: C_9  and  C_10 
REMARK    6  A    between atoms: N_15  and  C_14 
REMARK    7  A    between atoms: N_20  and  C_19 
REMARK       I    between atoms: C_22  and  N_20 
ROOT
ATOM      1  C   LIG d   1      -6.391  74.515 118.489  0.00  0.00     0.161 C 
ATOM      2  C   LIG d   1      -6.715  73.254 117.961  0.00  0.00     0.016 C 
ATOM      3  C   LIG d   1      -7.846  73.020 117.145  0.00  0.00     0.038 C 
ATOM      4  C   LIG d   1      -8.651  74.068 116.675  0.00  0.00     0.028 C 
ATOM      5  C   LIG d   1      -8.655  75.287 117.592  0.00  0.00    -0.047 C 
ATOM      6  C   LIG d   1      -7.195  75.691 117.897  0.00  0.00     0.091 C 
ENDROOT
BRANCH   1   7
ATOM      7  O   LIG d   1      -4.976  74.754 118.350  0.00  0.00    -0.368 OA
BRANCH   7   8
ATOM      8  C   LIG d   1      -4.336  74.142 117.203  0.00  0.00     0.119 C 
BRANCH   8   9
ATOM      9  C   LIG d   1      -2.867  73.873 117.582  0.00  0.00     0.028 C 
ATOM     10  C   LIG d   1      -1.899  74.168 116.423  0.00  0.00     0.006 C 
ENDBRANCH   8   9
BRANCH   8  11
ATOM     11  C   LIG d   1      -4.279  75.107 116.015  0.00  0.00     0.028 C 
ATOM     12  C   LIG d   1      -5.334  74.794 114.942  0.00  0.00     0.006 C 
ENDBRANCH   8  11
ENDBRANCH   7   8
ENDBRANCH   1   7
BRANCH   6  13
ATOM     13  N   LIG d   1      -7.109  76.823 118.855  0.00  0.00    -0.311 N 
ATOM     14  C   LIG d   1      -7.022  78.098 118.479  0.00  0.00     0.210 C 
ATOM     15  C   LIG d   1      -6.923  79.106 119.627  0.00  0.00     0.109 C 
ATOM     16  O   LIG d   1      -7.051  78.491 117.303  0.00  0.00    -0.276 OA
ATOM     17  H   LIG d   1      -7.111  76.597 119.830  0.00  0.00     0.149 HD
ENDBRANCH   6  13
BRANCH   5  18
ATOM     18  N   LIG d   1      -9.421  76.351 116.915  0.00  0.00     0.381 N 
ATOM     19  H   LIG d   1      -9.658  77.067 117.572  0.00  0.00    -0.090 HD
ATOM     20  H   LIG d   1     -10.273  75.959 116.555  0.00  0.00    -0.090 HD
ATOM     21  H   LIG d   1      -8.883  76.737 116.171  0.00  0.00    -0.090 HD
ENDBRANCH   5  18
BRANCH   3  22
ATOM     22  C   LIG d   1      -8.203  71.720 116.823  0.00  0.00     0.382 C 
ATOM     23  O   LIG d   1      -8.956  71.069 117.588  0.00  0.00    -0.241 OA
ATOM     24  O   LIG d   1      -7.748  71.174 115.800  0.00  0.00    -0.241 OA
ENDBRANCH   3  22
TORSDOF 7
ENDMDL
MODEL 4
REMARK VINA RESULT:      -5.2      1.594      2.105
REMARK  7 active torsions:
REMARK  status: ('A' for Active; 'I' for Inactive)
REMARK    1  A    between atoms: C_2  and  C_3 
REMARK    2  A    between atoms: C_3  and  O_6 
REMARK    3  A    between atoms: C_3  and  C_4 
REMARK    4  A    between atoms: C_7  and  O_6 
REMARK    5  A    between atoms: C_9  and  C_10 
REMARK    6  A    between atoms: N_15  and  C_14 
REMARK    7  A    between atoms: N_20  and  C_19 
REMARK       I    between atoms: C_22  and  N_20 
ROOT
ATOM      1  C   LIG d   1      -6.577  76.861 117.647  0.00  0.00     0.161 C 
ATOM      2  C   LIG d   1      -7.294  78.068 117.711  0.00  0.00     0.016 C 
ATOM      3  C   LIG d   1      -6.687  79.340 117.611  0.00  0.00     0.038 C 
ATOM      4  C   LIG d   1      -5.330  79.491 117.286  0.00  0.00     0.028 C 
ATOM      5  C   LIG d   1      -4.470  78.306 117.712  0.00  0.00    -0.047 C 
ATOM      6  C   LIG d   1      -5.113  77.004 117.181  0.00  0.00     0.091 C 
ENDROOT
BRANCH   1   7
ATOM      7  O   LIG d   1      -7.279  75.920 116.811  0.00  0.00    -0.368 OA
BRANCH   7   8
ATOM      8  C   LIG d   1      -8.160  74.994 117.494  0.00  0.00     0.119 C 
BRANCH   8   9
ATOM      9  C   LIG d   1      -7.709  73.568 117.125  0.00  0.00     0.028 C 
ATOM     10  C   LIG d   1      -6.598  73.045 118.052  0.00  0.00     0.006 C 
ENDBRANCH   8   9
BRANCH   8  11
ATOM     11  C   LIG d   1      -9.597  75.111 116.979  0.00  0.00     0.028 C 
ATOM     12  C   LIG d   1     -10.412  76.180 117.724  0.00  0.00     0.006 C 
ENDBRANCH   8  11
ENDBRANCH   7   8
ENDBRANCH   1   7
BRANCH   6  13
ATOM     13  N   LIG d   1      -4.380  75.789 117.624  0.00  0.00    -0.311 N 
ATOM     14  C   LIG d   1      -3.511  75.136 116.855  0.00  0.00     0.210 C 
ATOM     15  C   LIG d   1      -2.881  73.897 117.499  0.00  0.00     0.109 C 
ATOM     16  O   LIG d   1      -3.177  75.483 115.712  0.00  0.00    -0.276 OA
ATOM     17  H   LIG d   1      -4.567  75.456 118.550  0.00  0.00     0.149 HD
ENDBRANCH   6  13
BRANCH   5  18
ATOM     18  N   LIG d   1      -3.109  78.533 117.190  0.00  0.00     0.381 N 
ATOM     19  H   LIG d   1      -3.087  78.344 116.208  0.00  0.00    -0.090 HD
ATOM     20  H   LIG d   1      -2.476  77.902 117.648  0.00  0.00    -0.090 HD
ATOM     21  H   LIG d   1      -2.832  79.475 117.361  0.00  0.00    -0.090 HD
ENDBRANCH   5  18
BRANCH   3  22
ATOM     22  C   LIG d   1      -7.431  80.480 117.877  0.00  0.00     0.382 C 
ATOM     23  O   LIG d   1      -7.572  81.357 116.991  0.00  0.00    -0.241 OA
ATOM     24  O   LIG d   1      -7.926  80.662 119.005  0.00  0.00    -0.241 OA
ENDBRANCH   3  22
TORSDOF 7
ENDMDL
MODEL 5
REMARK VINA RESULT:      -5.2     14.059     15.786
REMARK  7 active torsions:
REMARK  status: ('A' for Active; 'I' for Inactive)
REMARK    1  A    between atoms: C_2  and  C_3 
REMARK    2  A    between atoms: C_3  and  O_6 
REMARK    3  A    between atoms: C_3  and  C_4 
REMARK    4  A    between atoms: C_7  and  O_6 
REMARK    5  A    between atoms: C_9  and  C_10 
REMARK    6  A    between atoms: N_15  and  C_14 
REMARK    7  A    between atoms: N_20  and  C_19 
REMARK       I    between atoms: C_22  and  N_20 
ROOT
ATOM      1  C   LIG d   1      -5.170  91.020 117.766  0.00  0.00     0.161 C 
ATOM      2  C   LIG d   1      -5.708  90.979 116.469  0.00  0.00     0.016 C 
ATOM      3  C   LIG d   1      -6.893  91.654 116.096  0.00  0.00     0.038 C 
ATOM      4  C   LIG d   1      -7.543  92.545 116.963  0.00  0.00     0.028 C 
ATOM      5  C   LIG d   1      -7.321  92.225 118.437  0.00  0.00    -0.047 C 
ATOM      6  C   LIG d   1      -5.804  92.076 118.695  0.00  0.00     0.091 C 
ENDROOT
BRANCH   1   7
ATOM      7  O   LIG d   1      -3.743  91.205 117.697  0.00  0.00    -0.368 OA
BRANCH   7   8
ATOM      8  C   LIG d   1      -2.937  90.197 118.355  0.00  0.00     0.119 C 
BRANCH   8   9
ATOM      9  C   LIG d   1      -1.614  90.865 118.778  0.00  0.00     0.028 C 
ATOM     10  C   LIG d   1      -1.837  92.089 119.681  0.00  0.00     0.006 C 
ENDBRANCH   8   9
BRANCH   8  11
ATOM     11  C   LIG d   1      -2.536  89.082 117.384  0.00  0.00     0.028 C 
ATOM     12  C   LIG d   1      -1.018  88.847 117.340  0.00  0.00     0.006 C 
ENDBRANCH   8  11
ENDBRANCH   7   8
ENDBRANCH   1   7
BRANCH   6  13
ATOM     13  N   LIG d   1      -5.504  91.680 120.096  0.00  0.00    -0.311 N 
ATOM     14  C   LIG d   1      -5.222  92.554 121.061  0.00  0.00     0.210 C 
ATOM     15  C   LIG d   1      -4.923  91.933 122.429  0.00  0.00     0.109 C 
ATOM     16  O   LIG d   1      -5.223  93.786 120.921  0.00  0.00    -0.276 OA
ATOM     17  H   LIG d   1      -5.512  90.701 120.305  0.00  0.00     0.149 HD
ENDBRANCH   6  13
BRANCH   5  18
ATOM     18  N   LIG d   1      -7.937  93.309 119.226  0.00  0.00     0.381 N 
ATOM     19  H   LIG d   1      -7.707  93.197 120.193  0.00  0.00    -0.090 HD
ATOM     20  H   LIG d   1      -8.936  93.253 119.130  0.00  0.00    -0.090 HD
ATOM     21  H   LIG d   1      -7.614  94.194 118.901  0.00  0.00    -0.090 HD
ENDBRANCH   5  18
BRANCH   3  22
ATOM     22  C   LIG d   1      -7.462  91.409 114.855  0.00  0.00     0.382 C 
ATOM     23  O   LIG d   1      -8.363  90.544 114.738  0.00  0.00    -0.241 OA
ATOM     24  O   LIG d   1      -7.055  92.011 113.844  0.00  0.00    -0.241 OA
ENDBRANCH   3  22
TORSDOF 7
ENDMDL
MODEL 6
REMARK VINA RESULT:      -5.1     14.218     16.715
REMARK  7 active torsions:
REMARK  status: ('A' for Active; 'I' for Inactive)
REMARK    1  A    between atoms: C_2  and  C_3 
REMARK    2  A    between atoms: C_3  and  O_6 
REMARK    3  A    between atoms: C_3  and  C_4 
REMARK    4  A    between atoms: C_7  and  O_6 
REMARK    5  A    between atoms: C_9  and  C_10 
REMARK    6  A    between atoms: N_15  and  C_14 
REMARK    7  A    between atoms: N_20  and  C_19 
REMARK       I    between atoms: C_22  and  N_20 
ROOT
ATOM      1  C   LIG d   1      -5.959  91.841 119.013  0.00  0.00     0.161 C 
ATOM      2  C   LIG d   1      -6.127  91.111 117.825  0.00  0.00     0.016 C 
ATOM      3  C   LIG d   1      -7.038  91.479 116.808  0.00  0.00     0.038 C 
ATOM      4  C   LIG d   1      -7.737  92.695 116.843  0.00  0.00     0.028 C 
ATOM      5  C   LIG d   1      -7.976  93.215 118.257  0.00  0.00    -0.047 C 
ATOM      6  C   LIG d   1      -6.632  93.230 119.020  0.00  0.00     0.091 C 
ENDROOT
BRANCH   1   7
ATOM      7  O   LIG d   1      -4.555  91.963 119.317  0.00  0.00    -0.368 OA
BRANCH   7   8
ATOM      8  C   LIG d   1      -3.641  91.683 118.228  0.00  0.00     0.119 C 
BRANCH   8   9
ATOM      9  C   LIG d   1      -2.797  90.459 118.635  0.00  0.00     0.028 C 
ATOM     10  C   LIG d   1      -2.795  89.363 117.557  0.00  0.00     0.006 C 
ENDBRANCH   8   9
BRANCH   8  11
ATOM     11  C   LIG d   1      -2.636  92.823 118.036  0.00  0.00     0.028 C 
ATOM     12  C   LIG d   1      -2.756  93.910 119.115  0.00  0.00     0.006 C 
ENDBRANCH   8  11
ENDBRANCH   7   8
ENDBRANCH   1   7
BRANCH   6  13
ATOM     13  N   LIG d   1      -6.789  93.646 120.438  0.00  0.00    -0.311 N 
ATOM     14  C   LIG d   1      -6.262  94.763 120.937  0.00  0.00     0.210 C 
ATOM     15  C   LIG d   1      -6.528  94.993 122.428  0.00  0.00     0.109 C 
ATOM     16  O   LIG d   1      -5.627  95.600 120.279  0.00  0.00    -0.276 OA
ATOM     17  H   LIG d   1      -7.317  93.040 121.035  0.00  0.00     0.149 HD
ENDBRANCH   6  13
BRANCH   5  18
ATOM     18  N   LIG d   1      -8.590  94.551 118.142  0.00  0.00     0.381 N 
ATOM     19  H   LIG d   1      -8.595  94.840 117.184  0.00  0.00    -0.090 HD
ATOM     20  H   LIG d   1      -8.039  95.208 118.666  0.00  0.00    -0.090 HD
ATOM     21  H   LIG d   1      -9.521  94.530 118.495  0.00  0.00    -0.090 HD
ENDBRANCH   5  18
BRANCH   3  22
ATOM     22  C   LIG d   1      -7.286  90.607 115.759  0.00  0.00     0.382 C 
ATOM     23  O   LIG d   1      -6.609  89.556 115.644  0.00  0.00    -0.241 OA
ATOM     24  O   LIG d   1      -8.147  90.879 114.901  0.00  0.00    -0.241 OA
ENDBRANCH   3  22
TORSDOF 7
ENDMDL
MODEL 7
REMARK VINA RESULT:      -5.1     14.124     15.849
REMARK  7 active torsions:
REMARK  status: ('A' for Active; 'I' for Inactive)
REMARK    1  A    between atoms: C_2  and  C_3 
REMARK    2  A    between atoms: C_3  and  O_6 
REMARK    3  A    between atoms: C_3  and  C_4 
REMARK    4  A    between atoms: C_7  and  O_6 
REMARK    5  A    between atoms: C_9  and  C_10 
REMARK    6  A    between atoms: N_15  and  C_14 
REMARK    7  A    between atoms: N_20  and  C_19 
REMARK       I    between atoms: C_22  and  N_20 
ROOT
ATOM      1  C   LIG d   1      -5.789  91.936 118.404  0.00  0.00     0.161 C 
ATOM      2  C   LIG d   1      -6.717  91.887 117.351  0.00  0.00     0.016 C 
ATOM      3  C   LIG d   1      -6.526  91.118 116.180  0.00  0.00     0.038 C 
ATOM      4  C   LIG d   1      -5.455  90.221 116.049  0.00  0.00     0.028 C 
ATOM      5  C   LIG d   1      -4.231  90.615 116.868  0.00  0.00    -0.047 C 
ATOM      6  C   LIG d   1      -4.668  90.878 118.328  0.00  0.00     0.091 C 
ENDROOT
BRANCH   1   7
ATOM      7  O   LIG d   1      -6.477  91.846 119.667  0.00  0.00    -0.368 OA
BRANCH   7   8
ATOM      8  C   LIG d   1      -7.202  93.029 120.084  0.00  0.00     0.119 C 
BRANCH   8   9
ATOM      9  C   LIG d   1      -6.241  94.228 119.962  0.00  0.00     0.028 C 
ATOM     10  C   LIG d   1      -6.867  95.406 119.197  0.00  0.00     0.006 C 
ENDBRANCH   8   9
BRANCH   8  11
ATOM     11  C   LIG d   1      -7.577  92.960 121.567  0.00  0.00     0.028 C 
ATOM     12  C   LIG d   1      -6.990  91.727 122.273  0.00  0.00     0.006 C 
ENDBRANCH   8  11
ENDBRANCH   7   8
ENDBRANCH   1   7
BRANCH   6  13
ATOM     13  N   LIG d   1      -3.545  91.351 119.179  0.00  0.00    -0.311 N 
ATOM     14  C   LIG d   1      -2.783  90.536 119.906  0.00  0.00     0.210 C 
ATOM     15  C   LIG d   1      -1.693  91.231 120.727  0.00  0.00     0.109 C 
ATOM     16  O   LIG d   1      -2.885  89.300 119.923  0.00  0.00    -0.276 OA
ATOM     17  H   LIG d   1      -3.371  92.337 119.199  0.00  0.00     0.149 HD
ENDBRANCH   6  13
BRANCH   5  18
ATOM     18  N   LIG d   1      -3.244  89.525 116.748  0.00  0.00     0.381 N 
ATOM     19  H   LIG d   1      -2.665  89.501 117.563  0.00  0.00    -0.090 HD
ATOM     20  H   LIG d   1      -2.659  89.703 115.951  0.00  0.00    -0.090 HD
ATOM     21  H   LIG d   1      -3.712  88.653 116.637  0.00  0.00    -0.090 HD
ENDBRANCH   5  18
BRANCH   3  22
ATOM     22  C   LIG d   1      -7.391  91.272 115.108  0.00  0.00     0.382 C 
ATOM     23  O   LIG d   1      -8.384  90.515 114.989  0.00  0.00    -0.241 OA
ATOM     24  O   LIG d   1      -7.167  92.130 114.233  0.00  0.00    -0.241 OA
ENDBRANCH   3  22
TORSDOF 7
ENDMDL
MODEL 8
REMARK VINA RESULT:      -5.1     18.555     20.570
REMARK  7 active torsions:
REMARK  status: ('A' for Active; 'I' for Inactive)
REMARK    1  A    between atoms: C_2  and  C_3 
REMARK    2  A    between atoms: C_3  and  O_6 
REMARK    3  A    between atoms: C_3  and  C_4 
REMARK    4  A    between atoms: C_7  and  O_6 
REMARK    5  A    between atoms: C_9  and  C_10 
REMARK    6  A    between atoms: N_15  and  C_14 
REMARK    7  A    between atoms: N_20  and  C_19 
REMARK       I    between atoms: C_22  and  N_20 
ROOT
ATOM      1  C   LIG d   1       0.165  57.153 119.360  0.00  0.00     0.161 C 
ATOM      2  C   LIG d   1       1.424  57.093 119.979  0.00  0.00     0.016 C 
ATOM      3  C   LIG d   1       2.586  57.689 119.439  0.00  0.00     0.038 C 
ATOM      4  C   LIG d   1       2.537  58.520 118.309  0.00  0.00     0.028 C 
ATOM      5  C   LIG d   1       1.381  58.196 117.369  0.00  0.00    -0.047 C 
ATOM      6  C   LIG d   1       0.069  58.149 118.185  0.00  0.00     0.091 C 
ENDROOT
BRANCH   1   7
ATOM      7  O   LIG d   1      -0.850  57.439 120.342  0.00  0.00    -0.368 OA
BRANCH   7   8
ATOM      8  C   LIG d   1      -1.093  58.840 120.620  0.00  0.00     0.119 C 
BRANCH   8   9
ATOM      9  C   LIG d   1      -0.692  59.098 122.085  0.00  0.00     0.028 C 
ATOM     10  C   LIG d   1       0.634  59.868 122.204  0.00  0.00     0.006 C 
ENDBRANCH   8   9
BRANCH   8  11
ATOM     11  C   LIG d   1      -2.586  59.173 120.543  0.00  0.00     0.028 C 
ATOM     12  C   LIG d   1      -3.447  57.961 120.153  0.00  0.00     0.006 C 
ENDBRANCH   8  11
ENDBRANCH   7   8
ENDBRANCH   1   7
BRANCH   6  13
ATOM     13  N   LIG d   1      -1.100  57.755 117.356  0.00  0.00    -0.311 N 
ATOM     14  C   LIG d   1      -1.980  58.628 116.868  0.00  0.00     0.210 C 
ATOM     15  C   LIG d   1      -3.122  58.009 116.055  0.00  0.00     0.109 C 
ATOM     16  O   LIG d   1      -1.906  59.858 117.003  0.00  0.00    -0.276 OA
ATOM     17  H   LIG d   1      -1.220  56.778 117.170  0.00  0.00     0.149 HD
ENDBRANCH   6  13
BRANCH   5  18
ATOM     18  N   LIG d   1       1.367  59.222 116.310  0.00  0.00     0.381 N 
ATOM     19  H   LIG d   1       0.878  60.034 116.631  0.00  0.00    -0.090 HD
ATOM     20  H   LIG d   1       0.880  58.858 115.510  0.00  0.00    -0.090 HD
ATOM     21  H   LIG d   1       2.299  59.465 116.058  0.00  0.00    -0.090 HD
ENDBRANCH   5  18
BRANCH   3  22
ATOM     22  C   LIG d   1       3.823  57.423 120.007  0.00  0.00     0.382 C 
ATOM     23  O   LIG d   1       3.934  56.523 120.874  0.00  0.00    -0.241 OA
ATOM     24  O   LIG d   1       4.820  58.102 119.696  0.00  0.00    -0.241 OA
ENDBRANCH   3  22
TORSDOF 7
ENDMDL
MODEL 9
REMARK VINA RESULT:      -5.1     13.392     15.238
REMARK  7 active torsions:
REMARK  status: ('A' for Active; 'I' for Inactive)
REMARK    1  A    between atoms: C_2  and  C_3 
REMARK    2  A    between atoms: C_3  and  O_6 
REMARK    3  A    between atoms: C_3  and  C_4 
REMARK    4  A    between atoms: C_7  and  O_6 
REMARK    5  A    between atoms: C_9  and  C_10 
REMARK    6  A    between atoms: N_15  and  C_14 
REMARK    7  A    between atoms: N_20  and  C_19 
REMARK       I    between atoms: C_22  and  N_20 
ROOT
ATOM      1  C   LIG d   1      -4.644  91.194 118.303  0.00  0.00     0.161 C 
ATOM      2  C   LIG d   1      -4.246  91.695 119.554  0.00  0.00     0.016 C 
ATOM      3  C   LIG d   1      -5.086  92.473 120.384  0.00  0.00     0.038 C 
ATOM      4  C   LIG d   1      -6.441  92.678 120.084  0.00  0.00     0.028 C 
ATOM      5  C   LIG d   1      -6.747  92.617 118.591  0.00  0.00    -0.047 C 
ATOM      6  C   LIG d   1      -6.155  91.313 118.010  0.00  0.00     0.091 C 
ENDROOT
BRANCH   1   7
ATOM      7  O   LIG d   1      -4.214  89.826 118.166  0.00  0.00    -0.368 OA
BRANCH   7   8
ATOM      8  C   LIG d   1      -2.834  89.554 118.513  0.00  0.00     0.119 C 
BRANCH   8   9
ATOM      9  C   LIG d   1      -2.130  89.038 117.242  0.00  0.00     0.028 C 
ATOM     10  C   LIG d   1      -0.635  89.398 117.213  0.00  0.00     0.006 C 
ENDBRANCH   8   9
BRANCH   8  11
ATOM     11  C   LIG d   1      -2.729  88.410 119.526  0.00  0.00     0.028 C 
ATOM     12  C   LIG d   1      -2.180  88.869 120.887  0.00  0.00     0.006 C 
ENDBRANCH   8  11
ENDBRANCH   7   8
ENDBRANCH   1   7
BRANCH   6  13
ATOM     13  N   LIG d   1      -6.336  91.215 116.538  0.00  0.00    -0.311 N 
ATOM     14  C   LIG d   1      -7.057  90.262 115.950  0.00  0.00     0.210 C 
ATOM     15  C   LIG d   1      -7.098  90.333 114.421  0.00  0.00     0.109 C 
ATOM     16  O   LIG d   1      -7.693  89.384 116.552  0.00  0.00    -0.276 OA
ATOM     17  H   LIG d   1      -5.880  91.906 115.975  0.00  0.00     0.149 HD
ENDBRANCH   6  13
BRANCH   5  18
ATOM     18  N   LIG d   1      -8.211  92.709 118.432  0.00  0.00     0.381 N 
ATOM     19  H   LIG d   1      -8.433  93.377 117.721  0.00  0.00    -0.090 HD
ATOM     20  H   LIG d   1      -8.613  93.024 119.297  0.00  0.00    -0.090 HD
ATOM     21  H   LIG d   1      -8.584  91.818 118.189  0.00  0.00    -0.090 HD
ENDBRANCH   5  18
BRANCH   3  22
ATOM     22  C   LIG d   1      -4.560  93.090 121.509  0.00  0.00     0.382 C 
ATOM     23  O   LIG d   1      -3.486  92.674 122.007  0.00  0.00    -0.241 OA
ATOM     24  O   LIG d   1      -5.168  94.028 122.057  0.00  0.00    -0.241 OA
ENDBRANCH   3  22
TORSDOF 7
ENDMDL
