MODEL 1
REMARK VINA RESULT:      -6.0      0.000      0.000
REMARK  7 active torsions:
REMARK  status: ('A' for Active; 'I' for Inactive)
REMARK    1  A    between atoms: C_2  and  C_3 
REMARK    2  A    between atoms: C_3  and  O_6 
REMARK    3  A    between atoms: C_3  and  C_4 
REMARK    4  A    between atoms: C_7  and  O_6 
REMARK    5  A    between atoms: C_9  and  C_10 
REMARK    6  A    between atoms: N_15  and  C_14 
REMARK    7  A    between atoms: N_20  and  C_19 
REMARK       I    between atoms: C_22  and  N_20 
ROOT
ATOM      1  C   LIG d   1      -4.498  90.761 117.498  0.00  0.00     0.161 C 
ATOM      2  C   LIG d   1      -4.999  90.220 116.302  0.00  0.00     0.016 C 
ATOM      3  C   LIG d   1      -6.099  90.767 115.602  0.00  0.00     0.038 C 
ATOM      4  C   LIG d   1      -6.681  91.988 115.974  0.00  0.00     0.028 C 
ATOM      5  C   LIG d   1      -6.536  92.302 117.459  0.00  0.00    -0.047 C 
ATOM      6  C   LIG d   1      -5.050  92.156 117.859  0.00  0.00     0.091 C 
ENDROOT
BRANCH   1   7
ATOM      7  O   LIG d   1      -3.058  90.787 117.457  0.00  0.00    -0.368 OA
BRANCH   7   8
ATOM      8  C   LIG d   1      -2.388  89.548 117.796  0.00  0.00     0.119 C 
BRANCH   8   9
ATOM      9  C   LIG d   1      -2.857  89.138 119.206  0.00  0.00     0.028 C 
ATOM     10  C   LIG d   1      -1.995  89.763 120.316  0.00  0.00     0.006 C 
ENDBRANCH   8   9
BRANCH   8  11
ATOM     11  C   LIG d   1      -0.874  89.747 117.915  0.00  0.00     0.028 C 
ATOM     12  C   LIG d   1      -0.104  89.197 116.704  0.00  0.00     0.006 C 
ENDBRANCH   8  11
ENDBRANCH   7   8
ENDBRANCH   1   7
BRANCH   6  13
ATOM     13  N   LIG d   1      -4.831  92.363 119.314  0.00  0.00    -0.311 N 
ATOM     14  C   LIG d   1      -3.987  93.267 119.808  0.00  0.00     0.210 C 
ATOM     15  C   LIG d   1      -3.898  93.303 121.337  0.00  0.00     0.109 C 
ATOM     16  O   LIG d   1      -3.326  94.065 119.125  0.00  0.00    -0.276 OA
ATOM     17  H   LIG d   1      -5.350  91.780 119.941  0.00  0.00     0.149 HD
ENDBRANCH   6  13
BRANCH   5  18
ATOM     18  N   LIG d   1      -7.063  93.662 117.681  0.00  0.00     0.381 N 
ATOM     19  H   LIG d   1      -6.483  94.330 117.215  0.00  0.00    -0.090 HD
ATOM     20  H   LIG d   1      -7.045  93.860 118.666  0.00  0.00    -0.090 HD
ATOM     21  H   LIG d   1      -7.996  93.725 117.339  0.00  0.00    -0.090 HD
ENDBRANCH   5  18
BRANCH   3  22
ATOM     22  C   LIG d   1      -6.653  90.069 114.540  0.00  0.00     0.382 C 
ATOM     23  O   LIG d   1      -7.847  90.273 114.211  0.00  0.00    -0.241 OA
ATOM     24  O   LIG d   1      -5.989  89.207 113.935  0.00  0.00    -0.241 OA
ENDBRANCH   3  22
TORSDOF 7
ENDMDL
MODEL 2
REMARK VINA RESULT:      -5.7      2.223      4.453
REMARK  7 active torsions:
REMARK  status: ('A' for Active; 'I' for Inactive)
REMARK    1  A    between atoms: C_2  and  C_3 
REMARK    2  A    between atoms: C_3  and  O_6 
REMARK    3  A    between atoms: C_3  and  C_4 
REMARK    4  A    between atoms: C_7  and  O_6 
REMARK    5  A    between atoms: C_9  and  C_10 
REMARK    6  A    between atoms: N_15  and  C_14 
REMARK    7  A    between atoms: N_20  and  C_19 
REMARK       I    between atoms: C_22  and  N_20 
ROOT
ATOM      1  C   LIG d   1      -5.576  92.014 118.024  0.00  0.00     0.161 C 
ATOM      2  C   LIG d   1      -6.365  91.961 116.862  0.00  0.00     0.016 C 
ATOM      3  C   LIG d   1      -6.116  91.068 115.794  0.00  0.00     0.038 C 
ATOM      4  C   LIG d   1      -5.147  90.059 115.881  0.00  0.00     0.028 C 
ATOM      5  C   LIG d   1      -3.998  90.402 116.824  0.00  0.00    -0.047 C 
ATOM      6  C   LIG d   1      -4.582  90.845 118.185  0.00  0.00     0.091 C 
ENDROOT
BRANCH   1   7
ATOM      7  O   LIG d   1      -6.423  92.115 119.185  0.00  0.00    -0.368 OA
BRANCH   7   8
ATOM      8  C   LIG d   1      -6.519  93.427 119.793  0.00  0.00     0.119 C 
BRANCH   8   9
ATOM      9  C   LIG d   1      -6.415  93.239 121.319  0.00  0.00     0.028 C 
ATOM     10  C   LIG d   1      -6.093  91.787 121.711  0.00  0.00     0.006 C 
ENDBRANCH   8   9
BRANCH   8  11
ATOM     11  C   LIG d   1      -7.896  94.053 119.554  0.00  0.00     0.028 C 
ATOM     12  C   LIG d   1      -7.893  95.078 118.409  0.00  0.00     0.006 C 
ENDBRANCH   8  11
ENDBRANCH   7   8
ENDBRANCH   1   7
BRANCH   6  13
ATOM     13  N   LIG d   1      -3.528  91.279 119.139  0.00  0.00    -0.311 N 
ATOM     14  C   LIG d   1      -2.875  90.440 119.941  0.00  0.00     0.210 C 
ATOM     15  C   LIG d   1      -1.842  91.098 120.861  0.00  0.00     0.109 C 
ATOM     16  O   LIG d   1      -3.030  89.210 119.955  0.00  0.00    -0.276 OA
ATOM     17  H   LIG d   1      -3.317  92.257 119.171  0.00  0.00     0.149 HD
ENDBRANCH   6  13
BRANCH   5  18
ATOM     18  N   LIG d   1      -3.134  89.210 116.926  0.00  0.00     0.381 N 
ATOM     19  H   LIG d   1      -2.180  89.492 117.030  0.00  0.00    -0.090 HD
ATOM     20  H   LIG d   1      -3.215  88.677 116.078  0.00  0.00    -0.090 HD
ATOM     21  H   LIG d   1      -3.411  88.654 117.705  0.00  0.00    -0.090 HD
ENDBRANCH   5  18
BRANCH   3  22
ATOM     22  C   LIG d   1      -6.817  91.208 114.606  0.00  0.00     0.382 C 
ATOM     23  O   LIG d   1      -6.750  92.282 113.961  0.00  0.00    -0.241 OA
ATOM     24  O   LIG d   1      -7.550  90.289 114.193  0.00  0.00    -0.241 OA
ENDBRANCH   3  22
TORSDOF 7
ENDMDL
MODEL 3
REMARK VINA RESULT:      -5.5      1.554      2.264
REMARK  7 active torsions:
REMARK  status: ('A' for Active; 'I' for Inactive)
REMARK    1  A    between atoms: C_2  and  C_3 
REMARK    2  A    between atoms: C_3  and  O_6 
REMARK    3  A    between atoms: C_3  and  C_4 
REMARK    4  A    between atoms: C_7  and  O_6 
REMARK    5  A    between atoms: C_9  and  C_10 
REMARK    6  A    between atoms: N_15  and  C_14 
REMARK    7  A    between atoms: N_20  and  C_19 
REMARK       I    between atoms: C_22  and  N_20 
ROOT
ATOM      1  C   LIG d   1      -5.491  91.249 118.581  0.00  0.00     0.161 C 
ATOM      2  C   LIG d   1      -5.596  90.586 117.347  0.00  0.00     0.016 C 
ATOM      3  C   LIG d   1      -6.364  91.074 116.265  0.00  0.00     0.038 C 
ATOM      4  C   LIG d   1      -6.962  92.342 116.292  0.00  0.00     0.028 C 
ATOM      5  C   LIG d   1      -7.302  92.822 117.699  0.00  0.00    -0.047 C 
ATOM      6  C   LIG d   1      -6.046  92.689 118.591  0.00  0.00     0.091 C 
ENDROOT
BRANCH   1   7
ATOM      7  O   LIG d   1      -4.120  91.238 119.027  0.00  0.00    -0.368 OA
BRANCH   7   8
ATOM      8  C   LIG d   1      -3.121  91.536 118.021  0.00  0.00     0.119 C 
BRANCH   8   9
ATOM      9  C   LIG d   1      -1.960  90.540 118.213  0.00  0.00     0.028 C 
ATOM     10  C   LIG d   1      -2.410  89.239 118.899  0.00  0.00     0.006 C 
ENDBRANCH   8   9
BRANCH   8  11
ATOM     11  C   LIG d   1      -2.506  92.922 118.241  0.00  0.00     0.028 C 
ATOM     12  C   LIG d   1      -2.498  93.343 119.719  0.00  0.00     0.006 C 
ENDBRANCH   8  11
ENDBRANCH   7   8
ENDBRANCH   1   7
BRANCH   6  13
ATOM     13  N   LIG d   1      -6.314  93.058 120.005  0.00  0.00    -0.311 N 
ATOM     14  C   LIG d   1      -6.080  94.271 120.504  0.00  0.00     0.210 C 
ATOM     15  C   LIG d   1      -6.408  94.433 121.991  0.00  0.00     0.109 C 
ATOM     16  O   LIG d   1      -5.662  95.236 119.847  0.00  0.00    -0.276 OA
ATOM     17  H   LIG d   1      -6.683  92.343 120.601  0.00  0.00     0.149 HD
ENDBRANCH   6  13
BRANCH   5  18
ATOM     18  N   LIG d   1      -7.790  94.209 117.591  0.00  0.00     0.381 N 
ATOM     19  H   LIG d   1      -7.165  94.827 118.071  0.00  0.00    -0.090 HD
ATOM     20  H   LIG d   1      -8.692  94.271 118.029  0.00  0.00    -0.090 HD
ATOM     21  H   LIG d   1      -7.859  94.473 116.633  0.00  0.00    -0.090 HD
ENDBRANCH   5  18
BRANCH   3  22
ATOM     22  C   LIG d   1      -6.573  90.270 115.154  0.00  0.00     0.382 C 
ATOM     23  O   LIG d   1      -5.781  89.332 114.901  0.00  0.00    -0.241 OA
ATOM     24  O   LIG d   1      -7.520  90.500 114.377  0.00  0.00    -0.241 OA
ENDBRANCH   3  22
TORSDOF 7
ENDMDL
MODEL 4
REMARK VINA RESULT:      -5.3     10.384     12.640
REMARK  7 active torsions:
REMARK  status: ('A' for Active; 'I' for Inactive)
REMARK    1  A    between atoms: C_2  and  C_3 
REMARK    2  A    between atoms: C_3  and  O_6 
REMARK    3  A    between atoms: C_3  and  C_4 
REMARK    4  A    between atoms: C_7  and  O_6 
REMARK    5  A    between atoms: C_9  and  C_10 
REMARK    6  A    between atoms: N_15  and  C_14 
REMARK    7  A    between atoms: N_20  and  C_19 
REMARK       I    between atoms: C_22  and  N_20 
ROOT
ATOM      1  C   LIG d   1      -2.184  80.526 115.246  0.00  0.00     0.161 C 
ATOM      2  C   LIG d   1      -2.078  81.927 115.271  0.00  0.00     0.016 C 
ATOM      3  C   LIG d   1      -1.410  82.674 114.274  0.00  0.00     0.038 C 
ATOM      4  C   LIG d   1      -0.932  82.079 113.097  0.00  0.00     0.028 C 
ATOM      5  C   LIG d   1      -0.571  80.607 113.266  0.00  0.00    -0.047 C 
ATOM      6  C   LIG d   1      -1.765  79.870 113.914  0.00  0.00     0.091 C 
ENDROOT
BRANCH   1   7
ATOM      7  O   LIG d   1      -3.525  80.132 115.599  0.00  0.00    -0.368 OA
BRANCH   7   8
ATOM      8  C   LIG d   1      -3.714  79.660 116.956  0.00  0.00     0.119 C 
BRANCH   8   9
ATOM      9  C   LIG d   1      -3.873  78.128 116.895  0.00  0.00     0.028 C 
ATOM     10  C   LIG d   1      -2.662  77.389 117.489  0.00  0.00     0.006 C 
ENDBRANCH   8   9
BRANCH   8  11
ATOM     11  C   LIG d   1      -5.027  80.181 117.549  0.00  0.00     0.028 C 
ATOM     12  C   LIG d   1      -6.068  79.070 117.757  0.00  0.00     0.006 C 
ENDBRANCH   8  11
ENDBRANCH   7   8
ENDBRANCH   1   7
BRANCH   6  13
ATOM     13  N   LIG d   1      -1.465  78.441 114.192  0.00  0.00    -0.311 N 
ATOM     14  C   LIG d   1      -2.155  77.431 113.665  0.00  0.00     0.210 C 
ATOM     15  C   LIG d   1      -1.693  76.036 114.098  0.00  0.00     0.109 C 
ATOM     16  O   LIG d   1      -3.085  77.557 112.854  0.00  0.00    -0.276 OA
ATOM     17  H   LIG d   1      -0.706  78.247 114.815  0.00  0.00     0.149 HD
ENDBRANCH   6  13
BRANCH   5  18
ATOM     18  N   LIG d   1      -0.219  80.079 111.934  0.00  0.00     0.381 N 
ATOM     19  H   LIG d   1       0.750  80.243 111.750  0.00  0.00    -0.090 HD
ATOM     20  H   LIG d   1      -0.758  80.565 111.239  0.00  0.00    -0.090 HD
ATOM     21  H   LIG d   1      -0.413  79.103 111.893  0.00  0.00    -0.090 HD
ENDBRANCH   5  18
BRANCH   3  22
ATOM     22  C   LIG d   1      -1.181  84.028 114.468  0.00  0.00     0.382 C 
ATOM     23  O   LIG d   1      -0.051  84.426 114.839  0.00  0.00    -0.241 OA
ATOM     24  O   LIG d   1      -2.103  84.853 114.319  0.00  0.00    -0.241 OA
ENDBRANCH   3  22
TORSDOF 7
ENDMDL
MODEL 5
REMARK VINA RESULT:      -5.2     27.356     29.051
REMARK  7 active torsions:
REMARK  status: ('A' for Active; 'I' for Inactive)
REMARK    1  A    between atoms: C_2  and  C_3 
REMARK    2  A    between atoms: C_3  and  O_6 
REMARK    3  A    between atoms: C_3  and  C_4 
REMARK    4  A    between atoms: C_7  and  O_6 
REMARK    5  A    between atoms: C_9  and  C_10 
REMARK    6  A    between atoms: N_15  and  C_14 
REMARK    7  A    between atoms: N_20  and  C_19 
REMARK       I    between atoms: C_22  and  N_20 
ROOT
ATOM      1  C   LIG d   1     -16.091  64.926 116.791  0.00  0.00     0.161 C 
ATOM      2  C   LIG d   1     -15.740  65.661 115.647  0.00  0.00     0.016 C 
ATOM      3  C   LIG d   1     -16.212  65.354 114.350  0.00  0.00     0.038 C 
ATOM      4  C   LIG d   1     -17.194  64.377 114.130  0.00  0.00     0.028 C 
ATOM      5  C   LIG d   1     -17.200  63.276 115.185  0.00  0.00    -0.047 C 
ATOM      6  C   LIG d   1     -17.249  63.926 116.587  0.00  0.00     0.091 C 
ENDROOT
BRANCH   1   7
ATOM      7  O   LIG d   1     -16.392  65.825 117.877  0.00  0.00    -0.368 OA
BRANCH   7   8
ATOM      8  C   LIG d   1     -15.515  66.970 118.017  0.00  0.00     0.119 C 
BRANCH   8   9
ATOM      9  C   LIG d   1     -14.666  66.750 119.283  0.00  0.00     0.028 C 
ATOM     10  C   LIG d   1     -14.939  67.809 120.365  0.00  0.00     0.006 C 
ENDBRANCH   8   9
BRANCH   8  11
ATOM     11  C   LIG d   1     -16.311  68.252 118.280  0.00  0.00     0.028 C 
ATOM     12  C   LIG d   1     -16.498  69.107 117.017  0.00  0.00     0.006 C 
ENDBRANCH   8  11
ENDBRANCH   7   8
ENDBRANCH   1   7
BRANCH   6  13
ATOM     13  N   LIG d   1     -17.173  62.921 117.680  0.00  0.00    -0.311 N 
ATOM     14  C   LIG d   1     -18.246  62.388 118.262  0.00  0.00     0.210 C 
ATOM     15  C   LIG d   1     -17.945  61.387 119.381  0.00  0.00     0.109 C 
ATOM     16  O   LIG d   1     -19.419  62.625 117.935  0.00  0.00    -0.276 OA
ATOM     17  H   LIG d   1     -16.260  62.648 117.986  0.00  0.00     0.149 HD
ENDBRANCH   6  13
BRANCH   5  18
ATOM     18  N   LIG d   1     -18.358  62.404 114.912  0.00  0.00     0.381 N 
ATOM     19  H   LIG d   1     -18.045  61.540 114.516  0.00  0.00    -0.090 HD
ATOM     20  H   LIG d   1     -18.957  62.858 114.246  0.00  0.00    -0.090 HD
ATOM     21  H   LIG d   1     -18.859  62.228 115.755  0.00  0.00    -0.090 HD
ENDBRANCH   5  18
BRANCH   3  22
ATOM     22  C   LIG d   1     -15.670  66.003 113.250  0.00  0.00     0.382 C 
ATOM     23  O   LIG d   1     -15.961  65.620 112.091  0.00  0.00    -0.241 OA
ATOM     24  O   LIG d   1     -14.860  66.937 113.404  0.00  0.00    -0.241 OA
ENDBRANCH   3  22
TORSDOF 7
ENDMDL
MODEL 6
REMARK VINA RESULT:      -4.9      3.900      6.371
REMARK  7 active torsions:
REMARK  status: ('A' for Active; 'I' for Inactive)
REMARK    1  A    between atoms: C_2  and  C_3 
REMARK    2  A    between atoms: C_3  and  O_6 
REMARK    3  A    between atoms: C_3  and  C_4 
REMARK    4  A    between atoms: C_7  and  O_6 
REMARK    5  A    between atoms: C_9  and  C_10 
REMARK    6  A    between atoms: N_15  and  C_14 
REMARK    7  A    between atoms: N_20  and  C_19 
REMARK       I    between atoms: C_22  and  N_20 
ROOT
ATOM      1  C   LIG d   1       0.651  89.358 116.840  0.00  0.00     0.161 C 
ATOM      2  C   LIG d   1      -0.724  89.073 116.876  0.00  0.00     0.016 C 
ATOM      3  C   LIG d   1      -1.671  89.890 117.536  0.00  0.00     0.038 C 
ATOM      4  C   LIG d   1      -1.324  91.135 118.081  0.00  0.00     0.028 C 
ATOM      5  C   LIG d   1       0.137  91.223 118.509  0.00  0.00    -0.047 C 
ATOM      6  C   LIG d   1       1.032  90.769 117.334  0.00  0.00     0.091 C 
ENDROOT
BRANCH   1   7
ATOM      7  O   LIG d   1       1.161  89.137 115.510  0.00  0.00    -0.368 OA
BRANCH   7   8
ATOM      8  C   LIG d   1       2.180  88.116 115.379  0.00  0.00     0.119 C 
BRANCH   8   9
ATOM      9  C   LIG d   1       3.058  88.489 114.170  0.00  0.00     0.028 C 
ATOM     10  C   LIG d   1       4.067  89.602 114.498  0.00  0.00     0.006 C 
ENDBRANCH   8   9
BRANCH   8  11
ATOM     11  C   LIG d   1       1.565  86.757 115.030  0.00  0.00     0.028 C 
ATOM     12  C   LIG d   1       1.996  86.246 113.646  0.00  0.00     0.006 C 
ENDBRANCH   8  11
ENDBRANCH   7   8
ENDBRANCH   1   7
BRANCH   6  13
ATOM     13  N   LIG d   1       2.473  90.745 117.696  0.00  0.00    -0.311 N 
ATOM     14  C   LIG d   1       3.291  91.781 117.520  0.00  0.00     0.210 C 
ATOM     15  C   LIG d   1       4.743  91.538 117.942  0.00  0.00     0.109 C 
ATOM     16  O   LIG d   1       2.944  92.890 117.085  0.00  0.00    -0.276 OA
ATOM     17  H   LIG d   1       2.832  89.895 118.084  0.00  0.00     0.149 HD
ENDBRANCH   6  13
BRANCH   5  18
ATOM     18  N   LIG d   1       0.395  92.613 118.929  0.00  0.00     0.381 N 
ATOM     19  H   LIG d   1       1.365  92.827 118.815  0.00  0.00    -0.090 HD
ATOM     20  H   LIG d   1       0.163  92.707 119.903  0.00  0.00    -0.090 HD
ATOM     21  H   LIG d   1      -0.157  93.241 118.387  0.00  0.00    -0.090 HD
ENDBRANCH   5  18
BRANCH   3  22
ATOM     22  C   LIG d   1      -2.975  89.443 117.691  0.00  0.00     0.382 C 
ATOM     23  O   LIG d   1      -3.809  89.611 116.769  0.00  0.00    -0.241 OA
ATOM     24  O   LIG d   1      -3.338  88.913 118.758  0.00  0.00    -0.241 OA
ENDBRANCH   3  22
TORSDOF 7
ENDMDL
MODEL 7
REMARK VINA RESULT:      -4.9     11.321     13.311
REMARK  7 active torsions:
REMARK  status: ('A' for Active; 'I' for Inactive)
REMARK    1  A    between atoms: C_2  and  C_3 
REMARK    2  A    between atoms: C_3  and  O_6 
REMARK    3  A    between atoms: C_3  and  C_4 
REMARK    4  A    between atoms: C_7  and  O_6 
REMARK    5  A    between atoms: C_9  and  C_10 
REMARK    6  A    between atoms: N_15  and  C_14 
REMARK    7  A    between atoms: N_20  and  C_19 
REMARK       I    between atoms: C_22  and  N_20 
ROOT
ATOM      1  C   LIG d   1      -1.862  79.418 116.156  0.00  0.00     0.161 C 
ATOM      2  C   LIG d   1      -2.224  80.440 115.263  0.00  0.00     0.016 C 
ATOM      3  C   LIG d   1      -2.433  80.228 113.881  0.00  0.00     0.038 C 
ATOM      4  C   LIG d   1      -2.442  78.941 113.321  0.00  0.00     0.028 C 
ATOM      5  C   LIG d   1      -1.586  77.941 114.090  0.00  0.00    -0.047 C 
ATOM      6  C   LIG d   1      -1.977  77.989 115.585  0.00  0.00     0.091 C 
ENDROOT
BRANCH   1   7
ATOM      7  O   LIG d   1      -2.631  79.535 117.370  0.00  0.00    -0.368 OA
BRANCH   7   8
ATOM      8  C   LIG d   1      -3.942  80.138 117.238  0.00  0.00     0.119 C 
BRANCH   8   9
ATOM      9  C   LIG d   1      -4.084  81.186 118.358  0.00  0.00     0.028 C 
ATOM     10  C   LIG d   1      -2.737  81.819 118.744  0.00  0.00     0.006 C 
ENDBRANCH   8   9
BRANCH   8  11
ATOM     11  C   LIG d   1      -5.054  79.116 117.495  0.00  0.00     0.028 C 
ATOM     12  C   LIG d   1      -5.436  79.012 118.980  0.00  0.00     0.006 C 
ENDBRANCH   8  11
ENDBRANCH   7   8
ENDBRANCH   1   7
BRANCH   6  13
ATOM     13  N   LIG d   1      -1.128  77.101 116.421  0.00  0.00    -0.311 N 
ATOM     14  C   LIG d   1      -1.402  75.815 116.635  0.00  0.00     0.210 C 
ATOM     15  C   LIG d   1      -0.408  75.086 117.545  0.00  0.00     0.109 C 
ATOM     16  O   LIG d   1      -2.354  75.201 116.132  0.00  0.00    -0.276 OA
ATOM     17  H   LIG d   1      -0.317  77.509 116.843  0.00  0.00     0.149 HD
ENDBRANCH   6  13
BRANCH   5  18
ATOM     18  N   LIG d   1      -1.796  76.614 113.480  0.00  0.00     0.381 N 
ATOM     19  H   LIG d   1      -2.701  76.266 113.728  0.00  0.00    -0.090 HD
ATOM     20  H   LIG d   1      -1.105  75.978 113.838  0.00  0.00    -0.090 HD
ATOM     21  H   LIG d   1      -1.717  76.677 112.489  0.00  0.00    -0.090 HD
ENDBRANCH   5  18
BRANCH   3  22
ATOM     22  C   LIG d   1      -2.597  81.315 113.036  0.00  0.00     0.382 C 
ATOM     23  O   LIG d   1      -1.790  82.274 113.084  0.00  0.00    -0.241 OA
ATOM     24  O   LIG d   1      -3.567  81.368 112.256  0.00  0.00    -0.241 OA
ENDBRANCH   3  22
TORSDOF 7
ENDMDL
MODEL 8
REMARK VINA RESULT:      -4.9     10.883     12.127
REMARK  7 active torsions:
REMARK  status: ('A' for Active; 'I' for Inactive)
REMARK    1  A    between atoms: C_2  and  C_3 
REMARK    2  A    between atoms: C_3  and  O_6 
REMARK    3  A    between atoms: C_3  and  C_4 
REMARK    4  A    between atoms: C_7  and  O_6 
REMARK    5  A    between atoms: C_9  and  C_10 
REMARK    6  A    between atoms: N_15  and  C_14 
REMARK    7  A    between atoms: N_20  and  C_19 
REMARK       I    between atoms: C_22  and  N_20 
ROOT
ATOM      1  C   LIG d   1      -5.410  79.110 117.664  0.00  0.00     0.161 C 
ATOM      2  C   LIG d   1      -6.667  78.496 117.791  0.00  0.00     0.016 C 
ATOM      3  C   LIG d   1      -7.862  79.210 118.038  0.00  0.00     0.038 C 
ATOM      4  C   LIG d   1      -7.903  80.613 118.025  0.00  0.00     0.028 C 
ATOM      5  C   LIG d   1      -6.576  81.261 118.404  0.00  0.00    -0.047 C 
ATOM      6  C   LIG d   1      -5.452  80.648 117.537  0.00  0.00     0.091 C 
ENDROOT
BRANCH   1   7
ATOM      7  O   LIG d   1      -4.694  78.535 116.554  0.00  0.00    -0.368 OA
BRANCH   7   8
ATOM      8  C   LIG d   1      -3.807  77.434 116.869  0.00  0.00     0.119 C 
BRANCH   8   9
ATOM      9  C   LIG d   1      -2.380  78.006 116.974  0.00  0.00     0.028 C 
ATOM     10  C   LIG d   1      -1.932  78.202 118.433  0.00  0.00     0.006 C 
ENDBRANCH   8   9
BRANCH   8  11
ATOM     11  C   LIG d   1      -3.752  76.417 115.725  0.00  0.00     0.028 C 
ATOM     12  C   LIG d   1      -2.336  75.876 115.476  0.00  0.00     0.006 C 
ENDBRANCH   8  11
ENDBRANCH   7   8
ENDBRANCH   1   7
BRANCH   6  13
ATOM     13  N   LIG d   1      -4.108  81.166 117.902  0.00  0.00    -0.311 N 
ATOM     14  C   LIG d   1      -3.208  81.566 117.005  0.00  0.00     0.210 C 
ATOM     15  C   LIG d   1      -1.878  82.046 117.593  0.00  0.00     0.109 C 
ATOM     16  O   LIG d   1      -3.398  81.599 115.779  0.00  0.00    -0.276 OA
ATOM     17  H   LIG d   1      -3.882  81.203 118.876  0.00  0.00     0.149 HD
ENDBRANCH   6  13
BRANCH   5  18
ATOM     18  N   LIG d   1      -6.721  82.717 118.217  0.00  0.00     0.381 N 
ATOM     19  H   LIG d   1      -6.546  82.954 117.261  0.00  0.00    -0.090 HD
ATOM     20  H   LIG d   1      -6.042  83.188 118.788  0.00  0.00    -0.090 HD
ATOM     21  H   LIG d   1      -7.639  83.004 118.475  0.00  0.00    -0.090 HD
ENDBRANCH   5  18
BRANCH   3  22
ATOM     22  C   LIG d   1      -9.025  78.520 118.341  0.00  0.00     0.382 C 
ATOM     23  O   LIG d   1      -9.179  77.342 117.937  0.00  0.00    -0.241 OA
ATOM     24  O   LIG d   1      -9.942  79.075 118.976  0.00  0.00    -0.241 OA
ENDBRANCH   3  22
TORSDOF 7
ENDMDL
MODEL 9
REMARK VINA RESULT:      -4.8      4.311      7.162
REMARK  7 active torsions:
REMARK  status: ('A' for Active; 'I' for Inactive)
REMARK    1  A    between atoms: C_2  and  C_3 
REMARK    2  A    between atoms: C_3  and  O_6 
REMARK    3  A    between atoms: C_3  and  C_4 
REMARK    4  A    between atoms: C_7  and  O_6 
REMARK    5  A    between atoms: C_9  and  C_10 
REMARK    6  A    between atoms: N_15  and  C_14 
REMARK    7  A    between atoms: N_20  and  C_19 
REMARK       I    between atoms: C_22  and  N_20 
ROOT
ATOM      1  C   LIG d   1       0.876  88.822 116.536  0.00  0.00     0.161 C 
ATOM      2  C   LIG d   1      -0.501  88.912 116.799  0.00  0.00     0.016 C 
ATOM      3  C   LIG d   1      -1.124  90.080 117.295  0.00  0.00     0.038 C 
ATOM      4  C   LIG d   1      -0.431  91.294 117.420  0.00  0.00     0.028 C 
ATOM      5  C   LIG d   1       1.066  91.116 117.646  0.00  0.00    -0.047 C 
ATOM      6  C   LIG d   1       1.628  90.169 116.562  0.00  0.00     0.091 C 
ENDROOT
BRANCH   1   7
ATOM      7  O   LIG d   1       1.091  88.151 115.279  0.00  0.00    -0.368 OA
BRANCH   7   8
ATOM      8  C   LIG d   1       1.468  86.755 115.357  0.00  0.00     0.119 C 
BRANCH   8   9
ATOM      9  C   LIG d   1       2.762  86.578 114.539  0.00  0.00     0.028 C 
ATOM     10  C   LIG d   1       3.955  86.156 115.412  0.00  0.00     0.006 C 
ENDBRANCH   8   9
BRANCH   8  11
ATOM     11  C   LIG d   1       0.431  85.858 114.675  0.00  0.00     0.028 C 
ATOM     12  C   LIG d   1       0.940  85.254 113.357  0.00  0.00     0.006 C 
ENDBRANCH   8  11
ENDBRANCH   7   8
ENDBRANCH   1   7
BRANCH   6  13
ATOM     13  N   LIG d   1       3.072  89.874 116.759  0.00  0.00    -0.311 N 
ATOM     14  C   LIG d   1       3.965  89.891 115.771  0.00  0.00     0.210 C 
ATOM     15  C   LIG d   1       5.396  89.538 116.188  0.00  0.00     0.109 C 
ATOM     16  O   LIG d   1       3.714  90.196 114.596  0.00  0.00    -0.276 OA
ATOM     17  H   LIG d   1       3.368  89.648 117.688  0.00  0.00     0.149 HD
ENDBRANCH   6  13
BRANCH   5  18
ATOM     18  N   LIG d   1       1.683  92.455 117.621  0.00  0.00     0.381 N 
ATOM     19  H   LIG d   1       2.490  92.446 117.029  0.00  0.00    -0.090 HD
ATOM     20  H   LIG d   1       1.977  92.696 118.551  0.00  0.00    -0.090 HD
ATOM     21  H   LIG d   1       1.026  93.127 117.288  0.00  0.00    -0.090 HD
ENDBRANCH   5  18
BRANCH   3  22
ATOM     22  C   LIG d   1      -2.446  90.030 117.710  0.00  0.00     0.382 C 
ATOM     23  O   LIG d   1      -3.117  91.087 117.793  0.00  0.00    -0.241 OA
ATOM     24  O   LIG d   1      -2.963  88.948 118.045  0.00  0.00    -0.241 OA
ENDBRANCH   3  22
TORSDOF 7
ENDMDL
