MODEL 1
REMARK VINA RESULT:      -5.8      0.000      0.000
REMARK  7 active torsions:
REMARK  status: ('A' for Active; 'I' for Inactive)
REMARK    1  A    between atoms: C_2  and  C_3 
REMARK    2  A    between atoms: C_3  and  O_6 
REMARK    3  A    between atoms: C_3  and  C_4 
REMARK    4  A    between atoms: C_7  and  O_6 
REMARK    5  A    between atoms: C_9  and  C_10 
REMARK    6  A    between atoms: N_15  and  C_14 
REMARK    7  A    between atoms: N_20  and  C_19 
REMARK       I    between atoms: C_22  and  N_20 
ROOT
ATOM      1  C   LIG d   1      -3.056  77.372 116.046  0.00  0.00     0.161 C 
ATOM      2  C   LIG d   1      -3.277  78.340 115.052  0.00  0.00     0.016 C 
ATOM      3  C   LIG d   1      -2.394  78.560 113.970  0.00  0.00     0.038 C 
ATOM      4  C   LIG d   1      -1.299  77.718 113.724  0.00  0.00     0.028 C 
ATOM      5  C   LIG d   1      -0.756  77.047 114.981  0.00  0.00    -0.047 C 
ATOM      6  C   LIG d   1      -1.925  76.370 115.733  0.00  0.00     0.091 C 
ENDROOT
BRANCH   1   7
ATOM      7  O   LIG d   1      -4.284  76.670 116.326  0.00  0.00    -0.368 OA
BRANCH   7   8
ATOM      8  C   LIG d   1      -5.133  76.391 115.185  0.00  0.00     0.119 C 
BRANCH   8   9
ATOM      9  C   LIG d   1      -6.582  76.717 115.596  0.00  0.00     0.028 C 
ATOM     10  C   LIG d   1      -6.653  77.528 116.901  0.00  0.00     0.006 C 
ENDBRANCH   8   9
BRANCH   8  11
ATOM     11  C   LIG d   1      -5.134  74.898 114.844  0.00  0.00     0.028 C 
ATOM     12  C   LIG d   1      -5.891  74.051 115.878  0.00  0.00     0.006 C 
ENDBRANCH   8  11
ENDBRANCH   7   8
ENDBRANCH   1   7
BRANCH   6  13
ATOM     13  N   LIG d   1      -1.495  75.761 117.019  0.00  0.00    -0.311 N 
ATOM     14  C   LIG d   1      -1.025  74.519 117.120  0.00  0.00     0.210 C 
ATOM     15  C   LIG d   1      -0.657  74.081 118.542  0.00  0.00     0.109 C 
ATOM     16  O   LIG d   1      -0.847  73.750 116.164  0.00  0.00    -0.276 OA
ATOM     17  H   LIG d   1      -1.576  76.327 117.841  0.00  0.00     0.149 HD
ENDBRANCH   6  13
BRANCH   5  18
ATOM     18  N   LIG d   1       0.290  76.096 114.562  0.00  0.00     0.381 N 
ATOM     19  H   LIG d   1       1.180  76.553 114.551  0.00  0.00    -0.090 HD
ATOM     20  H   LIG d   1       0.087  75.779 113.630  0.00  0.00    -0.090 HD
ATOM     21  H   LIG d   1       0.315  75.320 115.186  0.00  0.00    -0.090 HD
ENDBRANCH   5  18
BRANCH   3  22
ATOM     22  C   LIG d   1      -2.580  79.657 113.143  0.00  0.00     0.382 C 
ATOM     23  O   LIG d   1      -3.346  80.586 113.498  0.00  0.00    -0.241 OA
ATOM     24  O   LIG d   1      -2.028  79.709 112.028  0.00  0.00    -0.241 OA
ENDBRANCH   3  22
TORSDOF 7
ENDMDL
MODEL 2
REMARK VINA RESULT:      -5.5      2.554      4.666
REMARK  7 active torsions:
REMARK  status: ('A' for Active; 'I' for Inactive)
REMARK    1  A    between atoms: C_2  and  C_3 
REMARK    2  A    between atoms: C_3  and  O_6 
REMARK    3  A    between atoms: C_3  and  C_4 
REMARK    4  A    between atoms: C_7  and  O_6 
REMARK    5  A    between atoms: C_9  and  C_10 
REMARK    6  A    between atoms: N_15  and  C_14 
REMARK    7  A    between atoms: N_20  and  C_19 
REMARK       I    between atoms: C_22  and  N_20 
ROOT
ATOM      1  C   LIG d   1      -2.881  74.855 115.661  0.00  0.00     0.161 C 
ATOM      2  C   LIG d   1      -1.978  75.622 114.906  0.00  0.00     0.016 C 
ATOM      3  C   LIG d   1      -2.381  76.558 113.926  0.00  0.00     0.038 C 
ATOM      4  C   LIG d   1      -3.728  76.903 113.740  0.00  0.00     0.028 C 
ATOM      5  C   LIG d   1      -4.697  75.790 114.125  0.00  0.00    -0.047 C 
ATOM      6  C   LIG d   1      -4.355  75.298 115.550  0.00  0.00     0.091 C 
ENDROOT
BRANCH   1   7
ATOM      7  O   LIG d   1      -2.467  74.832 117.041  0.00  0.00    -0.368 OA
BRANCH   7   8
ATOM      8  C   LIG d   1      -1.594  75.909 117.463  0.00  0.00     0.119 C 
BRANCH   8   9
ATOM      9  C   LIG d   1      -0.535  75.304 118.405  0.00  0.00     0.028 C 
ATOM     10  C   LIG d   1      -0.744  73.797 118.632  0.00  0.00     0.006 C 
ENDBRANCH   8   9
BRANCH   8  11
ATOM     11  C   LIG d   1      -2.348  76.938 118.309  0.00  0.00     0.028 C 
ATOM     12  C   LIG d   1      -2.780  78.172 117.501  0.00  0.00     0.006 C 
ENDBRANCH   8  11
ENDBRANCH   7   8
ENDBRANCH   1   7
BRANCH   6  13
ATOM     13  N   LIG d   1      -5.202  74.152 115.972  0.00  0.00    -0.311 N 
ATOM     14  C   LIG d   1      -6.356  74.294 116.623  0.00  0.00     0.210 C 
ATOM     15  C   LIG d   1      -7.061  72.982 116.982  0.00  0.00     0.109 C 
ATOM     16  O   LIG d   1      -6.878  75.382 116.908  0.00  0.00    -0.276 OA
ATOM     17  H   LIG d   1      -4.869  73.234 115.754  0.00  0.00     0.149 HD
ENDBRANCH   6  13
BRANCH   5  18
ATOM     18  N   LIG d   1      -6.064  76.332 114.013  0.00  0.00     0.381 N 
ATOM     19  H   LIG d   1      -6.049  77.186 113.492  0.00  0.00    -0.090 HD
ATOM     20  H   LIG d   1      -6.412  76.531 114.934  0.00  0.00    -0.090 HD
ATOM     21  H   LIG d   1      -6.657  75.670 113.562  0.00  0.00    -0.090 HD
ENDBRANCH   5  18
BRANCH   3  22
ATOM     22  C   LIG d   1      -1.433  77.131 113.092  0.00  0.00     0.382 C 
ATOM     23  O   LIG d   1      -1.151  76.587 111.997  0.00  0.00    -0.241 OA
ATOM     24  O   LIG d   1      -0.824  78.160 113.440  0.00  0.00    -0.241 OA
ENDBRANCH   3  22
TORSDOF 7
ENDMDL
MODEL 3
REMARK VINA RESULT:      -5.2      2.263      4.823
REMARK  7 active torsions:
REMARK  status: ('A' for Active; 'I' for Inactive)
REMARK    1  A    between atoms: C_2  and  C_3 
REMARK    2  A    between atoms: C_3  and  O_6 
REMARK    3  A    between atoms: C_3  and  C_4 
REMARK    4  A    between atoms: C_7  and  O_6 
REMARK    5  A    between atoms: C_9  and  C_10 
REMARK    6  A    between atoms: N_15  and  C_14 
REMARK    7  A    between atoms: N_20  and  C_19 
REMARK       I    between atoms: C_22  and  N_20 
ROOT
ATOM      1  C   LIG d   1      -3.293  75.073 115.383  0.00  0.00     0.161 C 
ATOM      2  C   LIG d   1      -2.659  76.286 115.067  0.00  0.00     0.016 C 
ATOM      3  C   LIG d   1      -3.325  77.534 115.059  0.00  0.00     0.038 C 
ATOM      4  C   LIG d   1      -4.644  77.673 115.516  0.00  0.00     0.028 C 
ATOM      5  C   LIG d   1      -5.475  76.403 115.364  0.00  0.00    -0.047 C 
ATOM      6  C   LIG d   1      -4.703  75.220 115.992  0.00  0.00     0.091 C 
ENDROOT
BRANCH   1   7
ATOM      7  O   LIG d   1      -2.450  74.294 116.254  0.00  0.00    -0.368 OA
BRANCH   7   8
ATOM      8  C   LIG d   1      -1.272  74.963 116.768  0.00  0.00     0.119 C 
BRANCH   8   9
ATOM      9  C   LIG d   1      -0.041  74.174 116.282  0.00  0.00     0.028 C 
ATOM     10  C   LIG d   1       0.767  74.941 115.222  0.00  0.00     0.006 C 
ENDBRANCH   8   9
BRANCH   8  11
ATOM     11  C   LIG d   1      -1.217  74.899 118.297  0.00  0.00     0.028 C 
ATOM     12  C   LIG d   1      -0.696  73.550 118.818  0.00  0.00     0.006 C 
ENDBRANCH   8  11
ENDBRANCH   7   8
ENDBRANCH   1   7
BRANCH   6  13
ATOM     13  N   LIG d   1      -5.408  73.924 115.812  0.00  0.00    -0.311 N 
ATOM     14  C   LIG d   1      -6.368  73.492 116.627  0.00  0.00     0.210 C 
ATOM     15  C   LIG d   1      -6.949  72.119 116.273  0.00  0.00     0.109 C 
ATOM     16  O   LIG d   1      -6.816  74.129 117.592  0.00  0.00    -0.276 OA
ATOM     17  H   LIG d   1      -5.128  73.357 115.035  0.00  0.00     0.149 HD
ENDBRANCH   6  13
BRANCH   5  18
ATOM     18  N   LIG d   1      -6.781  76.646 116.004  0.00  0.00     0.381 N 
ATOM     19  H   LIG d   1      -6.781  76.266 116.929  0.00  0.00    -0.090 HD
ATOM     20  H   LIG d   1      -7.496  76.181 115.472  0.00  0.00    -0.090 HD
ATOM     21  H   LIG d   1      -6.967  77.624 116.039  0.00  0.00    -0.090 HD
ENDBRANCH   5  18
BRANCH   3  22
ATOM     22  C   LIG d   1      -2.682  78.653 114.551  0.00  0.00     0.382 C 
ATOM     23  O   LIG d   1      -3.317  79.723 114.395  0.00  0.00    -0.241 OA
ATOM     24  O   LIG d   1      -1.487  78.592 114.206  0.00  0.00    -0.241 OA
ENDBRANCH   3  22
TORSDOF 7
ENDMDL
MODEL 4
REMARK VINA RESULT:      -5.1      2.236      4.249
REMARK  7 active torsions:
REMARK  status: ('A' for Active; 'I' for Inactive)
REMARK    1  A    between atoms: C_2  and  C_3 
REMARK    2  A    between atoms: C_3  and  O_6 
REMARK    3  A    between atoms: C_3  and  C_4 
REMARK    4  A    between atoms: C_7  and  O_6 
REMARK    5  A    between atoms: C_9  and  C_10 
REMARK    6  A    between atoms: N_15  and  C_14 
REMARK    7  A    between atoms: N_20  and  C_19 
REMARK       I    between atoms: C_22  and  N_20 
ROOT
ATOM      1  C   LIG d   1      -1.428  76.919 115.248  0.00  0.00     0.161 C 
ATOM      2  C   LIG d   1      -0.660  76.294 114.251  0.00  0.00     0.016 C 
ATOM      3  C   LIG d   1      -0.146  74.982 114.373  0.00  0.00     0.038 C 
ATOM      4  C   LIG d   1      -0.494  74.146 115.444  0.00  0.00     0.028 C 
ATOM      5  C   LIG d   1      -0.854  74.907 116.715  0.00  0.00    -0.047 C 
ATOM      6  C   LIG d   1      -1.912  75.982 116.374  0.00  0.00     0.091 C 
ENDROOT
BRANCH   1   7
ATOM      7  O   LIG d   1      -2.547  77.599 114.647  0.00  0.00    -0.368 OA
BRANCH   7   8
ATOM      8  C   LIG d   1      -3.187  76.919 113.539  0.00  0.00     0.119 C 
BRANCH   8   9
ATOM      9  C   LIG d   1      -3.292  77.924 112.376  0.00  0.00     0.028 C 
ATOM     10  C   LIG d   1      -2.631  79.273 112.705  0.00  0.00     0.006 C 
ENDBRANCH   8   9
BRANCH   8  11
ATOM     11  C   LIG d   1      -4.631  76.538 113.878  0.00  0.00     0.028 C 
ATOM     12  C   LIG d   1      -4.779  75.064 114.288  0.00  0.00     0.006 C 
ENDBRANCH   8  11
ENDBRANCH   7   8
ENDBRANCH   1   7
BRANCH   6  13
ATOM     13  N   LIG d   1      -2.258  76.828 117.546  0.00  0.00    -0.311 N 
ATOM     14  C   LIG d   1      -3.510  77.075 117.928  0.00  0.00     0.210 C 
ATOM     15  C   LIG d   1      -3.645  77.989 119.150  0.00  0.00     0.109 C 
ATOM     16  O   LIG d   1      -4.520  76.598 117.390  0.00  0.00    -0.276 OA
ATOM     17  H   LIG d   1      -1.497  77.231 118.058  0.00  0.00     0.149 HD
ENDBRANCH   6  13
BRANCH   5  18
ATOM     18  N   LIG d   1      -1.329  73.922 117.706  0.00  0.00     0.381 N 
ATOM     19  H   LIG d   1      -2.185  73.511 117.390  0.00  0.00    -0.090 HD
ATOM     20  H   LIG d   1      -1.508  74.395 118.574  0.00  0.00    -0.090 HD
ATOM     21  H   LIG d   1      -0.641  73.215 117.840  0.00  0.00    -0.090 HD
ENDBRANCH   5  18
BRANCH   3  22
ATOM     22  C   LIG d   1       0.760  74.509 113.436  0.00  0.00     0.382 C 
ATOM     23  O   LIG d   1       0.347  74.002 112.365  0.00  0.00    -0.241 OA
ATOM     24  O   LIG d   1       1.984  74.543 113.667  0.00  0.00    -0.241 OA
ENDBRANCH   3  22
TORSDOF 7
ENDMDL
MODEL 5
REMARK VINA RESULT:      -5.1      2.610      5.211
REMARK  7 active torsions:
REMARK  status: ('A' for Active; 'I' for Inactive)
REMARK    1  A    between atoms: C_2  and  C_3 
REMARK    2  A    between atoms: C_3  and  O_6 
REMARK    3  A    between atoms: C_3  and  C_4 
REMARK    4  A    between atoms: C_7  and  O_6 
REMARK    5  A    between atoms: C_9  and  C_10 
REMARK    6  A    between atoms: N_15  and  C_14 
REMARK    7  A    between atoms: N_20  and  C_19 
REMARK       I    between atoms: C_22  and  N_20 
ROOT
ATOM      1  C   LIG d   1      -2.176  74.800 115.626  0.00  0.00     0.161 C 
ATOM      2  C   LIG d   1      -0.953  74.400 115.060  0.00  0.00     0.016 C 
ATOM      3  C   LIG d   1      -0.261  75.158 114.088  0.00  0.00     0.038 C 
ATOM      4  C   LIG d   1      -0.671  76.449 113.724  0.00  0.00     0.028 C 
ATOM      5  C   LIG d   1      -2.169  76.679 113.894  0.00  0.00    -0.047 C 
ATOM      6  C   LIG d   1      -2.582  76.258 115.322  0.00  0.00     0.091 C 
ENDROOT
BRANCH   1   7
ATOM      7  O   LIG d   1      -2.154  74.572 117.049  0.00  0.00    -0.368 OA
BRANCH   7   8
ATOM      8  C   LIG d   1      -0.855  74.647 117.686  0.00  0.00     0.119 C 
BRANCH   8   9
ATOM      9  C   LIG d   1      -0.799  73.538 118.755  0.00  0.00     0.028 C 
ATOM     10  C   LIG d   1      -0.433  74.081 120.146  0.00  0.00     0.006 C 
ENDBRANCH   8   9
BRANCH   8  11
ATOM     11  C   LIG d   1      -0.687  75.960 118.456  0.00  0.00     0.028 C 
ATOM     12  C   LIG d   1       0.245  76.953 117.743  0.00  0.00     0.006 C 
ENDBRANCH   8  11
ENDBRANCH   7   8
ENDBRANCH   1   7
BRANCH   6  13
ATOM     13  N   LIG d   1      -4.047  76.371 115.545  0.00  0.00    -0.311 N 
ATOM     14  C   LIG d   1      -4.955  75.771 114.777  0.00  0.00     0.210 C 
ATOM     15  C   LIG d   1      -6.411  76.036 115.170  0.00  0.00     0.109 C 
ATOM     16  O   LIG d   1      -4.691  75.019 113.827  0.00  0.00    -0.276 OA
ATOM     17  H   LIG d   1      -4.349  76.938 116.314  0.00  0.00     0.149 HD
ENDBRANCH   6  13
BRANCH   5  18
ATOM     18  N   LIG d   1      -2.436  78.102 113.611  0.00  0.00     0.381 N 
ATOM     19  H   LIG d   1      -1.953  78.378 112.779  0.00  0.00    -0.090 HD
ATOM     20  H   LIG d   1      -2.091  78.656 114.375  0.00  0.00    -0.090 HD
ATOM     21  H   LIG d   1      -3.415  78.249 113.500  0.00  0.00    -0.090 HD
ENDBRANCH   5  18
BRANCH   3  22
ATOM     22  C   LIG d   1       0.835  74.608 113.440  0.00  0.00     0.382 C 
ATOM     23  O   LIG d   1       0.679  73.995 112.356  0.00  0.00    -0.241 OA
ATOM     24  O   LIG d   1       1.970  74.677 113.948  0.00  0.00    -0.241 OA
ENDBRANCH   3  22
TORSDOF 7
ENDMDL
MODEL 6
REMARK VINA RESULT:      -5.0      2.252      4.762
REMARK  7 active torsions:
REMARK  status: ('A' for Active; 'I' for Inactive)
REMARK    1  A    between atoms: C_2  and  C_3 
REMARK    2  A    between atoms: C_3  and  O_6 
REMARK    3  A    between atoms: C_3  and  C_4 
REMARK    4  A    between atoms: C_7  and  O_6 
REMARK    5  A    between atoms: C_9  and  C_10 
REMARK    6  A    between atoms: N_15  and  C_14 
REMARK    7  A    between atoms: N_20  and  C_19 
REMARK       I    between atoms: C_22  and  N_20 
ROOT
ATOM      1  C   LIG d   1      -2.654  76.282 116.373  0.00  0.00     0.161 C 
ATOM      2  C   LIG d   1      -2.173  75.998 117.662  0.00  0.00     0.016 C 
ATOM      3  C   LIG d   1      -1.097  76.692 118.262  0.00  0.00     0.038 C 
ATOM      4  C   LIG d   1      -0.524  77.826 117.668  0.00  0.00     0.028 C 
ATOM      5  C   LIG d   1      -0.640  77.838 116.147  0.00  0.00    -0.047 C 
ATOM      6  C   LIG d   1      -2.114  77.588 115.755  0.00  0.00     0.091 C 
ENDROOT
BRANCH   1   7
ATOM      7  O   LIG d   1      -4.096  76.290 116.381  0.00  0.00    -0.368 OA
BRANCH   7   8
ATOM      8  C   LIG d   1      -4.741  75.020 116.118  0.00  0.00     0.119 C 
BRANCH   8   9
ATOM      9  C   LIG d   1      -4.937  74.907 114.593  0.00  0.00     0.028 C 
ATOM     10  C   LIG d   1      -5.624  76.147 113.997  0.00  0.00     0.006 C 
ENDBRANCH   8   9
BRANCH   8  11
ATOM     11  C   LIG d   1      -6.152  74.978 116.712  0.00  0.00     0.028 C 
ATOM     12  C   LIG d   1      -6.725  73.554 116.787  0.00  0.00     0.006 C 
ENDBRANCH   8  11
ENDBRANCH   7   8
ENDBRANCH   1   7
BRANCH   6  13
ATOM     13  N   LIG d   1      -2.302  77.500 114.283  0.00  0.00    -0.311 N 
ATOM     14  C   LIG d   1      -2.747  78.511 113.539  0.00  0.00     0.210 C 
ATOM     15  C   LIG d   1      -2.887  78.202 112.045  0.00  0.00     0.109 C 
ATOM     16  O   LIG d   1      -3.010  79.644 113.970  0.00  0.00    -0.276 OA
ATOM     17  H   LIG d   1      -2.083  76.626 113.847  0.00  0.00     0.149 HD
ENDBRANCH   6  13
BRANCH   5  18
ATOM     18  N   LIG d   1      -0.126  79.136 115.671  0.00  0.00     0.381 N 
ATOM     19  H   LIG d   1      -0.347  79.253 114.702  0.00  0.00    -0.090 HD
ATOM     20  H   LIG d   1       0.874  79.146 115.769  0.00  0.00    -0.090 HD
ATOM     21  H   LIG d   1      -0.527  79.877 116.202  0.00  0.00    -0.090 HD
ENDBRANCH   5  18
BRANCH   3  22
ATOM     22  C   LIG d   1      -0.558  76.228 119.452  0.00  0.00     0.382 C 
ATOM     23  O   LIG d   1      -1.177  76.398 120.529  0.00  0.00    -0.241 OA
ATOM     24  O   LIG d   1       0.561  75.680 119.467  0.00  0.00    -0.241 OA
ENDBRANCH   3  22
TORSDOF 7
ENDMDL
MODEL 7
REMARK VINA RESULT:      -4.6      2.526      4.465
REMARK  7 active torsions:
REMARK  status: ('A' for Active; 'I' for Inactive)
REMARK    1  A    between atoms: C_2  and  C_3 
REMARK    2  A    between atoms: C_3  and  O_6 
REMARK    3  A    between atoms: C_3  and  C_4 
REMARK    4  A    between atoms: C_7  and  O_6 
REMARK    5  A    between atoms: C_9  and  C_10 
REMARK    6  A    between atoms: N_15  and  C_14 
REMARK    7  A    between atoms: N_20  and  C_19 
REMARK       I    between atoms: C_22  and  N_20 
ROOT
ATOM      1  C   LIG d   1      -1.973  76.900 117.115  0.00  0.00     0.161 C 
ATOM      2  C   LIG d   1      -2.988  76.274 116.372  0.00  0.00     0.016 C 
ATOM      3  C   LIG d   1      -3.232  76.544 115.006  0.00  0.00     0.038 C 
ATOM      4  C   LIG d   1      -2.375  77.353 114.246  0.00  0.00     0.028 C 
ATOM      5  C   LIG d   1      -1.637  78.400 115.074  0.00  0.00    -0.047 C 
ATOM      6  C   LIG d   1      -0.958  77.703 116.274  0.00  0.00     0.091 C 
ENDROOT
BRANCH   1   7
ATOM      7  O   LIG d   1      -1.290  75.925 117.928  0.00  0.00    -0.368 OA
BRANCH   7   8
ATOM      8  C   LIG d   1      -1.181  74.593 117.369  0.00  0.00     0.119 C 
BRANCH   8   9
ATOM      9  C   LIG d   1      -0.884  73.626 118.532  0.00  0.00     0.028 C 
ATOM     10  C   LIG d   1      -0.492  74.364 119.823  0.00  0.00     0.006 C 
ENDBRANCH   8   9
BRANCH   8  11
ATOM     11  C   LIG d   1       0.024  74.480 116.431  0.00  0.00     0.028 C 
ATOM     12  C   LIG d   1      -0.379  74.178 114.978  0.00  0.00     0.006 C 
ENDBRANCH   8  11
ENDBRANCH   7   8
ENDBRANCH   1   7
BRANCH   6  13
ATOM     13  N   LIG d   1      -0.284  78.667 117.183  0.00  0.00    -0.311 N 
ATOM     14  C   LIG d   1       0.944  78.484 117.664  0.00  0.00     0.210 C 
ATOM     15  C   LIG d   1       1.443  79.590 118.600  0.00  0.00     0.109 C 
ATOM     16  O   LIG d   1       1.681  77.528 117.380  0.00  0.00    -0.276 OA
ATOM     17  H   LIG d   1      -0.798  79.486 117.440  0.00  0.00     0.149 HD
ENDBRANCH   6  13
BRANCH   5  18
ATOM     18  N   LIG d   1      -0.678  79.079 114.182  0.00  0.00     0.381 N 
ATOM     19  H   LIG d   1      -0.971  80.023 114.025  0.00  0.00    -0.090 HD
ATOM     20  H   LIG d   1      -0.664  78.603 113.297  0.00  0.00    -0.090 HD
ATOM     21  H   LIG d   1       0.231  79.069 114.588  0.00  0.00    -0.090 HD
ENDBRANCH   5  18
BRANCH   3  22
ATOM     22  C   LIG d   1      -4.368  76.033 114.397  0.00  0.00     0.382 C 
ATOM     23  O   LIG d   1      -4.359  74.867 113.933  0.00  0.00    -0.241 OA
ATOM     24  O   LIG d   1      -5.386  76.738 114.265  0.00  0.00    -0.241 OA
ENDBRANCH   3  22
TORSDOF 7
ENDMDL
MODEL 8
REMARK VINA RESULT:      -4.6     15.049     16.276
REMARK  7 active torsions:
REMARK  status: ('A' for Active; 'I' for Inactive)
REMARK    1  A    between atoms: C_2  and  C_3 
REMARK    2  A    between atoms: C_3  and  O_6 
REMARK    3  A    between atoms: C_3  and  C_4 
REMARK    4  A    between atoms: C_7  and  O_6 
REMARK    5  A    between atoms: C_9  and  C_10 
REMARK    6  A    between atoms: N_15  and  C_14 
REMARK    7  A    between atoms: N_20  and  C_19 
REMARK       I    between atoms: C_22  and  N_20 
ROOT
ATOM      1  C   LIG d   1     -16.305  68.530 117.635  0.00  0.00     0.161 C 
ATOM      2  C   LIG d   1     -16.266  69.928 117.502  0.00  0.00     0.016 C 
ATOM      3  C   LIG d   1     -16.268  70.815 118.603  0.00  0.00     0.038 C 
ATOM      4  C   LIG d   1     -16.155  70.357 119.924  0.00  0.00     0.028 C 
ATOM      5  C   LIG d   1     -16.699  68.947 120.125  0.00  0.00    -0.047 C 
ATOM      6  C   LIG d   1     -16.069  68.010 119.069  0.00  0.00     0.091 C 
ENDROOT
BRANCH   1   7
ATOM      7  O   LIG d   1     -15.366  67.927 116.723  0.00  0.00    -0.368 OA
BRANCH   7   8
ATOM      8  C   LIG d   1     -15.886  67.563 115.421  0.00  0.00     0.119 C 
BRANCH   8   9
ATOM      9  C   LIG d   1     -16.193  66.053 115.450  0.00  0.00     0.028 C 
ATOM     10  C   LIG d   1     -17.672  65.760 115.754  0.00  0.00     0.006 C 
ENDBRANCH   8   9
BRANCH   8  11
ATOM     11  C   LIG d   1     -14.828  67.740 114.328  0.00  0.00     0.028 C 
ATOM     12  C   LIG d   1     -15.330  68.582 113.144  0.00  0.00     0.006 C 
ENDBRANCH   8  11
ENDBRANCH   7   8
ENDBRANCH   1   7
BRANCH   6  13
ATOM     13  N   LIG d   1     -16.612  66.628 119.140  0.00  0.00    -0.311 N 
ATOM     14  C   LIG d   1     -15.851  65.538 119.071  0.00  0.00     0.210 C 
ATOM     15  C   LIG d   1     -16.613  64.211 119.145  0.00  0.00     0.109 C 
ATOM     16  O   LIG d   1     -14.613  65.543 118.987  0.00  0.00    -0.276 OA
ATOM     17  H   LIG d   1     -17.603  66.532 119.240  0.00  0.00     0.149 HD
ENDBRANCH   6  13
BRANCH   5  18
ATOM     18  N   LIG d   1     -16.394  68.544 121.510  0.00  0.00     0.381 N 
ATOM     19  H   LIG d   1     -17.244  68.412 122.021  0.00  0.00    -0.090 HD
ATOM     20  H   LIG d   1     -15.870  69.278 121.954  0.00  0.00    -0.090 HD
ATOM     21  H   LIG d   1     -15.863  67.700 121.511  0.00  0.00    -0.090 HD
ENDBRANCH   5  18
BRANCH   3  22
ATOM     22  C   LIG d   1     -16.424  72.176 118.389  0.00  0.00     0.382 C 
ATOM     23  O   LIG d   1     -16.807  72.918 119.325  0.00  0.00    -0.241 OA
ATOM     24  O   LIG d   1     -16.229  72.664 117.260  0.00  0.00    -0.241 OA
ENDBRANCH   3  22
TORSDOF 7
ENDMDL
MODEL 9
REMARK VINA RESULT:      -4.6      2.381      5.527
REMARK  7 active torsions:
REMARK  status: ('A' for Active; 'I' for Inactive)
REMARK    1  A    between atoms: C_2  and  C_3 
REMARK    2  A    between atoms: C_3  and  O_6 
REMARK    3  A    between atoms: C_3  and  C_4 
REMARK    4  A    between atoms: C_7  and  O_6 
REMARK    5  A    between atoms: C_9  and  C_10 
REMARK    6  A    between atoms: N_15  and  C_14 
REMARK    7  A    between atoms: N_20  and  C_19 
REMARK       I    between atoms: C_22  and  N_20 
ROOT
ATOM      1  C   LIG d   1      -3.166  75.514 116.098  0.00  0.00     0.161 C 
ATOM      2  C   LIG d   1      -4.377  74.802 116.090  0.00  0.00     0.016 C 
ATOM      3  C   LIG d   1      -5.628  75.393 116.384  0.00  0.00     0.038 C 
ATOM      4  C   LIG d   1      -5.772  76.777 116.559  0.00  0.00     0.028 C 
ATOM      5  C   LIG d   1      -4.507  77.457 117.074  0.00  0.00    -0.047 C 
ATOM      6  C   LIG d   1      -3.317  77.047 116.178  0.00  0.00     0.091 C 
ENDROOT
BRANCH   1   7
ATOM      7  O   LIG d   1      -2.376  75.147 114.949  0.00  0.00    -0.368 OA
BRANCH   7   8
ATOM      8  C   LIG d   1      -1.162  74.405 115.221  0.00  0.00     0.119 C 
BRANCH   8   9
ATOM      9  C   LIG d   1      -0.994  74.336 116.751  0.00  0.00     0.028 C 
ATOM     10  C   LIG d   1       0.342  74.935 117.223  0.00  0.00     0.006 C 
ENDBRANCH   8   9
BRANCH   8  11
ATOM     11  C   LIG d   1       0.074  75.153 114.711  0.00  0.00     0.028 C 
ATOM     12  C   LIG d   1       0.586  74.611 113.367  0.00  0.00     0.006 C 
ENDBRANCH   8  11
ENDBRANCH   7   8
ENDBRANCH   1   7
BRANCH   6  13
ATOM     13  N   LIG d   1      -2.026  77.602 116.662  0.00  0.00    -0.311 N 
ATOM     14  C   LIG d   1      -1.247  78.395 115.928  0.00  0.00     0.210 C 
ATOM     15  C   LIG d   1       0.051  78.839 116.610  0.00  0.00     0.109 C 
ATOM     16  O   LIG d   1      -1.523  78.799 114.788  0.00  0.00    -0.276 OA
ATOM     17  H   LIG d   1      -1.740  77.350 117.588  0.00  0.00     0.149 HD
ENDBRANCH   6  13
BRANCH   5  18
ATOM     18  N   LIG d   1      -4.754  78.911 117.079  0.00  0.00     0.381 N 
ATOM     19  H   LIG d   1      -4.556  79.285 117.985  0.00  0.00    -0.090 HD
ATOM     20  H   LIG d   1      -5.724  79.077 116.875  0.00  0.00    -0.090 HD
ATOM     21  H   LIG d   1      -4.182  79.356 116.396  0.00  0.00    -0.090 HD
ENDBRANCH   5  18
BRANCH   3  22
ATOM     22  C   LIG d   1      -6.746  74.589 116.545  0.00  0.00     0.382 C 
ATOM     23  O   LIG d   1      -6.637  73.341 116.473  0.00  0.00    -0.241 OA
ATOM     24  O   LIG d   1      -7.870  75.097 116.718  0.00  0.00    -0.241 OA
ENDBRANCH   3  22
TORSDOF 7
ENDMDL
