MODEL 1
REMARK VINA RESULT:      -6.0      0.000      0.000
REMARK  7 active torsions:
REMARK  status: ('A' for Active; 'I' for Inactive)
REMARK    1  A    between atoms: C_2  and  C_3 
REMARK    2  A    between atoms: C_3  and  O_6 
REMARK    3  A    between atoms: C_3  and  C_4 
REMARK    4  A    between atoms: C_7  and  O_6 
REMARK    5  A    between atoms: C_9  and  C_10 
REMARK    6  A    between atoms: N_15  and  C_14 
REMARK    7  A    between atoms: N_20  and  C_19 
REMARK       I    between atoms: C_22  and  N_20 
ROOT
ATOM      1  C   LIG d   1      -7.513  75.946 117.287  0.00  0.00     0.161 C 
ATOM      2  C   LIG d   1      -8.799  76.386 117.644  0.00  0.00     0.016 C 
ATOM      3  C   LIG d   1      -9.110  77.736 117.923  0.00  0.00     0.038 C 
ATOM      4  C   LIG d   1      -8.183  78.769 117.717  0.00  0.00     0.028 C 
ATOM      5  C   LIG d   1      -6.733  78.315 117.844  0.00  0.00    -0.047 C 
ATOM      6  C   LIG d   1      -6.515  77.074 116.949  0.00  0.00     0.091 C 
ENDROOT
BRANCH   1   7
ATOM      7  O   LIG d   1      -7.602  75.011 116.194  0.00  0.00    -0.368 OA
BRANCH   7   8
ATOM      8  C   LIG d   1      -7.446  73.612 116.538  0.00  0.00     0.119 C 
BRANCH   8   9
ATOM      9  C   LIG d   1      -6.676  72.936 115.387  0.00  0.00     0.028 C 
ATOM     10  C   LIG d   1      -5.781  73.923 114.620  0.00  0.00     0.006 C 
ENDBRANCH   8   9
BRANCH   8  11
ATOM     11  C   LIG d   1      -8.800  72.899 116.594  0.00  0.00     0.028 C 
ATOM     12  C   LIG d   1      -8.673  71.370 116.496  0.00  0.00     0.006 C 
ENDBRANCH   8  11
ENDBRANCH   7   8
ENDBRANCH   1   7
BRANCH   6  13
ATOM     13  N   LIG d   1      -5.144  76.515 117.078  0.00  0.00    -0.311 N 
ATOM     14  C   LIG d   1      -4.145  76.826 116.255  0.00  0.00     0.210 C 
ATOM     15  C   LIG d   1      -2.817  76.122 116.554  0.00  0.00     0.109 C 
ATOM     16  O   LIG d   1      -4.223  77.642 115.324  0.00  0.00    -0.276 OA
ATOM     17  H   LIG d   1      -4.984  75.868 117.825  0.00  0.00     0.149 HD
ENDBRANCH   6  13
BRANCH   5  18
ATOM     18  N   LIG d   1      -5.875  79.455 117.470  0.00  0.00     0.381 N 
ATOM     19  H   LIG d   1      -5.673  80.007 118.279  0.00  0.00    -0.090 HD
ATOM     20  H   LIG d   1      -6.368  80.031 116.811  0.00  0.00    -0.090 HD
ATOM     21  H   LIG d   1      -5.027  79.125 117.064  0.00  0.00    -0.090 HD
ENDBRANCH   5  18
BRANCH   3  22
ATOM     22  C   LIG d   1     -10.349  78.060 118.454  0.00  0.00     0.382 C 
ATOM     23  O   LIG d   1     -10.513  79.157 119.041  0.00  0.00    -0.241 OA
ATOM     24  O   LIG d   1     -11.294  77.251 118.391  0.00  0.00    -0.241 OA
ENDBRANCH   3  22
TORSDOF 7
ENDMDL
MODEL 2
REMARK VINA RESULT:      -5.5     14.708     17.516
REMARK  7 active torsions:
REMARK  status: ('A' for Active; 'I' for Inactive)
REMARK    1  A    between atoms: C_2  and  C_3 
REMARK    2  A    between atoms: C_3  and  O_6 
REMARK    3  A    between atoms: C_3  and  C_4 
REMARK    4  A    between atoms: C_7  and  O_6 
REMARK    5  A    between atoms: C_9  and  C_10 
REMARK    6  A    between atoms: N_15  and  C_14 
REMARK    7  A    between atoms: N_20  and  C_19 
REMARK       I    between atoms: C_22  and  N_20 
ROOT
ATOM      1  C   LIG d   1      -5.993  93.218 117.737  0.00  0.00     0.161 C 
ATOM      2  C   LIG d   1      -6.785  92.228 117.133  0.00  0.00     0.016 C 
ATOM      3  C   LIG d   1      -6.264  91.012 116.633  0.00  0.00     0.038 C 
ATOM      4  C   LIG d   1      -4.928  90.638 116.840  0.00  0.00     0.028 C 
ATOM      5  C   LIG d   1      -3.983  91.824 116.998  0.00  0.00    -0.047 C 
ATOM      6  C   LIG d   1      -4.552  92.780 118.072  0.00  0.00     0.091 C 
ENDROOT
BRANCH   1   7
ATOM      7  O   LIG d   1      -6.652  93.718 118.917  0.00  0.00    -0.368 OA
BRANCH   7   8
ATOM      8  C   LIG d   1      -7.644  94.753 118.704  0.00  0.00     0.119 C 
BRANCH   8   9
ATOM      9  C   LIG d   1      -7.339  95.897 119.690  0.00  0.00     0.028 C 
ATOM     10  C   LIG d   1      -6.011  96.605 119.375  0.00  0.00     0.006 C 
ENDBRANCH   8   9
BRANCH   8  11
ATOM     11  C   LIG d   1      -9.047  94.263 119.073  0.00  0.00     0.028 C 
ATOM     12  C   LIG d   1      -9.300  94.263 120.589  0.00  0.00     0.006 C 
ENDBRANCH   8  11
ENDBRANCH   7   8
ENDBRANCH   1   7
BRANCH   6  13
ATOM     13  N   LIG d   1      -3.732  94.009 118.228  0.00  0.00    -0.311 N 
ATOM     14  C   LIG d   1      -2.774  94.140 119.144  0.00  0.00     0.210 C 
ATOM     15  C   LIG d   1      -2.064  95.497 119.147  0.00  0.00     0.109 C 
ATOM     16  O   LIG d   1      -2.423  93.250 119.932  0.00  0.00    -0.276 OA
ATOM     17  H   LIG d   1      -3.929  94.771 117.608  0.00  0.00     0.149 HD
ENDBRANCH   6  13
BRANCH   5  18
ATOM     18  N   LIG d   1      -2.652  91.292 117.345  0.00  0.00     0.381 N 
ATOM     19  H   LIG d   1      -2.661  90.943 118.282  0.00  0.00    -0.090 HD
ATOM     20  H   LIG d   1      -1.980  92.037 117.291  0.00  0.00    -0.090 HD
ATOM     21  H   LIG d   1      -2.402  90.563 116.714  0.00  0.00    -0.090 HD
ENDBRANCH   5  18
BRANCH   3  22
ATOM     22  C   LIG d   1      -7.074  90.174 115.882  0.00  0.00     0.382 C 
ATOM     23  O   LIG d   1      -8.049  89.598 116.419  0.00  0.00    -0.241 OA
ATOM     24  O   LIG d   1      -6.815  89.953 114.683  0.00  0.00    -0.241 OA
ENDBRANCH   3  22
TORSDOF 7
ENDMDL
MODEL 3
REMARK VINA RESULT:      -5.4     14.362     16.878
REMARK  7 active torsions:
REMARK  status: ('A' for Active; 'I' for Inactive)
REMARK    1  A    between atoms: C_2  and  C_3 
REMARK    2  A    between atoms: C_3  and  O_6 
REMARK    3  A    between atoms: C_3  and  C_4 
REMARK    4  A    between atoms: C_7  and  O_6 
REMARK    5  A    between atoms: C_9  and  C_10 
REMARK    6  A    between atoms: N_15  and  C_14 
REMARK    7  A    between atoms: N_20  and  C_19 
REMARK       I    between atoms: C_22  and  N_20 
ROOT
ATOM      1  C   LIG d   1      -4.135  92.489 117.240  0.00  0.00     0.161 C 
ATOM      2  C   LIG d   1      -3.675  93.371 118.232  0.00  0.00     0.016 C 
ATOM      3  C   LIG d   1      -4.530  94.198 118.996  0.00  0.00     0.038 C 
ATOM      4  C   LIG d   1      -5.927  94.089 118.923  0.00  0.00     0.028 C 
ATOM      5  C   LIG d   1      -6.424  93.574 117.576  0.00  0.00    -0.047 C 
ATOM      6  C   LIG d   1      -5.663  92.275 117.223  0.00  0.00     0.091 C 
ENDROOT
BRANCH   1   7
ATOM      7  O   LIG d   1      -3.454  91.224 117.355  0.00  0.00    -0.368 OA
BRANCH   7   8
ATOM      8  C   LIG d   1      -2.480  91.120 118.423  0.00  0.00     0.119 C 
BRANCH   8   9
ATOM      9  C   LIG d   1      -1.115  90.813 117.776  0.00  0.00     0.028 C 
ATOM     10  C   LIG d   1      -0.168  92.024 117.801  0.00  0.00     0.006 C 
ENDBRANCH   8   9
BRANCH   8  11
ATOM     11  C   LIG d   1      -2.776  89.924 119.332  0.00  0.00     0.028 C 
ATOM     12  C   LIG d   1      -2.620  88.575 118.613  0.00  0.00     0.006 C 
ENDBRANCH   8  11
ENDBRANCH   7   8
ENDBRANCH   1   7
BRANCH   6  13
ATOM     13  N   LIG d   1      -6.030  91.751 115.882  0.00  0.00    -0.311 N 
ATOM     14  C   LIG d   1      -6.891  90.752 115.696  0.00  0.00     0.210 C 
ATOM     15  C   LIG d   1      -7.112  90.353 114.233  0.00  0.00     0.109 C 
ATOM     16  O   LIG d   1      -7.517  90.180 116.600  0.00  0.00    -0.276 OA
ATOM     17  H   LIG d   1      -5.592  92.178 115.090  0.00  0.00     0.149 HD
ENDBRANCH   6  13
BRANCH   5  18
ATOM     18  N   LIG d   1      -7.882  93.378 117.685  0.00  0.00     0.381 N 
ATOM     19  H   LIG d   1      -8.344  93.838 116.926  0.00  0.00    -0.090 HD
ATOM     20  H   LIG d   1      -8.202  93.789 118.545  0.00  0.00    -0.090 HD
ATOM     21  H   LIG d   1      -8.098  92.405 117.674  0.00  0.00    -0.090 HD
ENDBRANCH   5  18
BRANCH   3  22
ATOM     22  C   LIG d   1      -3.988  95.176 119.816  0.00  0.00     0.382 C 
ATOM     23  O   LIG d   1      -4.288  95.211 121.033  0.00  0.00    -0.241 OA
ATOM     24  O   LIG d   1      -3.236  96.050 119.344  0.00  0.00    -0.241 OA
ENDBRANCH   3  22
TORSDOF 7
ENDMDL
MODEL 4
REMARK VINA RESULT:      -5.4     11.588     14.510
REMARK  7 active torsions:
REMARK  status: ('A' for Active; 'I' for Inactive)
REMARK    1  A    between atoms: C_2  and  C_3 
REMARK    2  A    between atoms: C_3  and  O_6 
REMARK    3  A    between atoms: C_3  and  C_4 
REMARK    4  A    between atoms: C_7  and  O_6 
REMARK    5  A    between atoms: C_9  and  C_10 
REMARK    6  A    between atoms: N_15  and  C_14 
REMARK    7  A    between atoms: N_20  and  C_19 
REMARK       I    between atoms: C_22  and  N_20 
ROOT
ATOM      1  C   LIG d   1     -16.474  66.123 114.045  0.00  0.00     0.161 C 
ATOM      2  C   LIG d   1     -15.863  66.955 113.092  0.00  0.00     0.016 C 
ATOM      3  C   LIG d   1     -15.178  68.147 113.425  0.00  0.00     0.038 C 
ATOM      4  C   LIG d   1     -14.928  68.511 114.756  0.00  0.00     0.028 C 
ATOM      5  C   LIG d   1     -15.960  67.967 115.738  0.00  0.00    -0.047 C 
ATOM      6  C   LIG d   1     -16.116  66.446 115.510  0.00  0.00     0.091 C 
ENDROOT
BRANCH   1   7
ATOM      7  O   LIG d   1     -16.180  64.744 113.749  0.00  0.00    -0.368 OA
BRANCH   7   8
ATOM      8  C   LIG d   1     -17.286  63.948 113.256  0.00  0.00     0.119 C 
BRANCH   8   9
ATOM      9  C   LIG d   1     -18.480  64.897 113.040  0.00  0.00     0.028 C 
ATOM     10  C   LIG d   1     -19.426  64.408 111.931  0.00  0.00     0.006 C 
ENDBRANCH   8   9
BRANCH   8  11
ATOM     11  C   LIG d   1     -17.756  62.937 114.307  0.00  0.00     0.028 C 
ATOM     12  C   LIG d   1     -18.033  61.546 113.714  0.00  0.00     0.006 C 
ENDBRANCH   8  11
ENDBRANCH   7   8
ENDBRANCH   1   7
BRANCH   6  13
ATOM     13  N   LIG d   1     -17.168  65.849 116.373  0.00  0.00    -0.311 N 
ATOM     14  C   LIG d   1     -16.949  64.823 117.194  0.00  0.00     0.210 C 
ATOM     15  C   LIG d   1     -18.176  64.348 117.978  0.00  0.00     0.109 C 
ATOM     16  O   LIG d   1     -15.847  64.281 117.370  0.00  0.00    -0.276 OA
ATOM     17  H   LIG d   1     -18.085  66.247 116.316  0.00  0.00     0.149 HD
ENDBRANCH   6  13
BRANCH   5  18
ATOM     18  N   LIG d   1     -15.502  68.305 117.099  0.00  0.00     0.381 N 
ATOM     19  H   LIG d   1     -14.960  69.145 117.075  0.00  0.00    -0.090 HD
ATOM     20  H   LIG d   1     -14.918  67.561 117.439  0.00  0.00    -0.090 HD
ATOM     21  H   LIG d   1     -16.286  68.424 117.702  0.00  0.00    -0.090 HD
ENDBRANCH   5  18
BRANCH   3  22
ATOM     22  C   LIG d   1     -14.771  69.009 112.418  0.00  0.00     0.382 C 
ATOM     23  O   LIG d   1     -15.571  69.862 111.962  0.00  0.00    -0.241 OA
ATOM     24  O   LIG d   1     -13.629  68.916 111.930  0.00  0.00    -0.241 OA
ENDBRANCH   3  22
TORSDOF 7
ENDMDL
MODEL 5
REMARK VINA RESULT:      -5.3     14.208     16.632
REMARK  7 active torsions:
REMARK  status: ('A' for Active; 'I' for Inactive)
REMARK    1  A    between atoms: C_2  and  C_3 
REMARK    2  A    between atoms: C_3  and  O_6 
REMARK    3  A    between atoms: C_3  and  C_4 
REMARK    4  A    between atoms: C_7  and  O_6 
REMARK    5  A    between atoms: C_9  and  C_10 
REMARK    6  A    between atoms: N_15  and  C_14 
REMARK    7  A    between atoms: N_20  and  C_19 
REMARK       I    between atoms: C_22  and  N_20 
ROOT
ATOM      1  C   LIG d   1      -4.134  91.758 117.987  0.00  0.00     0.161 C 
ATOM      2  C   LIG d   1      -4.813  90.888 117.118  0.00  0.00     0.016 C 
ATOM      3  C   LIG d   1      -6.006  91.236 116.444  0.00  0.00     0.038 C 
ATOM      4  C   LIG d   1      -6.522  92.540 116.476  0.00  0.00     0.028 C 
ATOM      5  C   LIG d   1      -6.151  93.308 117.740  0.00  0.00    -0.047 C 
ATOM      6  C   LIG d   1      -4.622  93.221 117.948  0.00  0.00     0.091 C 
ENDROOT
BRANCH   1   7
ATOM      7  O   LIG d   1      -2.717  91.695 117.733  0.00  0.00    -0.368 OA
BRANCH   7   8
ATOM      8  C   LIG d   1      -1.923  90.989 118.719  0.00  0.00     0.119 C 
BRANCH   8   9
ATOM      9  C   LIG d   1      -0.672  91.843 119.002  0.00  0.00     0.028 C 
ATOM     10  C   LIG d   1      -0.052  92.420 117.719  0.00  0.00     0.006 C 
ENDBRANCH   8   9
BRANCH   8  11
ATOM     11  C   LIG d   1      -1.393  89.664 118.162  0.00  0.00     0.028 C 
ATOM     12  C   LIG d   1      -2.320  88.477 118.467  0.00  0.00     0.006 C 
ENDBRANCH   8  11
ENDBRANCH   7   8
ENDBRANCH   1   7
BRANCH   6  13
ATOM     13  N   LIG d   1      -4.183  93.876 119.208  0.00  0.00    -0.311 N 
ATOM     14  C   LIG d   1      -3.112  94.662 119.292  0.00  0.00     0.210 C 
ATOM     15  C   LIG d   1      -2.826  95.219 120.690  0.00  0.00     0.109 C 
ATOM     16  O   LIG d   1      -2.389  94.977 118.334  0.00  0.00    -0.276 OA
ATOM     17  H   LIG d   1      -4.730  93.699 120.028  0.00  0.00     0.149 HD
ENDBRANCH   6  13
BRANCH   5  18
ATOM     18  N   LIG d   1      -6.636  94.691 117.579  0.00  0.00     0.381 N 
ATOM     19  H   LIG d   1      -5.996  95.327 118.013  0.00  0.00    -0.090 HD
ATOM     20  H   LIG d   1      -7.526  94.779 118.037  0.00  0.00    -0.090 HD
ATOM     21  H   LIG d   1      -6.728  94.910 116.612  0.00  0.00    -0.090 HD
ENDBRANCH   5  18
BRANCH   3  22
ATOM     22  C   LIG d   1      -6.717  90.262 115.759  0.00  0.00     0.382 C 
ATOM     23  O   LIG d   1      -7.771  89.793 116.252  0.00  0.00    -0.241 OA
ATOM     24  O   LIG d   1      -6.295  89.816 114.676  0.00  0.00    -0.241 OA
ENDBRANCH   3  22
TORSDOF 7
ENDMDL
MODEL 6
REMARK VINA RESULT:      -5.3      3.848      6.310
REMARK  7 active torsions:
REMARK  status: ('A' for Active; 'I' for Inactive)
REMARK    1  A    between atoms: C_2  and  C_3 
REMARK    2  A    between atoms: C_3  and  O_6 
REMARK    3  A    between atoms: C_3  and  C_4 
REMARK    4  A    between atoms: C_7  and  O_6 
REMARK    5  A    between atoms: C_9  and  C_10 
REMARK    6  A    between atoms: N_15  and  C_14 
REMARK    7  A    between atoms: N_20  and  C_19 
REMARK       I    between atoms: C_22  and  N_20 
ROOT
ATOM      1  C   LIG d   1      -2.671  76.012 114.944  0.00  0.00     0.161 C 
ATOM      2  C   LIG d   1      -2.581  75.101 116.010  0.00  0.00     0.016 C 
ATOM      3  C   LIG d   1      -1.620  75.204 117.042  0.00  0.00     0.038 C 
ATOM      4  C   LIG d   1      -0.776  76.318 117.161  0.00  0.00     0.028 C 
ATOM      5  C   LIG d   1      -0.490  77.006 115.830  0.00  0.00    -0.047 C 
ATOM      6  C   LIG d   1      -1.831  77.294 115.116  0.00  0.00     0.091 C 
ENDROOT
BRANCH   1   7
ATOM      7  O   LIG d   1      -4.052  76.346 114.703  0.00  0.00    -0.368 OA
BRANCH   7   8
ATOM      8  C   LIG d   1      -5.024  75.694 115.557  0.00  0.00     0.119 C 
BRANCH   8   9
ATOM      9  C   LIG d   1      -5.978  74.897 114.646  0.00  0.00     0.028 C 
ATOM     10  C   LIG d   1      -5.779  73.377 114.775  0.00  0.00     0.006 C 
ENDBRANCH   8   9
BRANCH   8  11
ATOM     11  C   LIG d   1      -5.909  76.717 116.275  0.00  0.00     0.028 C 
ATOM     12  C   LIG d   1      -7.344  76.211 116.498  0.00  0.00     0.006 C 
ENDBRANCH   8  11
ENDBRANCH   7   8
ENDBRANCH   1   7
BRANCH   6  13
ATOM     13  N   LIG d   1      -1.639  77.891 113.769  0.00  0.00    -0.311 N 
ATOM     14  C   LIG d   1      -2.157  79.062 113.405  0.00  0.00     0.210 C 
ATOM     15  C   LIG d   1      -1.854  79.483 111.963  0.00  0.00     0.109 C 
ATOM     16  O   LIG d   1      -2.812  79.808 114.149  0.00  0.00    -0.276 OA
ATOM     17  H   LIG d   1      -1.094  77.367 113.112  0.00  0.00     0.149 HD
ENDBRANCH   6  13
BRANCH   5  18
ATOM     18  N   LIG d   1       0.287  78.227 116.117  0.00  0.00     0.381 N 
ATOM     19  H   LIG d   1       0.222  78.448 117.090  0.00  0.00    -0.090 HD
ATOM     20  H   LIG d   1      -0.103  78.990 115.593  0.00  0.00    -0.090 HD
ATOM     21  H   LIG d   1       1.240  78.092 115.862  0.00  0.00    -0.090 HD
ENDBRANCH   5  18
BRANCH   3  22
ATOM     22  C   LIG d   1      -1.471  74.165 117.948  0.00  0.00     0.382 C 
ATOM     23  O   LIG d   1      -1.964  73.039 117.698  0.00  0.00    -0.241 OA
ATOM     24  O   LIG d   1      -0.887  74.351 119.033  0.00  0.00    -0.241 OA
ENDBRANCH   3  22
TORSDOF 7
ENDMDL
MODEL 7
REMARK VINA RESULT:      -5.2     12.580     15.626
REMARK  7 active torsions:
REMARK  status: ('A' for Active; 'I' for Inactive)
REMARK    1  A    between atoms: C_2  and  C_3 
REMARK    2  A    between atoms: C_3  and  O_6 
REMARK    3  A    between atoms: C_3  and  C_4 
REMARK    4  A    between atoms: C_7  and  O_6 
REMARK    5  A    between atoms: C_9  and  C_10 
REMARK    6  A    between atoms: N_15  and  C_14 
REMARK    7  A    between atoms: N_20  and  C_19 
REMARK       I    between atoms: C_22  and  N_20 
ROOT
ATOM      1  C   LIG d   1     -16.359  65.116 115.673  0.00  0.00     0.161 C 
ATOM      2  C   LIG d   1     -16.866  64.627 114.458  0.00  0.00     0.016 C 
ATOM      3  C   LIG d   1     -17.673  63.471 114.361  0.00  0.00     0.038 C 
ATOM      4  C   LIG d   1     -18.157  62.806 115.498  0.00  0.00     0.028 C 
ATOM      5  C   LIG d   1     -17.259  62.966 116.720  0.00  0.00    -0.047 C 
ATOM      6  C   LIG d   1     -16.967  64.469 116.935  0.00  0.00     0.091 C 
ENDROOT
BRANCH   1   7
ATOM      7  O   LIG d   1     -16.508  66.549 115.723  0.00  0.00    -0.368 OA
BRANCH   7   8
ATOM      8  C   LIG d   1     -15.289  67.322 115.598  0.00  0.00     0.119 C 
BRANCH   8   9
ATOM      9  C   LIG d   1     -15.140  68.162 116.881  0.00  0.00     0.028 C 
ATOM     10  C   LIG d   1     -16.471  68.785 117.333  0.00  0.00     0.006 C 
ENDBRANCH   8   9
BRANCH   8  11
ATOM     11  C   LIG d   1     -15.389  68.338 114.456  0.00  0.00     0.028 C 
ATOM     12  C   LIG d   1     -15.373  67.679 113.068  0.00  0.00     0.006 C 
ENDBRANCH   8  11
ENDBRANCH   7   8
ENDBRANCH   1   7
BRANCH   6  13
ATOM     13  N   LIG d   1     -16.027  64.709 118.061  0.00  0.00    -0.311 N 
ATOM     14  C   LIG d   1     -16.328  65.458 119.120  0.00  0.00     0.210 C 
ATOM     15  C   LIG d   1     -15.208  65.591 120.157  0.00  0.00     0.109 C 
ATOM     16  O   LIG d   1     -17.427  65.999 119.315  0.00  0.00    -0.276 OA
ATOM     17  H   LIG d   1     -15.124  64.282 118.000  0.00  0.00     0.149 HD
ENDBRANCH   6  13
BRANCH   5  18
ATOM     18  N   LIG d   1     -17.949  62.342 117.865  0.00  0.00     0.381 N 
ATOM     19  H   LIG d   1     -17.348  62.343 118.664  0.00  0.00    -0.090 HD
ATOM     20  H   LIG d   1     -18.165  61.389 117.633  0.00  0.00    -0.090 HD
ATOM     21  H   LIG d   1     -18.788  62.840 118.070  0.00  0.00    -0.090 HD
ENDBRANCH   5  18
BRANCH   3  22
ATOM     22  C   LIG d   1     -17.972  62.944 113.113  0.00  0.00     0.382 C 
ATOM     23  O   LIG d   1     -18.513  61.815 113.023  0.00  0.00    -0.241 OA
ATOM     24  O   LIG d   1     -17.668  63.564 112.077  0.00  0.00    -0.241 OA
ENDBRANCH   3  22
TORSDOF 7
ENDMDL
MODEL 8
REMARK VINA RESULT:      -5.2     12.408     14.986
REMARK  7 active torsions:
REMARK  status: ('A' for Active; 'I' for Inactive)
REMARK    1  A    between atoms: C_2  and  C_3 
REMARK    2  A    between atoms: C_3  and  O_6 
REMARK    3  A    between atoms: C_3  and  C_4 
REMARK    4  A    between atoms: C_7  and  O_6 
REMARK    5  A    between atoms: C_9  and  C_10 
REMARK    6  A    between atoms: N_15  and  C_14 
REMARK    7  A    between atoms: N_20  and  C_19 
REMARK       I    between atoms: C_22  and  N_20 
ROOT
ATOM      1  C   LIG d   1     -16.371  65.860 116.082  0.00  0.00     0.161 C 
ATOM      2  C   LIG d   1     -15.885  67.055 115.527  0.00  0.00     0.016 C 
ATOM      3  C   LIG d   1     -15.793  67.285 114.135  0.00  0.00     0.038 C 
ATOM      4  C   LIG d   1     -16.325  66.387 113.198  0.00  0.00     0.028 C 
ATOM      5  C   LIG d   1     -16.367  64.946 113.696  0.00  0.00    -0.047 C 
ATOM      6  C   LIG d   1     -17.060  64.913 115.077  0.00  0.00     0.091 C 
ENDROOT
BRANCH   1   7
ATOM      7  O   LIG d   1     -17.258  66.156 117.180  0.00  0.00    -0.368 OA
BRANCH   7   8
ATOM      8  C   LIG d   1     -16.734  65.905 118.507  0.00  0.00     0.119 C 
BRANCH   8   9
ATOM      9  C   LIG d   1     -16.237  67.250 119.071  0.00  0.00     0.028 C 
ATOM     10  C   LIG d   1     -14.703  67.329 119.133  0.00  0.00     0.006 C 
ENDBRANCH   8   9
BRANCH   8  11
ATOM     11  C   LIG d   1     -15.497  65.004 118.457  0.00  0.00     0.028 C 
ATOM     12  C   LIG d   1     -15.746  63.615 119.066  0.00  0.00     0.006 C 
ENDBRANCH   8  11
ENDBRANCH   7   8
ENDBRANCH   1   7
BRANCH   6  13
ATOM     13  N   LIG d   1     -17.068  63.552 115.674  0.00  0.00    -0.311 N 
ATOM     14  C   LIG d   1     -18.067  62.686 115.512  0.00  0.00     0.210 C 
ATOM     15  C   LIG d   1     -17.884  61.345 116.229  0.00  0.00     0.109 C 
ATOM     16  O   LIG d   1     -19.073  62.889 114.815  0.00  0.00    -0.276 OA
ATOM     17  H   LIG d   1     -16.277  63.293 116.230  0.00  0.00     0.149 HD
ENDBRANCH   6  13
BRANCH   5  18
ATOM     18  N   LIG d   1     -17.070  64.143 112.677  0.00  0.00     0.381 N 
ATOM     19  H   LIG d   1     -17.853  63.679 113.092  0.00  0.00    -0.090 HD
ATOM     20  H   LIG d   1     -16.440  63.444 112.323  0.00  0.00    -0.090 HD
ATOM     21  H   LIG d   1     -17.378  64.730 111.933  0.00  0.00    -0.090 HD
ENDBRANCH   5  18
BRANCH   3  22
ATOM     22  C   LIG d   1     -15.126  68.407 113.667  0.00  0.00     0.382 C 
ATOM     23  O   LIG d   1     -15.046  68.619 112.433  0.00  0.00    -0.241 OA
ATOM     24  O   LIG d   1     -14.565  69.186 114.461  0.00  0.00    -0.241 OA
ENDBRANCH   3  22
TORSDOF 7
ENDMDL
MODEL 9
REMARK VINA RESULT:      -5.2      1.689      2.543
REMARK  7 active torsions:
REMARK  status: ('A' for Active; 'I' for Inactive)
REMARK    1  A    between atoms: C_2  and  C_3 
REMARK    2  A    between atoms: C_3  and  O_6 
REMARK    3  A    between atoms: C_3  and  C_4 
REMARK    4  A    between atoms: C_7  and  O_6 
REMARK    5  A    between atoms: C_9  and  C_10 
REMARK    6  A    between atoms: N_15  and  C_14 
REMARK    7  A    between atoms: N_20  and  C_19 
REMARK       I    between atoms: C_22  and  N_20 
ROOT
ATOM      1  C   LIG d   1      -6.376  76.890 117.017  0.00  0.00     0.161 C 
ATOM      2  C   LIG d   1      -7.726  76.505 116.968  0.00  0.00     0.016 C 
ATOM      3  C   LIG d   1      -8.782  77.306 117.462  0.00  0.00     0.038 C 
ATOM      4  C   LIG d   1      -8.571  78.621 117.903  0.00  0.00     0.028 C 
ATOM      5  C   LIG d   1      -7.164  78.861 118.438  0.00  0.00    -0.047 C 
ATOM      6  C   LIG d   1      -6.138  78.367 117.393  0.00  0.00     0.091 C 
ENDROOT
BRANCH   1   7
ATOM      7  O   LIG d   1      -5.735  76.583 115.763  0.00  0.00    -0.368 OA
BRANCH   7   8
ATOM      8  C   LIG d   1      -5.083  75.291 115.680  0.00  0.00     0.119 C 
BRANCH   8   9
ATOM      9  C   LIG d   1      -3.608  75.541 115.311  0.00  0.00     0.028 C 
ATOM     10  C   LIG d   1      -2.673  75.435 116.527  0.00  0.00     0.006 C 
ENDBRANCH   8   9
BRANCH   8  11
ATOM     11  C   LIG d   1      -5.652  74.453 114.531  0.00  0.00     0.028 C 
ATOM     12  C   LIG d   1      -6.074  73.043 114.975  0.00  0.00     0.006 C 
ENDBRANCH   8  11
ENDBRANCH   7   8
ENDBRANCH   1   7
BRANCH   6  13
ATOM     13  N   LIG d   1      -4.736  78.488 117.873  0.00  0.00    -0.311 N 
ATOM     14  C   LIG d   1      -3.743  78.964 117.123  0.00  0.00     0.210 C 
ATOM     15  C   LIG d   1      -2.372  78.985 117.805  0.00  0.00     0.109 C 
ATOM     16  O   LIG d   1      -3.875  79.401 115.970  0.00  0.00    -0.276 OA
ATOM     17  H   LIG d   1      -4.547  78.186 118.808  0.00  0.00     0.149 HD
ENDBRANCH   6  13
BRANCH   5  18
ATOM     18  N   LIG d   1      -7.040  80.301 118.734  0.00  0.00     0.381 N 
ATOM     19  H   LIG d   1      -6.205  80.469 119.259  0.00  0.00    -0.090 HD
ATOM     20  H   LIG d   1      -7.825  80.588 119.291  0.00  0.00    -0.090 HD
ATOM     21  H   LIG d   1      -7.017  80.823 117.886  0.00  0.00    -0.090 HD
ENDBRANCH   5  18
BRANCH   3  22
ATOM     22  C   LIG d   1     -10.060  76.777 117.554  0.00  0.00     0.382 C 
ATOM     23  O   LIG d   1     -10.357  75.739 116.914  0.00  0.00    -0.241 OA
ATOM     24  O   LIG d   1     -10.933  77.350 118.233  0.00  0.00    -0.241 OA
ENDBRANCH   3  22
TORSDOF 7
ENDMDL
