MODEL 1
REMARK VINA RESULT:      -5.9      0.000      0.000
REMARK  7 active torsions:
REMARK  status: ('A' for Active; 'I' for Inactive)
REMARK    1  A    between atoms: C_2  and  C_3 
REMARK    2  A    between atoms: C_3  and  O_6 
REMARK    3  A    between atoms: C_3  and  C_4 
REMARK    4  A    between atoms: C_7  and  O_6 
REMARK    5  A    between atoms: C_9  and  C_10 
REMARK    6  A    between atoms: N_15  and  C_14 
REMARK    7  A    between atoms: N_20  and  C_19 
REMARK       I    between atoms: C_22  and  N_20 
ROOT
ATOM      1  C   LIG d   1      -8.327  75.626 118.097  0.00  0.00     0.161 C 
ATOM      2  C   LIG d   1      -8.154  74.257 117.832  0.00  0.00     0.016 C 
ATOM      3  C   LIG d   1      -7.293  73.762 116.826  0.00  0.00     0.038 C 
ATOM      4  C   LIG d   1      -6.425  74.602 116.113  0.00  0.00     0.028 C 
ATOM      5  C   LIG d   1      -6.931  76.036 115.996  0.00  0.00    -0.047 C 
ATOM      6  C   LIG d   1      -7.305  76.552 117.404  0.00  0.00     0.091 C 
ENDROOT
BRANCH   1   7
ATOM      7  O   LIG d   1      -8.324  75.852 119.520  0.00  0.00    -0.368 OA
BRANCH   7   8
ATOM      8  C   LIG d   1      -9.615  75.804 120.176  0.00  0.00     0.119 C 
BRANCH   8   9
ATOM      9  C   LIG d   1     -10.412  77.041 119.719  0.00  0.00     0.028 C 
ATOM     10  C   LIG d   1     -10.232  78.239 120.667  0.00  0.00     0.006 C 
ENDBRANCH   8   9
BRANCH   8  11
ATOM     11  C   LIG d   1      -9.475  75.950 121.694  0.00  0.00     0.028 C 
ATOM     12  C   LIG d   1      -8.106  75.483 122.214  0.00  0.00     0.006 C 
ENDBRANCH   8  11
ENDBRANCH   7   8
ENDBRANCH   1   7
BRANCH   6  13
ATOM     13  N   LIG d   1      -7.888  77.919 117.370  0.00  0.00    -0.311 N 
ATOM     14  C   LIG d   1      -7.490  78.906 118.171  0.00  0.00     0.210 C 
ATOM     15  C   LIG d   1      -8.237  80.231 117.985  0.00  0.00     0.109 C 
ATOM     16  O   LIG d   1      -6.567  78.819 118.995  0.00  0.00    -0.276 OA
ATOM     17  H   LIG d   1      -8.622  78.086 116.710  0.00  0.00     0.149 HD
ENDBRANCH   6  13
BRANCH   5  18
ATOM     18  N   LIG d   1      -5.869  76.832 115.352  0.00  0.00     0.381 N 
ATOM     19  H   LIG d   1      -5.728  77.683 115.860  0.00  0.00    -0.090 HD
ATOM     20  H   LIG d   1      -6.159  77.066 114.419  0.00  0.00    -0.090 HD
ATOM     21  H   LIG d   1      -5.021  76.310 115.323  0.00  0.00    -0.090 HD
ENDBRANCH   5  18
BRANCH   3  22
ATOM     22  C   LIG d   1      -7.323  72.415 116.497  0.00  0.00     0.382 C 
ATOM     23  O   LIG d   1      -6.523  71.960 115.644  0.00  0.00    -0.241 OA
ATOM     24  O   LIG d   1      -8.169  71.658 117.010  0.00  0.00    -0.241 OA
ENDBRANCH   3  22
TORSDOF 7
ENDMDL
MODEL 2
REMARK VINA RESULT:      -5.7      2.464      4.181
REMARK  7 active torsions:
REMARK  status: ('A' for Active; 'I' for Inactive)
REMARK    1  A    between atoms: C_2  and  C_3 
REMARK    2  A    between atoms: C_3  and  O_6 
REMARK    3  A    between atoms: C_3  and  C_4 
REMARK    4  A    between atoms: C_7  and  O_6 
REMARK    5  A    between atoms: C_9  and  C_10 
REMARK    6  A    between atoms: N_15  and  C_14 
REMARK    7  A    between atoms: N_20  and  C_19 
REMARK       I    between atoms: C_22  and  N_20 
ROOT
ATOM      1  C   LIG d   1      -7.066  77.514 117.376  0.00  0.00     0.161 C 
ATOM      2  C   LIG d   1      -6.080  77.494 116.376  0.00  0.00     0.016 C 
ATOM      3  C   LIG d   1      -5.810  76.363 115.572  0.00  0.00     0.038 C 
ATOM      4  C   LIG d   1      -6.616  75.216 115.611  0.00  0.00     0.028 C 
ATOM      5  C   LIG d   1      -7.304  75.005 116.956  0.00  0.00    -0.047 C 
ATOM      6  C   LIG d   1      -8.029  76.309 117.358  0.00  0.00     0.091 C 
ENDROOT
BRANCH   1   7
ATOM      7  O   LIG d   1      -7.806  78.749 117.308  0.00  0.00    -0.368 OA
BRANCH   7   8
ATOM      8  C   LIG d   1      -7.507  79.729 118.331  0.00  0.00     0.119 C 
BRANCH   8   9
ATOM      9  C   LIG d   1      -6.761  79.000 119.466  0.00  0.00     0.028 C 
ATOM     10  C   LIG d   1      -7.502  79.093 120.810  0.00  0.00     0.006 C 
ENDBRANCH   8   9
BRANCH   8  11
ATOM     11  C   LIG d   1      -8.786  80.274 118.972  0.00  0.00     0.028 C 
ATOM     12  C   LIG d   1      -9.830  80.719 117.935  0.00  0.00     0.006 C 
ENDBRANCH   8  11
ENDBRANCH   7   8
ENDBRANCH   1   7
BRANCH   6  13
ATOM     13  N   LIG d   1      -8.659  76.216 118.701  0.00  0.00    -0.311 N 
ATOM     14  C   LIG d   1      -9.873  76.689 118.976  0.00  0.00     0.210 C 
ATOM     15  C   LIG d   1     -10.324  76.508 120.429  0.00  0.00     0.109 C 
ATOM     16  O   LIG d   1     -10.633  77.212 118.147  0.00  0.00    -0.276 OA
ATOM     17  H   LIG d   1      -8.124  75.778 119.426  0.00  0.00     0.149 HD
ENDBRANCH   6  13
BRANCH   5  18
ATOM     18  N   LIG d   1      -8.217  73.855 116.814  0.00  0.00     0.381 N 
ATOM     19  H   LIG d   1      -8.270  73.581 115.853  0.00  0.00    -0.090 HD
ATOM     20  H   LIG d   1      -9.136  74.131 117.114  0.00  0.00    -0.090 HD
ATOM     21  H   LIG d   1      -7.894  73.092 117.367  0.00  0.00    -0.090 HD
ENDBRANCH   5  18
BRANCH   3  22
ATOM     22  C   LIG d   1      -4.698  76.358 114.743  0.00  0.00     0.382 C 
ATOM     23  O   LIG d   1      -4.120  77.436 114.463  0.00  0.00    -0.241 OA
ATOM     24  O   LIG d   1      -4.291  75.295 114.238  0.00  0.00    -0.241 OA
ENDBRANCH   3  22
TORSDOF 7
ENDMDL
MODEL 3
REMARK VINA RESULT:      -5.6     14.870     17.699
REMARK  7 active torsions:
REMARK  status: ('A' for Active; 'I' for Inactive)
REMARK    1  A    between atoms: C_2  and  C_3 
REMARK    2  A    between atoms: C_3  and  O_6 
REMARK    3  A    between atoms: C_3  and  C_4 
REMARK    4  A    between atoms: C_7  and  O_6 
REMARK    5  A    between atoms: C_9  and  C_10 
REMARK    6  A    between atoms: N_15  and  C_14 
REMARK    7  A    between atoms: N_20  and  C_19 
REMARK       I    between atoms: C_22  and  N_20 
ROOT
ATOM      1  C   LIG d   1      -6.517  93.421 117.435  0.00  0.00     0.161 C 
ATOM      2  C   LIG d   1      -6.960  92.197 116.907  0.00  0.00     0.016 C 
ATOM      3  C   LIG d   1      -6.098  91.112 116.628  0.00  0.00     0.038 C 
ATOM      4  C   LIG d   1      -4.746  91.125 117.002  0.00  0.00     0.028 C 
ATOM      5  C   LIG d   1      -4.151  92.527 117.076  0.00  0.00    -0.047 C 
ATOM      6  C   LIG d   1      -5.064  93.413 117.953  0.00  0.00     0.091 C 
ENDROOT
BRANCH   1   7
ATOM      7  O   LIG d   1      -7.417  93.859 118.473  0.00  0.00    -0.368 OA
BRANCH   7   8
ATOM      8  C   LIG d   1      -8.501  94.723 118.053  0.00  0.00     0.119 C 
BRANCH   8   9
ATOM      9  C   LIG d   1      -7.940  96.155 117.951  0.00  0.00     0.028 C 
ATOM     10  C   LIG d   1      -8.966  97.219 118.376  0.00  0.00     0.006 C 
ENDBRANCH   8   9
BRANCH   8  11
ATOM     11  C   LIG d   1      -9.602  94.793 119.116  0.00  0.00     0.028 C 
ATOM     12  C   LIG d   1      -9.691  93.516 119.966  0.00  0.00     0.006 C 
ENDBRANCH   8  11
ENDBRANCH   7   8
ENDBRANCH   1   7
BRANCH   6  13
ATOM     13  N   LIG d   1      -4.599  94.824 118.010  0.00  0.00    -0.311 N 
ATOM     14  C   LIG d   1      -4.378  95.478 119.149  0.00  0.00     0.210 C 
ATOM     15  C   LIG d   1      -3.922  96.931 118.982  0.00  0.00     0.109 C 
ATOM     16  O   LIG d   1      -4.485  94.983 120.281  0.00  0.00    -0.276 OA
ATOM     17  H   LIG d   1      -4.457  95.293 117.137  0.00  0.00     0.149 HD
ENDBRANCH   6  13
BRANCH   5  18
ATOM     18  N   LIG d   1      -2.781  92.402 117.609  0.00  0.00     0.381 N 
ATOM     19  H   LIG d   1      -2.755  92.726 118.556  0.00  0.00    -0.090 HD
ATOM     20  H   LIG d   1      -2.166  92.977 117.062  0.00  0.00    -0.090 HD
ATOM     21  H   LIG d   1      -2.484  91.452 117.568  0.00  0.00    -0.090 HD
ENDBRANCH   5  18
BRANCH   3  22
ATOM     22  C   LIG d   1      -6.578  90.014 115.931  0.00  0.00     0.382 C 
ATOM     23  O   LIG d   1      -5.978  89.610 114.906  0.00  0.00    -0.241 OA
ATOM     24  O   LIG d   1      -7.629  89.449 116.288  0.00  0.00    -0.241 OA
ENDBRANCH   3  22
TORSDOF 7
ENDMDL
MODEL 4
REMARK VINA RESULT:      -5.4      2.274      3.665
REMARK  7 active torsions:
REMARK  status: ('A' for Active; 'I' for Inactive)
REMARK    1  A    between atoms: C_2  and  C_3 
REMARK    2  A    between atoms: C_3  and  O_6 
REMARK    3  A    between atoms: C_3  and  C_4 
REMARK    4  A    between atoms: C_7  and  O_6 
REMARK    5  A    between atoms: C_9  and  C_10 
REMARK    6  A    between atoms: N_15  and  C_14 
REMARK    7  A    between atoms: N_20  and  C_19 
REMARK       I    between atoms: C_22  and  N_20 
ROOT
ATOM      1  C   LIG d   1      -7.554  76.749 116.781  0.00  0.00     0.161 C 
ATOM      2  C   LIG d   1      -6.864  76.157 115.710  0.00  0.00     0.016 C 
ATOM      3  C   LIG d   1      -5.483  76.347 115.473  0.00  0.00     0.038 C 
ATOM      4  C   LIG d   1      -4.662  77.027 116.385  0.00  0.00     0.028 C 
ATOM      5  C   LIG d   1      -5.408  78.066 117.215  0.00  0.00    -0.047 C 
ATOM      6  C   LIG d   1      -6.653  77.403 117.848  0.00  0.00     0.091 C 
ENDROOT
BRANCH   1   7
ATOM      7  O   LIG d   1      -8.433  75.782 117.390  0.00  0.00    -0.368 OA
BRANCH   7   8
ATOM      8  C   LIG d   1      -7.805  74.575 117.887  0.00  0.00     0.119 C 
BRANCH   8   9
ATOM      9  C   LIG d   1      -8.339  73.397 117.049  0.00  0.00     0.028 C 
ATOM     10  C   LIG d   1      -7.209  72.565 116.419  0.00  0.00     0.006 C 
ENDBRANCH   8   9
BRANCH   8  11
ATOM     11  C   LIG d   1      -8.233  74.276 119.327  0.00  0.00     0.028 C 
ATOM     12  C   LIG d   1      -8.985  75.446 119.980  0.00  0.00     0.006 C 
ENDBRANCH   8  11
ENDBRANCH   7   8
ENDBRANCH   1   7
BRANCH   6  13
ATOM     13  N   LIG d   1      -7.485  78.371 118.609  0.00  0.00    -0.311 N 
ATOM     14  C   LIG d   1      -7.304  78.637 119.901  0.00  0.00     0.210 C 
ATOM     15  C   LIG d   1      -8.285  79.652 120.496  0.00  0.00     0.109 C 
ATOM     16  O   LIG d   1      -6.403  78.154 120.603  0.00  0.00    -0.276 OA
ATOM     17  H   LIG d   1      -8.220  78.832 118.109  0.00  0.00     0.149 HD
ENDBRANCH   6  13
BRANCH   5  18
ATOM     18  N   LIG d   1      -4.464  78.598 118.216  0.00  0.00     0.381 N 
ATOM     19  H   LIG d   1      -4.537  79.595 118.253  0.00  0.00    -0.090 HD
ATOM     20  H   LIG d   1      -3.528  78.361 117.939  0.00  0.00    -0.090 HD
ATOM     21  H   LIG d   1      -4.662  78.210 119.112  0.00  0.00    -0.090 HD
ENDBRANCH   5  18
BRANCH   3  22
ATOM     22  C   LIG d   1      -4.919  75.889 114.293  0.00  0.00     0.382 C 
ATOM     23  O   LIG d   1      -4.380  76.698 113.500  0.00  0.00    -0.241 OA
ATOM     24  O   LIG d   1      -4.980  74.682 113.990  0.00  0.00    -0.241 OA
ENDBRANCH   3  22
TORSDOF 7
ENDMDL
MODEL 5
REMARK VINA RESULT:      -5.3      3.107      4.794
REMARK  7 active torsions:
REMARK  status: ('A' for Active; 'I' for Inactive)
REMARK    1  A    between atoms: C_2  and  C_3 
REMARK    2  A    between atoms: C_3  and  O_6 
REMARK    3  A    between atoms: C_3  and  C_4 
REMARK    4  A    between atoms: C_7  and  O_6 
REMARK    5  A    between atoms: C_9  and  C_10 
REMARK    6  A    between atoms: N_15  and  C_14 
REMARK    7  A    between atoms: N_20  and  C_19 
REMARK       I    between atoms: C_22  and  N_20 
ROOT
ATOM      1  C   LIG d   1      -5.498  76.721 115.581  0.00  0.00     0.161 C 
ATOM      2  C   LIG d   1      -4.340  76.007 115.231  0.00  0.00     0.016 C 
ATOM      3  C   LIG d   1      -3.138  76.062 115.973  0.00  0.00     0.038 C 
ATOM      4  C   LIG d   1      -3.059  76.721 117.209  0.00  0.00     0.028 C 
ATOM      5  C   LIG d   1      -4.052  77.870 117.347  0.00  0.00    -0.047 C 
ATOM      6  C   LIG d   1      -5.465  77.357 116.986  0.00  0.00     0.091 C 
ENDROOT
BRANCH   1   7
ATOM      7  O   LIG d   1      -6.655  75.873 115.441  0.00  0.00    -0.368 OA
BRANCH   7   8
ATOM      8  C   LIG d   1      -6.814  74.842 116.447  0.00  0.00     0.119 C 
BRANCH   8   9
ATOM      9  C   LIG d   1      -6.393  73.504 115.808  0.00  0.00     0.028 C 
ATOM     10  C   LIG d   1      -7.199  72.313 116.354  0.00  0.00     0.006 C 
ENDBRANCH   8   9
BRANCH   8  11
ATOM     11  C   LIG d   1      -8.286  74.661 116.831  0.00  0.00     0.028 C 
ATOM     12  C   LIG d   1      -9.056  75.990 116.880  0.00  0.00     0.006 C 
ENDBRANCH   8  11
ENDBRANCH   7   8
ENDBRANCH   1   7
BRANCH   6  13
ATOM     13  N   LIG d   1      -6.485  78.438 117.014  0.00  0.00    -0.311 N 
ATOM     14  C   LIG d   1      -7.209  78.736 118.091  0.00  0.00     0.210 C 
ATOM     15  C   LIG d   1      -8.218  79.872 117.899  0.00  0.00     0.109 C 
ATOM     16  O   LIG d   1      -7.089  78.188 119.197  0.00  0.00    -0.276 OA
ATOM     17  H   LIG d   1      -6.625  78.955 116.168  0.00  0.00     0.149 HD
ENDBRANCH   6  13
BRANCH   5  18
ATOM     18  N   LIG d   1      -3.957  78.378 118.729  0.00  0.00     0.381 N 
ATOM     19  H   LIG d   1      -3.054  78.167 119.106  0.00  0.00    -0.090 HD
ATOM     20  H   LIG d   1      -4.650  77.918 119.293  0.00  0.00    -0.090 HD
ATOM     21  H   LIG d   1      -4.109  79.362 118.741  0.00  0.00    -0.090 HD
ENDBRANCH   5  18
BRANCH   3  22
ATOM     22  C   LIG d   1      -1.986  75.485 115.460  0.00  0.00     0.382 C 
ATOM     23  O   LIG d   1      -1.481  75.929 114.401  0.00  0.00    -0.241 OA
ATOM     24  O   LIG d   1      -1.470  74.499 116.019  0.00  0.00    -0.241 OA
ENDBRANCH   3  22
TORSDOF 7
ENDMDL
MODEL 6
REMARK VINA RESULT:      -5.2      2.761      4.456
REMARK  7 active torsions:
REMARK  status: ('A' for Active; 'I' for Inactive)
REMARK    1  A    between atoms: C_2  and  C_3 
REMARK    2  A    between atoms: C_3  and  O_6 
REMARK    3  A    between atoms: C_3  and  C_4 
REMARK    4  A    between atoms: C_7  and  O_6 
REMARK    5  A    between atoms: C_9  and  C_10 
REMARK    6  A    between atoms: N_15  and  C_14 
REMARK    7  A    between atoms: N_20  and  C_19 
REMARK       I    between atoms: C_22  and  N_20 
ROOT
ATOM      1  C   LIG d   1      -5.986  77.494 117.732  0.00  0.00     0.161 C 
ATOM      2  C   LIG d   1      -5.141  77.200 116.650  0.00  0.00     0.016 C 
ATOM      3  C   LIG d   1      -5.569  76.504 115.496  0.00  0.00     0.038 C 
ATOM      4  C   LIG d   1      -6.918  76.185 115.279  0.00  0.00     0.028 C 
ATOM      5  C   LIG d   1      -7.715  76.015 116.568  0.00  0.00    -0.047 C 
ATOM      6  C   LIG d   1      -7.487  77.253 117.466  0.00  0.00     0.091 C 
ENDROOT
BRANCH   1   7
ATOM      7  O   LIG d   1      -5.767  78.850 118.169  0.00  0.00    -0.368 OA
BRANCH   7   8
ATOM      8  C   LIG d   1      -5.057  79.010 119.422  0.00  0.00     0.119 C 
BRANCH   8   9
ATOM      9  C   LIG d   1      -5.761  80.129 120.213  0.00  0.00     0.028 C 
ATOM     10  C   LIG d   1      -7.114  80.522 119.597  0.00  0.00     0.006 C 
ENDBRANCH   8   9
BRANCH   8  11
ATOM     11  C   LIG d   1      -3.628  79.511 119.193  0.00  0.00     0.028 C 
ATOM     12  C   LIG d   1      -3.369  80.884 119.834  0.00  0.00     0.006 C 
ENDBRANCH   8  11
ENDBRANCH   7   8
ENDBRANCH   1   7
BRANCH   6  13
ATOM     13  N   LIG d   1      -8.164  77.130 118.784  0.00  0.00    -0.311 N 
ATOM     14  C   LIG d   1      -9.386  77.600 119.027  0.00  0.00     0.210 C 
ATOM     15  C   LIG d   1      -9.888  77.386 120.458  0.00  0.00     0.109 C 
ATOM     16  O   LIG d   1     -10.114  78.147 118.185  0.00  0.00    -0.276 OA
ATOM     17  H   LIG d   1      -7.657  76.672 119.516  0.00  0.00     0.149 HD
ENDBRANCH   6  13
BRANCH   5  18
ATOM     18  N   LIG d   1      -9.129  75.823 116.196  0.00  0.00     0.381 N 
ATOM     19  H   LIG d   1      -9.256  74.909 115.809  0.00  0.00    -0.090 HD
ATOM     20  H   LIG d   1      -9.376  76.500 115.496  0.00  0.00    -0.090 HD
ATOM     21  H   LIG d   1      -9.711  75.936 116.997  0.00  0.00    -0.090 HD
ENDBRANCH   5  18
BRANCH   3  22
ATOM     22  C   LIG d   1      -4.635  76.083 114.561  0.00  0.00     0.382 C 
ATOM     23  O   LIG d   1      -3.871  75.124 114.826  0.00  0.00    -0.241 OA
ATOM     24  O   LIG d   1      -4.517  76.679 113.473  0.00  0.00    -0.241 OA
ENDBRANCH   3  22
TORSDOF 7
ENDMDL
MODEL 7
REMARK VINA RESULT:      -5.1     15.128     17.441
REMARK  7 active torsions:
REMARK  status: ('A' for Active; 'I' for Inactive)
REMARK    1  A    between atoms: C_2  and  C_3 
REMARK    2  A    between atoms: C_3  and  O_6 
REMARK    3  A    between atoms: C_3  and  C_4 
REMARK    4  A    between atoms: C_7  and  O_6 
REMARK    5  A    between atoms: C_9  and  C_10 
REMARK    6  A    between atoms: N_15  and  C_14 
REMARK    7  A    between atoms: N_20  and  C_19 
REMARK       I    between atoms: C_22  and  N_20 
ROOT
ATOM      1  C   LIG d   1      -4.914  92.192 117.789  0.00  0.00     0.161 C 
ATOM      2  C   LIG d   1      -5.384  91.409 116.721  0.00  0.00     0.016 C 
ATOM      3  C   LIG d   1      -6.405  91.830 115.838  0.00  0.00     0.038 C 
ATOM      4  C   LIG d   1      -6.924  93.132 115.872  0.00  0.00     0.028 C 
ATOM      5  C   LIG d   1      -6.840  93.783 117.249  0.00  0.00    -0.047 C 
ATOM      6  C   LIG d   1      -5.391  93.660 117.773  0.00  0.00     0.091 C 
ENDROOT
BRANCH   1   7
ATOM      7  O   LIG d   1      -3.475  92.134 117.842  0.00  0.00    -0.368 OA
BRANCH   7   8
ATOM      8  C   LIG d   1      -2.908  91.352 118.922  0.00  0.00     0.119 C 
BRANCH   8   9
ATOM      9  C   LIG d   1      -2.082  92.310 119.802  0.00  0.00     0.028 C 
ATOM     10  C   LIG d   1      -1.205  93.262 118.971  0.00  0.00     0.006 C 
ENDBRANCH   8   9
BRANCH   8  11
ATOM     11  C   LIG d   1      -1.907  90.319 118.397  0.00  0.00     0.028 C 
ATOM     12  C   LIG d   1      -2.587  89.136 117.689  0.00  0.00     0.006 C 
ENDBRANCH   8  11
ENDBRANCH   7   8
ENDBRANCH   1   7
BRANCH   6  13
ATOM     13  N   LIG d   1      -5.239  94.197 119.151  0.00  0.00    -0.311 N 
ATOM     14  C   LIG d   1      -4.408  95.189 119.464  0.00  0.00     0.210 C 
ATOM     15  C   LIG d   1      -4.391  95.576 120.946  0.00  0.00     0.109 C 
ATOM     16  O   LIG d   1      -3.706  95.807 118.649  0.00  0.00    -0.276 OA
ATOM     17  H   LIG d   1      -5.794  93.774 119.869  0.00  0.00     0.149 HD
ENDBRANCH   6  13
BRANCH   5  18
ATOM     18  N   LIG d   1      -7.287  95.181 117.109  0.00  0.00     0.381 N 
ATOM     19  H   LIG d   1      -7.510  95.372 116.152  0.00  0.00    -0.090 HD
ATOM     20  H   LIG d   1      -6.538  95.792 117.386  0.00  0.00    -0.090 HD
ATOM     21  H   LIG d   1      -8.086  95.343 117.682  0.00  0.00    -0.090 HD
ENDBRANCH   5  18
BRANCH   3  22
ATOM     22  C   LIG d   1      -6.945  90.928 114.934  0.00  0.00     0.382 C 
ATOM     23  O   LIG d   1      -6.505  89.755 114.879  0.00  0.00    -0.241 OA
ATOM     24  O   LIG d   1      -7.837  91.286 114.141  0.00  0.00    -0.241 OA
ENDBRANCH   3  22
TORSDOF 7
ENDMDL
MODEL 8
REMARK VINA RESULT:      -5.0      2.998      4.767
REMARK  7 active torsions:
REMARK  status: ('A' for Active; 'I' for Inactive)
REMARK    1  A    between atoms: C_2  and  C_3 
REMARK    2  A    between atoms: C_3  and  O_6 
REMARK    3  A    between atoms: C_3  and  C_4 
REMARK    4  A    between atoms: C_7  and  O_6 
REMARK    5  A    between atoms: C_9  and  C_10 
REMARK    6  A    between atoms: N_15  and  C_14 
REMARK    7  A    between atoms: N_20  and  C_19 
REMARK       I    between atoms: C_22  and  N_20 
ROOT
ATOM      1  C   LIG d   1      -7.193  77.765 119.437  0.00  0.00     0.161 C 
ATOM      2  C   LIG d   1      -6.058  77.966 118.634  0.00  0.00     0.016 C 
ATOM      3  C   LIG d   1      -5.967  77.529 117.292  0.00  0.00     0.038 C 
ATOM      4  C   LIG d   1      -7.068  76.991 116.611  0.00  0.00     0.028 C 
ATOM      5  C   LIG d   1      -8.075  76.309 117.531  0.00  0.00    -0.047 C 
ATOM      6  C   LIG d   1      -8.445  77.278 118.677  0.00  0.00     0.091 C 
ENDROOT
BRANCH   1   7
ATOM      7  O   LIG d   1      -7.491  78.967 120.173  0.00  0.00    -0.368 OA
BRANCH   7   8
ATOM      8  C   LIG d   1      -7.473  80.201 119.414  0.00  0.00     0.119 C 
BRANCH   8   9
ATOM      9  C   LIG d   1      -6.676  81.236 120.231  0.00  0.00     0.028 C 
ATOM     10  C   LIG d   1      -7.353  82.617 120.249  0.00  0.00     0.006 C 
ENDBRANCH   8   9
BRANCH   8  11
ATOM     11  C   LIG d   1      -8.880  80.790 119.275  0.00  0.00     0.028 C 
ATOM     12  C   LIG d   1      -9.446  80.653 117.853  0.00  0.00     0.006 C 
ENDBRANCH   8  11
ENDBRANCH   7   8
ENDBRANCH   1   7
BRANCH   6  13
ATOM     13  N   LIG d   1      -9.362  76.659 119.669  0.00  0.00    -0.311 N 
ATOM     14  C   LIG d   1     -10.686  76.796 119.629  0.00  0.00     0.210 C 
ATOM     15  C   LIG d   1     -11.443  76.092 120.760  0.00  0.00     0.109 C 
ATOM     16  O   LIG d   1     -11.308  77.406 118.747  0.00  0.00    -0.276 OA
ATOM     17  H   LIG d   1      -8.943  76.121 120.403  0.00  0.00     0.149 HD
ENDBRANCH   6  13
BRANCH   5  18
ATOM     18  N   LIG d   1      -9.235  75.916 116.709  0.00  0.00     0.381 N 
ATOM     19  H   LIG d   1      -8.994  75.133 116.135  0.00  0.00    -0.090 HD
ATOM     20  H   LIG d   1      -9.483  76.683 116.109  0.00  0.00    -0.090 HD
ATOM     21  H   LIG d   1     -10.005  75.681 117.296  0.00  0.00    -0.090 HD
ENDBRANCH   5  18
BRANCH   3  22
ATOM     22  C   LIG d   1      -4.750  77.593 116.631  0.00  0.00     0.382 C 
ATOM     23  O   LIG d   1      -3.698  77.830 117.273  0.00  0.00    -0.241 OA
ATOM     24  O   LIG d   1      -4.696  77.461 115.393  0.00  0.00    -0.241 OA
ENDBRANCH   3  22
TORSDOF 7
ENDMDL
MODEL 9
REMARK VINA RESULT:      -4.9      6.505      8.321
REMARK  7 active torsions:
REMARK  status: ('A' for Active; 'I' for Inactive)
REMARK    1  A    between atoms: C_2  and  C_3 
REMARK    2  A    between atoms: C_3  and  O_6 
REMARK    3  A    between atoms: C_3  and  C_4 
REMARK    4  A    between atoms: C_7  and  O_6 
REMARK    5  A    between atoms: C_9  and  C_10 
REMARK    6  A    between atoms: N_15  and  C_14 
REMARK    7  A    between atoms: N_20  and  C_19 
REMARK       I    between atoms: C_22  and  N_20 
ROOT
ATOM      1  C   LIG d   1      -0.107  77.291 116.791  0.00  0.00     0.161 C 
ATOM      2  C   LIG d   1      -0.839  77.691 115.660  0.00  0.00     0.016 C 
ATOM      3  C   LIG d   1      -1.791  76.866 115.018  0.00  0.00     0.038 C 
ATOM      4  C   LIG d   1      -2.188  75.634 115.557  0.00  0.00     0.028 C 
ATOM      5  C   LIG d   1      -1.113  74.973 116.414  0.00  0.00    -0.047 C 
ATOM      6  C   LIG d   1      -0.607  75.993 117.459  0.00  0.00     0.091 C 
ENDROOT
BRANCH   1   7
ATOM      7  O   LIG d   1      -0.067  78.365 117.751  0.00  0.00    -0.368 OA
BRANCH   7   8
ATOM      8  C   LIG d   1      -1.155  79.319 117.687  0.00  0.00     0.119 C 
BRANCH   8   9
ATOM      9  C   LIG d   1      -0.559  80.719 117.933  0.00  0.00     0.028 C 
ATOM     10  C   LIG d   1       0.342  81.185 116.777  0.00  0.00     0.006 C 
ENDBRANCH   8   9
BRANCH   8  11
ATOM     11  C   LIG d   1      -2.158  79.100 118.824  0.00  0.00     0.028 C 
ATOM     12  C   LIG d   1      -3.441  78.394 118.358  0.00  0.00     0.006 C 
ENDBRANCH   8  11
ENDBRANCH   7   8
ENDBRANCH   1   7
BRANCH   6  13
ATOM     13  N   LIG d   1       0.505  75.455 118.284  0.00  0.00    -0.311 N 
ATOM     14  C   LIG d   1       0.320  74.828 119.445  0.00  0.00     0.210 C 
ATOM     15  C   LIG d   1       1.604  74.370 120.144  0.00  0.00     0.109 C 
ATOM     16  O   LIG d   1      -0.787  74.580 119.946  0.00  0.00    -0.276 OA
ATOM     17  H   LIG d   1       1.435  75.585 117.937  0.00  0.00     0.149 HD
ENDBRANCH   6  13
BRANCH   5  18
ATOM     18  N   LIG d   1      -1.708  73.768 117.023  0.00  0.00     0.381 N 
ATOM     19  H   LIG d   1      -2.521  74.020 117.548  0.00  0.00    -0.090 HD
ATOM     20  H   LIG d   1      -1.040  73.358 117.652  0.00  0.00    -0.090 HD
ATOM     21  H   LIG d   1      -1.952  73.112 116.313  0.00  0.00    -0.090 HD
ENDBRANCH   5  18
BRANCH   3  22
ATOM     22  C   LIG d   1      -2.327  77.256 113.800  0.00  0.00     0.382 C 
ATOM     23  O   LIG d   1      -3.521  77.635 113.733  0.00  0.00    -0.241 OA
ATOM     24  O   LIG d   1      -1.645  77.191 112.759  0.00  0.00    -0.241 OA
ENDBRANCH   3  22
TORSDOF 7
ENDMDL
