MODEL 1
REMARK VINA RESULT:      -5.6      0.000      0.000
REMARK  7 active torsions:
REMARK  status: ('A' for Active; 'I' for Inactive)
REMARK    1  A    between atoms: C_2  and  C_3 
REMARK    2  A    between atoms: C_3  and  O_6 
REMARK    3  A    between atoms: C_3  and  C_4 
REMARK    4  A    between atoms: C_7  and  O_6 
REMARK    5  A    between atoms: C_9  and  C_10 
REMARK    6  A    between atoms: N_15  and  C_14 
REMARK    7  A    between atoms: N_20  and  C_19 
REMARK       I    between atoms: C_22  and  N_20 
ROOT
ATOM      1  C   LIG d   1     -15.604  67.396 115.753  0.00  0.00     0.161 C 
ATOM      2  C   LIG d   1     -15.239  68.248 114.698  0.00  0.00     0.016 C 
ATOM      3  C   LIG d   1     -15.175  67.831 113.348  0.00  0.00     0.038 C 
ATOM      4  C   LIG d   1     -15.621  66.565 112.941  0.00  0.00     0.028 C 
ATOM      5  C   LIG d   1     -15.521  65.507 114.034  0.00  0.00    -0.047 C 
ATOM      6  C   LIG d   1     -16.202  66.043 115.315  0.00  0.00     0.091 C 
ENDROOT
BRANCH   1   7
ATOM      7  O   LIG d   1     -16.511  68.080 116.641  0.00  0.00    -0.368 OA
BRANCH   7   8
ATOM      8  C   LIG d   1     -15.931  68.613 117.857  0.00  0.00     0.119 C 
BRANCH   8   9
ATOM      9  C   LIG d   1     -15.084  67.495 118.495  0.00  0.00     0.028 C 
ATOM     10  C   LIG d   1     -14.358  67.962 119.768  0.00  0.00     0.006 C 
ENDBRANCH   8   9
BRANCH   8  11
ATOM     11  C   LIG d   1     -17.012  68.943 118.892  0.00  0.00     0.028 C 
ATOM     12  C   LIG d   1     -18.151  67.911 118.913  0.00  0.00     0.006 C 
ENDBRANCH   8  11
ENDBRANCH   7   8
ENDBRANCH   1   7
BRANCH   6  13
ATOM     13  N   LIG d   1     -16.076  65.103 116.459  0.00  0.00    -0.311 N 
ATOM     14  C   LIG d   1     -17.120  64.613 117.124  0.00  0.00     0.210 C 
ATOM     15  C   LIG d   1     -16.767  63.676 118.284  0.00  0.00     0.109 C 
ATOM     16  O   LIG d   1     -18.307  64.839 116.843  0.00  0.00    -0.276 OA
ATOM     17  H   LIG d   1     -15.149  64.842 116.735  0.00  0.00     0.149 HD
ENDBRANCH   6  13
BRANCH   5  18
ATOM     18  N   LIG d   1     -16.146  64.274 113.520  0.00  0.00     0.381 N 
ATOM     19  H   LIG d   1     -16.684  63.840 114.243  0.00  0.00    -0.090 HD
ATOM     20  H   LIG d   1     -15.423  63.636 113.239  0.00  0.00    -0.090 HD
ATOM     21  H   LIG d   1     -16.732  64.487 112.743  0.00  0.00    -0.090 HD
ENDBRANCH   5  18
BRANCH   3  22
ATOM     22  C   LIG d   1     -14.621  68.673 112.395  0.00  0.00     0.382 C 
ATOM     23  O   LIG d   1     -15.289  69.635 111.946  0.00  0.00    -0.241 OA
ATOM     24  O   LIG d   1     -13.480  68.455 111.946  0.00  0.00    -0.241 OA
ENDBRANCH   3  22
TORSDOF 7
ENDMDL
MODEL 2
REMARK VINA RESULT:      -5.6      2.254      4.332
REMARK  7 active torsions:
REMARK  status: ('A' for Active; 'I' for Inactive)
REMARK    1  A    between atoms: C_2  and  C_3 
REMARK    2  A    between atoms: C_3  and  O_6 
REMARK    3  A    between atoms: C_3  and  C_4 
REMARK    4  A    between atoms: C_7  and  O_6 
REMARK    5  A    between atoms: C_9  and  C_10 
REMARK    6  A    between atoms: N_15  and  C_14 
REMARK    7  A    between atoms: N_20  and  C_19 
REMARK       I    between atoms: C_22  and  N_20 
ROOT
ATOM      1  C   LIG d   1     -16.171  65.944 114.275  0.00  0.00     0.161 C 
ATOM      2  C   LIG d   1     -15.674  66.758 113.243  0.00  0.00     0.016 C 
ATOM      3  C   LIG d   1     -14.960  67.957 113.473  0.00  0.00     0.038 C 
ATOM      4  C   LIG d   1     -14.562  68.347 114.760  0.00  0.00     0.028 C 
ATOM      5  C   LIG d   1     -15.475  67.821 115.863  0.00  0.00    -0.047 C 
ATOM      6  C   LIG d   1     -15.650  66.296 115.684  0.00  0.00     0.091 C 
ENDROOT
BRANCH   1   7
ATOM      7  O   LIG d   1     -15.908  64.560 113.974  0.00  0.00    -0.368 OA
BRANCH   7   8
ATOM      8  C   LIG d   1     -17.041  63.780 113.518  0.00  0.00     0.119 C 
BRANCH   8   9
ATOM      9  C   LIG d   1     -18.266  64.714 113.492  0.00  0.00     0.028 C 
ATOM     10  C   LIG d   1     -19.282  64.381 114.597  0.00  0.00     0.006 C 
ENDBRANCH   8   9
BRANCH   8  11
ATOM     11  C   LIG d   1     -17.395  62.675 114.518  0.00  0.00     0.028 C 
ATOM     12  C   LIG d   1     -17.774  61.352 113.833  0.00  0.00     0.006 C 
ENDBRANCH   8  11
ENDBRANCH   7   8
ENDBRANCH   1   7
BRANCH   6  13
ATOM     13  N   LIG d   1     -16.597  65.715 116.671  0.00  0.00    -0.311 N 
ATOM     14  C   LIG d   1     -16.327  64.630 117.395  0.00  0.00     0.210 C 
ATOM     15  C   LIG d   1     -17.449  64.186 118.339  0.00  0.00     0.109 C 
ATOM     16  O   LIG d   1     -15.252  64.011 117.368  0.00  0.00    -0.276 OA
ATOM     17  H   LIG d   1     -17.481  66.172 116.780  0.00  0.00     0.149 HD
ENDBRANCH   6  13
BRANCH   5  18
ATOM     18  N   LIG d   1     -14.868  68.186 117.156  0.00  0.00     0.381 N 
ATOM     19  H   LIG d   1     -15.369  68.950 117.563  0.00  0.00    -0.090 HD
ATOM     20  H   LIG d   1     -13.920  68.479 116.999  0.00  0.00    -0.090 HD
ATOM     21  H   LIG d   1     -14.883  67.404 117.773  0.00  0.00    -0.090 HD
ENDBRANCH   5  18
BRANCH   3  22
ATOM     22  C   LIG d   1     -14.673  68.800 112.411  0.00  0.00     0.382 C 
ATOM     23  O   LIG d   1     -13.509  68.844 111.943  0.00  0.00    -0.241 OA
ATOM     24  O   LIG d   1     -15.551  69.550 111.943  0.00  0.00    -0.241 OA
ENDBRANCH   3  22
TORSDOF 7
ENDMDL
MODEL 3
REMARK VINA RESULT:      -5.5     27.322     29.053
REMARK  7 active torsions:
REMARK  status: ('A' for Active; 'I' for Inactive)
REMARK    1  A    between atoms: C_2  and  C_3 
REMARK    2  A    between atoms: C_3  and  O_6 
REMARK    3  A    between atoms: C_3  and  C_4 
REMARK    4  A    between atoms: C_7  and  O_6 
REMARK    5  A    between atoms: C_9  and  C_10 
REMARK    6  A    between atoms: N_15  and  C_14 
REMARK    7  A    between atoms: N_20  and  C_19 
REMARK       I    between atoms: C_22  and  N_20 
ROOT
ATOM      1  C   LIG d   1      -5.007  93.046 118.073  0.00  0.00     0.161 C 
ATOM      2  C   LIG d   1      -6.169  93.834 118.037  0.00  0.00     0.016 C 
ATOM      3  C   LIG d   1      -6.325  95.025 118.783  0.00  0.00     0.038 C 
ATOM      4  C   LIG d   1      -5.263  95.593 119.503  0.00  0.00     0.028 C 
ATOM      5  C   LIG d   1      -4.235  94.569 119.973  0.00  0.00    -0.047 C 
ATOM      6  C   LIG d   1      -3.798  93.707 118.767  0.00  0.00     0.091 C 
ENDROOT
BRANCH   1   7
ATOM      7  O   LIG d   1      -4.655  92.634 116.737  0.00  0.00    -0.368 OA
BRANCH   7   8
ATOM      8  C   LIG d   1      -5.028  91.284 116.367  0.00  0.00     0.119 C 
BRANCH   8   9
ATOM      9  C   LIG d   1      -3.728  90.473 116.201  0.00  0.00     0.028 C 
ATOM     10  C   LIG d   1      -3.974  88.956 116.237  0.00  0.00     0.006 C 
ENDBRANCH   8   9
BRANCH   8  11
ATOM     11  C   LIG d   1      -5.706  91.249 114.994  0.00  0.00     0.028 C 
ATOM     12  C   LIG d   1      -7.128  90.668 115.046  0.00  0.00     0.006 C 
ENDBRANCH   8  11
ENDBRANCH   7   8
ENDBRANCH   1   7
BRANCH   6  13
ATOM     13  N   LIG d   1      -2.856  92.625 119.155  0.00  0.00    -0.311 N 
ATOM     14  C   LIG d   1      -1.689  92.417 118.547  0.00  0.00     0.210 C 
ATOM     15  C   LIG d   1      -0.878  91.236 119.091  0.00  0.00     0.109 C 
ATOM     16  O   LIG d   1      -1.233  93.118 117.631  0.00  0.00    -0.276 OA
ATOM     17  H   LIG d   1      -3.132  92.029 119.910  0.00  0.00     0.149 HD
ENDBRANCH   6  13
BRANCH   5  18
ATOM     18  N   LIG d   1      -3.118  95.310 120.588  0.00  0.00     0.381 N 
ATOM     19  H   LIG d   1      -3.351  95.554 121.530  0.00  0.00    -0.090 HD
ATOM     20  H   LIG d   1      -2.966  96.159 120.071  0.00  0.00    -0.090 HD
ATOM     21  H   LIG d   1      -2.292  94.754 120.577  0.00  0.00    -0.090 HD
ENDBRANCH   5  18
BRANCH   3  22
ATOM     22  C   LIG d   1      -7.566  95.641 118.844  0.00  0.00     0.382 C 
ATOM     23  O   LIG d   1      -7.670  96.796 119.323  0.00  0.00    -0.241 OA
ATOM     24  O   LIG d   1      -8.589  95.039 118.467  0.00  0.00    -0.241 OA
ENDBRANCH   3  22
TORSDOF 7
ENDMDL
MODEL 4
REMARK VINA RESULT:      -5.5     26.207     27.766
REMARK  7 active torsions:
REMARK  status: ('A' for Active; 'I' for Inactive)
REMARK    1  A    between atoms: C_2  and  C_3 
REMARK    2  A    between atoms: C_3  and  O_6 
REMARK    3  A    between atoms: C_3  and  C_4 
REMARK    4  A    between atoms: C_7  and  O_6 
REMARK    5  A    between atoms: C_9  and  C_10 
REMARK    6  A    between atoms: N_15  and  C_14 
REMARK    7  A    between atoms: N_20  and  C_19 
REMARK       I    between atoms: C_22  and  N_20 
ROOT
ATOM      1  C   LIG d   1      -4.169  92.468 117.041  0.00  0.00     0.161 C 
ATOM      2  C   LIG d   1      -5.354  91.812 116.668  0.00  0.00     0.016 C 
ATOM      3  C   LIG d   1      -5.410  90.442 116.323  0.00  0.00     0.038 C 
ATOM      4  C   LIG d   1      -4.303  89.594 116.474  0.00  0.00     0.028 C 
ATOM      5  C   LIG d   1      -2.966  90.318 116.363  0.00  0.00    -0.047 C 
ATOM      6  C   LIG d   1      -2.973  91.533 117.318  0.00  0.00     0.091 C 
ENDROOT
BRANCH   1   7
ATOM      7  O   LIG d   1      -4.416  93.316 118.179  0.00  0.00    -0.368 OA
BRANCH   7   8
ATOM      8  C   LIG d   1      -5.794  93.405 118.620  0.00  0.00     0.119 C 
BRANCH   8   9
ATOM      9  C   LIG d   1      -6.243  94.869 118.442  0.00  0.00     0.028 C 
ATOM     10  C   LIG d   1      -7.619  95.141 119.071  0.00  0.00     0.006 C 
ENDBRANCH   8   9
BRANCH   8  11
ATOM     11  C   LIG d   1      -5.919  93.122 120.120  0.00  0.00     0.028 C 
ATOM     12  C   LIG d   1      -4.936  92.045 120.607  0.00  0.00     0.006 C 
ENDBRANCH   8  11
ENDBRANCH   7   8
ENDBRANCH   1   7
BRANCH   6  13
ATOM     13  N   LIG d   1      -1.733  92.346 117.210  0.00  0.00    -0.311 N 
ATOM     14  C   LIG d   1      -0.670  92.168 117.992  0.00  0.00     0.210 C 
ATOM     15  C   LIG d   1       0.496  93.127 117.727  0.00  0.00     0.109 C 
ATOM     16  O   LIG d   1      -0.569  91.287 118.859  0.00  0.00    -0.276 OA
ATOM     17  H   LIG d   1      -1.717  93.063 116.512  0.00  0.00     0.149 HD
ENDBRANCH   6  13
BRANCH   5  18
ATOM     18  N   LIG d   1      -1.904  89.343 116.676  0.00  0.00     0.381 N 
ATOM     19  H   LIG d   1      -1.295  89.241 115.889  0.00  0.00    -0.090 HD
ATOM     20  H   LIG d   1      -2.327  88.451 116.865  0.00  0.00    -0.090 HD
ATOM     21  H   LIG d   1      -1.385  89.647 117.470  0.00  0.00    -0.090 HD
ENDBRANCH   5  18
BRANCH   3  22
ATOM     22  C   LIG d   1      -6.574  89.917 115.783  0.00  0.00     0.382 C 
ATOM     23  O   LIG d   1      -6.717  88.673 115.690  0.00  0.00    -0.241 OA
ATOM     24  O   LIG d   1      -7.464  90.670 115.346  0.00  0.00    -0.241 OA
ENDBRANCH   3  22
TORSDOF 7
ENDMDL
MODEL 5
REMARK VINA RESULT:      -5.5     25.290     26.921
REMARK  7 active torsions:
REMARK  status: ('A' for Active; 'I' for Inactive)
REMARK    1  A    between atoms: C_2  and  C_3 
REMARK    2  A    between atoms: C_3  and  O_6 
REMARK    3  A    between atoms: C_3  and  C_4 
REMARK    4  A    between atoms: C_7  and  O_6 
REMARK    5  A    between atoms: C_9  and  C_10 
REMARK    6  A    between atoms: N_15  and  C_14 
REMARK    7  A    between atoms: N_20  and  C_19 
REMARK       I    between atoms: C_22  and  N_20 
ROOT
ATOM      1  C   LIG d   1      -3.577  90.326 117.111  0.00  0.00     0.161 C 
ATOM      2  C   LIG d   1      -3.356  89.244 116.244  0.00  0.00     0.016 C 
ATOM      3  C   LIG d   1      -4.323  88.771 115.327  0.00  0.00     0.038 C 
ATOM      4  C   LIG d   1      -5.531  89.449 115.108  0.00  0.00     0.028 C 
ATOM      5  C   LIG d   1      -6.005  90.248 116.317  0.00  0.00    -0.047 C 
ATOM      6  C   LIG d   1      -4.848  91.148 116.809  0.00  0.00     0.091 C 
ENDROOT
BRANCH   1   7
ATOM      7  O   LIG d   1      -2.419  91.184 117.128  0.00  0.00    -0.368 OA
BRANCH   7   8
ATOM      8  C   LIG d   1      -1.454  90.931 118.179  0.00  0.00     0.119 C 
BRANCH   8   9
ATOM      9  C   LIG d   1      -1.719  91.949 119.305  0.00  0.00     0.028 C 
ATOM     10  C   LIG d   1      -1.994  93.363 118.766  0.00  0.00     0.006 C 
ENDBRANCH   8   9
BRANCH   8  11
ATOM     11  C   LIG d   1      -0.026  91.214 117.704  0.00  0.00     0.028 C 
ATOM     12  C   LIG d   1       0.401  90.318 116.531  0.00  0.00     0.006 C 
ENDBRANCH   8  11
ENDBRANCH   7   8
ENDBRANCH   1   7
BRANCH   6  13
ATOM     13  N   LIG d   1      -5.200  91.901 118.040  0.00  0.00    -0.311 N 
ATOM     14  C   LIG d   1      -5.840  93.069 118.028  0.00  0.00     0.210 C 
ATOM     15  C   LIG d   1      -6.087  93.686 119.408  0.00  0.00     0.109 C 
ATOM     16  O   LIG d   1      -6.255  93.637 117.006  0.00  0.00    -0.276 OA
ATOM     17  H   LIG d   1      -4.929  91.497 118.916  0.00  0.00     0.149 HD
ENDBRANCH   6  13
BRANCH   5  18
ATOM     18  N   LIG d   1      -7.198  91.012 115.907  0.00  0.00     0.381 N 
ATOM     19  H   LIG d   1      -7.862  91.030 116.655  0.00  0.00    -0.090 HD
ATOM     20  H   LIG d   1      -7.622  90.554 115.120  0.00  0.00    -0.090 HD
ATOM     21  H   LIG d   1      -6.939  91.942 115.660  0.00  0.00    -0.090 HD
ENDBRANCH   5  18
BRANCH   3  22
ATOM     22  C   LIG d   1      -4.101  87.584 114.646  0.00  0.00     0.382 C 
ATOM     23  O   LIG d   1      -3.880  86.526 115.284  0.00  0.00    -0.241 OA
ATOM     24  O   LIG d   1      -4.074  87.565 113.400  0.00  0.00    -0.241 OA
ENDBRANCH   3  22
TORSDOF 7
ENDMDL
MODEL 6
REMARK VINA RESULT:      -5.4     26.910     28.682
REMARK  7 active torsions:
REMARK  status: ('A' for Active; 'I' for Inactive)
REMARK    1  A    between atoms: C_2  and  C_3 
REMARK    2  A    between atoms: C_3  and  O_6 
REMARK    3  A    between atoms: C_3  and  C_4 
REMARK    4  A    between atoms: C_7  and  O_6 
REMARK    5  A    between atoms: C_9  and  C_10 
REMARK    6  A    between atoms: N_15  and  C_14 
REMARK    7  A    between atoms: N_20  and  C_19 
REMARK       I    between atoms: C_22  and  N_20 
ROOT
ATOM      1  C   LIG d   1      -4.930  92.573 117.410  0.00  0.00     0.161 C 
ATOM      2  C   LIG d   1      -6.107  93.234 117.801  0.00  0.00     0.016 C 
ATOM      3  C   LIG d   1      -6.145  94.221 118.813  0.00  0.00     0.038 C 
ATOM      4  C   LIG d   1      -4.976  94.725 119.401  0.00  0.00     0.028 C 
ATOM      5  C   LIG d   1      -3.819  93.732 119.397  0.00  0.00    -0.047 C 
ATOM      6  C   LIG d   1      -3.628  93.189 117.962  0.00  0.00     0.091 C 
ENDROOT
BRANCH   1   7
ATOM      7  O   LIG d   1      -4.873  92.487 115.972  0.00  0.00    -0.368 OA
BRANCH   7   8
ATOM      8  C   LIG d   1      -5.112  91.177 115.402  0.00  0.00     0.119 C 
BRANCH   8   9
ATOM      9  C   LIG d   1      -6.568  91.149 114.898  0.00  0.00     0.028 C 
ATOM     10  C   LIG d   1      -7.366  89.968 115.475  0.00  0.00     0.006 C 
ENDBRANCH   8   9
BRANCH   8  11
ATOM     11  C   LIG d   1      -5.031  90.082 116.469  0.00  0.00     0.028 C 
ATOM     12  C   LIG d   1      -3.815  89.160 116.287  0.00  0.00     0.006 C 
ENDBRANCH   8  11
ENDBRANCH   7   8
ENDBRANCH   1   7
BRANCH   6  13
ATOM     13  N   LIG d   1      -2.570  92.148 117.886  0.00  0.00    -0.311 N 
ATOM     14  C   LIG d   1      -1.299  92.415 117.592  0.00  0.00     0.210 C 
ATOM     15  C   LIG d   1      -0.376  91.193 117.546  0.00  0.00     0.109 C 
ATOM     16  O   LIG d   1      -0.842  93.551 117.396  0.00  0.00    -0.276 OA
ATOM     17  H   LIG d   1      -2.848  91.202 118.062  0.00  0.00     0.149 HD
ENDBRANCH   6  13
BRANCH   5  18
ATOM     18  N   LIG d   1      -2.628  94.433 119.913  0.00  0.00     0.381 N 
ATOM     19  H   LIG d   1      -1.962  94.558 119.176  0.00  0.00    -0.090 HD
ATOM     20  H   LIG d   1      -2.204  93.870 120.629  0.00  0.00    -0.090 HD
ATOM     21  H   LIG d   1      -2.889  95.319 120.287  0.00  0.00    -0.090 HD
ENDBRANCH   5  18
BRANCH   3  22
ATOM     22  C   LIG d   1      -7.367  94.685 119.274  0.00  0.00     0.382 C 
ATOM     23  O   LIG d   1      -8.309  94.879 118.468  0.00  0.00    -0.241 OA
ATOM     24  O   LIG d   1      -7.527  94.955 120.479  0.00  0.00    -0.241 OA
ENDBRANCH   3  22
TORSDOF 7
ENDMDL
MODEL 7
REMARK VINA RESULT:      -5.3     15.642     17.522
REMARK  7 active torsions:
REMARK  status: ('A' for Active; 'I' for Inactive)
REMARK    1  A    between atoms: C_2  and  C_3 
REMARK    2  A    between atoms: C_3  and  O_6 
REMARK    3  A    between atoms: C_3  and  C_4 
REMARK    4  A    between atoms: C_7  and  O_6 
REMARK    5  A    between atoms: C_9  and  C_10 
REMARK    6  A    between atoms: N_15  and  C_14 
REMARK    7  A    between atoms: N_20  and  C_19 
REMARK       I    between atoms: C_22  and  N_20 
ROOT
ATOM      1  C   LIG d   1      -2.068  76.998 115.016  0.00  0.00     0.161 C 
ATOM      2  C   LIG d   1      -3.270  76.690 114.357  0.00  0.00     0.016 C 
ATOM      3  C   LIG d   1      -4.124  75.634 114.750  0.00  0.00     0.038 C 
ATOM      4  C   LIG d   1      -3.907  74.904 115.928  0.00  0.00     0.028 C 
ATOM      5  C   LIG d   1      -2.441  74.847 116.344  0.00  0.00    -0.047 C 
ATOM      6  C   LIG d   1      -1.870  76.283 116.369  0.00  0.00     0.091 C 
ENDROOT
BRANCH   1   7
ATOM      7  O   LIG d   1      -1.952  78.425 115.181  0.00  0.00    -0.368 OA
BRANCH   7   8
ATOM      8  C   LIG d   1      -1.483  79.164 114.027  0.00  0.00     0.119 C 
BRANCH   8   9
ATOM      9  C   LIG d   1      -0.502  80.240 114.533  0.00  0.00     0.028 C 
ATOM     10  C   LIG d   1      -0.163  80.070 116.023  0.00  0.00     0.006 C 
ENDBRANCH   8   9
BRANCH   8  11
ATOM     11  C   LIG d   1      -2.624  79.938 113.359  0.00  0.00     0.028 C 
ATOM     12  C   LIG d   1      -2.270  81.410 113.095  0.00  0.00     0.006 C 
ENDBRANCH   8  11
ENDBRANCH   7   8
ENDBRANCH   1   7
BRANCH   6  13
ATOM     13  N   LIG d   1      -0.418  76.311 116.685  0.00  0.00    -0.311 N 
ATOM     14  C   LIG d   1       0.061  76.484 117.915  0.00  0.00     0.210 C 
ATOM     15  C   LIG d   1       1.589  76.500 118.018  0.00  0.00     0.109 C 
ATOM     16  O   LIG d   1      -0.634  76.593 118.936  0.00  0.00    -0.276 OA
ATOM     17  H   LIG d   1       0.217  76.199 115.919  0.00  0.00     0.149 HD
ENDBRANCH   6  13
BRANCH   5  18
ATOM     18  N   LIG d   1      -2.376  74.176 117.656  0.00  0.00     0.381 N 
ATOM     19  H   LIG d   1      -2.989  73.385 117.663  0.00  0.00    -0.090 HD
ATOM     20  H   LIG d   1      -2.681  74.818 118.365  0.00  0.00    -0.090 HD
ATOM     21  H   LIG d   1      -1.442  73.882 117.843  0.00  0.00    -0.090 HD
ENDBRANCH   5  18
BRANCH   3  22
ATOM     22  C   LIG d   1      -5.188  75.273 113.937  0.00  0.00     0.382 C 
ATOM     23  O   LIG d   1      -5.325  75.805 112.809  0.00  0.00    -0.241 OA
ATOM     24  O   LIG d   1      -6.038  74.454 114.336  0.00  0.00    -0.241 OA
ENDBRANCH   3  22
TORSDOF 7
ENDMDL
MODEL 8
REMARK VINA RESULT:      -5.2     25.314     26.789
REMARK  7 active torsions:
REMARK  status: ('A' for Active; 'I' for Inactive)
REMARK    1  A    between atoms: C_2  and  C_3 
REMARK    2  A    between atoms: C_3  and  O_6 
REMARK    3  A    between atoms: C_3  and  C_4 
REMARK    4  A    between atoms: C_7  and  O_6 
REMARK    5  A    between atoms: C_9  and  C_10 
REMARK    6  A    between atoms: N_15  and  C_14 
REMARK    7  A    between atoms: N_20  and  C_19 
REMARK       I    between atoms: C_22  and  N_20 
ROOT
ATOM      1  C   LIG d   1      -2.898  90.718 117.144  0.00  0.00     0.161 C 
ATOM      2  C   LIG d   1      -3.935  91.626 116.873  0.00  0.00     0.016 C 
ATOM      3  C   LIG d   1      -5.022  91.334 116.017  0.00  0.00     0.038 C 
ATOM      4  C   LIG d   1      -5.226  90.050 115.490  0.00  0.00     0.028 C 
ATOM      5  C   LIG d   1      -3.938  89.250 115.329  0.00  0.00    -0.047 C 
ATOM      6  C   LIG d   1      -3.162  89.274 116.665  0.00  0.00     0.091 C 
ENDROOT
BRANCH   1   7
ATOM      7  O   LIG d   1      -2.593  90.731 118.552  0.00  0.00    -0.368 OA
BRANCH   7   8
ATOM      8  C   LIG d   1      -2.804  91.989 119.239  0.00  0.00     0.119 C 
BRANCH   8   9
ATOM      9  C   LIG d   1      -1.418  92.570 119.577  0.00  0.00     0.028 C 
ATOM     10  C   LIG d   1      -1.506  93.801 120.495  0.00  0.00     0.006 C 
ENDBRANCH   8   9
BRANCH   8  11
ATOM     11  C   LIG d   1      -3.496  91.778 120.589  0.00  0.00     0.028 C 
ATOM     12  C   LIG d   1      -4.990  92.138 120.555  0.00  0.00     0.006 C 
ENDBRANCH   8  11
ENDBRANCH   7   8
ENDBRANCH   1   7
BRANCH   6  13
ATOM     13  N   LIG d   1      -1.848  88.585 116.571  0.00  0.00    -0.311 N 
ATOM     14  C   LIG d   1      -1.667  87.306 116.894  0.00  0.00     0.210 C 
ATOM     15  C   LIG d   1      -0.229  86.799 116.743  0.00  0.00     0.109 C 
ATOM     16  O   LIG d   1      -2.566  86.535 117.262  0.00  0.00    -0.276 OA
ATOM     17  H   LIG d   1      -1.070  89.128 116.251  0.00  0.00     0.149 HD
ENDBRANCH   6  13
BRANCH   5  18
ATOM     18  N   LIG d   1      -4.310  87.888 114.901  0.00  0.00     0.381 N 
ATOM     19  H   LIG d   1      -5.238  87.891 114.528  0.00  0.00    -0.090 HD
ATOM     20  H   LIG d   1      -4.294  87.280 115.702  0.00  0.00    -0.090 HD
ATOM     21  H   LIG d   1      -3.669  87.559 114.213  0.00  0.00    -0.090 HD
ENDBRANCH   5  18
BRANCH   3  22
ATOM     22  C   LIG d   1      -5.898  92.344 115.650  0.00  0.00     0.382 C 
ATOM     23  O   LIG d   1      -6.072  92.612 114.436  0.00  0.00    -0.241 OA
ATOM     24  O   LIG d   1      -6.484  93.019 116.517  0.00  0.00    -0.241 OA
ENDBRANCH   3  22
TORSDOF 7
ENDMDL
MODEL 9
REMARK VINA RESULT:      -5.2     25.041     26.649
REMARK  7 active torsions:
REMARK  status: ('A' for Active; 'I' for Inactive)
REMARK    1  A    between atoms: C_2  and  C_3 
REMARK    2  A    between atoms: C_3  and  O_6 
REMARK    3  A    between atoms: C_3  and  C_4 
REMARK    4  A    between atoms: C_7  and  O_6 
REMARK    5  A    between atoms: C_9  and  C_10 
REMARK    6  A    between atoms: N_15  and  C_14 
REMARK    7  A    between atoms: N_20  and  C_19 
REMARK       I    between atoms: C_22  and  N_20 
ROOT
ATOM      1  C   LIG d   1      -3.044  89.934 117.132  0.00  0.00     0.161 C 
ATOM      2  C   LIG d   1      -2.498  88.675 116.828  0.00  0.00     0.016 C 
ATOM      3  C   LIG d   1      -3.158  87.713 116.031  0.00  0.00     0.038 C 
ATOM      4  C   LIG d   1      -4.351  88.003 115.353  0.00  0.00     0.028 C 
ATOM      5  C   LIG d   1      -5.188  89.080 116.035  0.00  0.00    -0.047 C 
ATOM      6  C   LIG d   1      -4.294  90.311 116.310  0.00  0.00     0.091 C 
ENDROOT
BRANCH   1   7
ATOM      7  O   LIG d   1      -2.031  90.951 116.998  0.00  0.00    -0.368 OA
BRANCH   7   8
ATOM      8  C   LIG d   1      -1.666  91.650 118.213  0.00  0.00     0.119 C 
BRANCH   8   9
ATOM      9  C   LIG d   1      -2.479  91.030 119.366  0.00  0.00     0.028 C 
ATOM     10  C   LIG d   1      -3.272  92.083 120.158  0.00  0.00     0.006 C 
ENDBRANCH   8   9
BRANCH   8  11
ATOM     11  C   LIG d   1      -2.095  93.120 118.160  0.00  0.00     0.028 C 
ATOM     12  C   LIG d   1      -0.937  94.065 117.800  0.00  0.00     0.006 C 
ENDBRANCH   8  11
ENDBRANCH   7   8
ENDBRANCH   1   7
BRANCH   6  13
ATOM     13  N   LIG d   1      -5.014  91.380 117.052  0.00  0.00    -0.311 N 
ATOM     14  C   LIG d   1      -5.591  92.422 116.458  0.00  0.00     0.210 C 
ATOM     15  C   LIG d   1      -6.262  93.418 117.409  0.00  0.00     0.109 C 
ATOM     16  O   LIG d   1      -5.640  92.600 115.232  0.00  0.00    -0.276 OA
ATOM     17  H   LIG d   1      -5.050  91.298 118.049  0.00  0.00     0.149 HD
ENDBRANCH   6  13
BRANCH   5  18
ATOM     18  N   LIG d   1      -6.331  89.382 115.153  0.00  0.00     0.381 N 
ATOM     19  H   LIG d   1      -6.101  90.144 114.548  0.00  0.00    -0.090 HD
ATOM     20  H   LIG d   1      -7.116  89.654 115.719  0.00  0.00    -0.090 HD
ATOM     21  H   LIG d   1      -6.566  88.578 114.613  0.00  0.00    -0.090 HD
ENDBRANCH   5  18
BRANCH   3  22
ATOM     22  C   LIG d   1      -2.643  86.428 115.937  0.00  0.00     0.382 C 
ATOM     23  O   LIG d   1      -2.414  85.767 116.978  0.00  0.00    -0.241 OA
ATOM     24  O   LIG d   1      -2.364  85.939 114.826  0.00  0.00    -0.241 OA
ENDBRANCH   3  22
TORSDOF 7
ENDMDL
