MODEL 1
REMARK VINA RESULT:      -5.9      0.000      0.000
REMARK  7 active torsions:
REMARK  status: ('A' for Active; 'I' for Inactive)
REMARK    1  A    between atoms: C_2  and  C_3 
REMARK    2  A    between atoms: C_3  and  O_6 
REMARK    3  A    between atoms: C_3  and  C_4 
REMARK    4  A    between atoms: C_7  and  O_6 
REMARK    5  A    between atoms: C_9  and  C_10 
REMARK    6  A    between atoms: N_15  and  C_14 
REMARK    7  A    between atoms: N_20  and  C_19 
REMARK       I    between atoms: C_22  and  N_20 
ROOT
ATOM      1  C   LIG d   1     -14.517  66.922 115.605  0.00  0.00     0.161 C 
ATOM      2  C   LIG d   1     -14.337  67.939 114.653  0.00  0.00     0.016 C 
ATOM      3  C   LIG d   1     -14.681  67.798 113.289  0.00  0.00     0.038 C 
ATOM      4  C   LIG d   1     -15.373  66.675 112.811  0.00  0.00     0.028 C 
ATOM      5  C   LIG d   1     -15.123  65.415 113.633  0.00  0.00    -0.047 C 
ATOM      6  C   LIG d   1     -15.373  65.731 115.126  0.00  0.00     0.091 C 
ENDROOT
BRANCH   1   7
ATOM      7  O   LIG d   1     -15.066  67.479 116.816  0.00  0.00    -0.368 OA
BRANCH   7   8
ATOM      8  C   LIG d   1     -14.344  67.185 118.037  0.00  0.00     0.119 C 
BRANCH   8   9
ATOM      9  C   LIG d   1     -15.256  67.571 119.218  0.00  0.00     0.028 C 
ATOM     10  C   LIG d   1     -16.460  68.421 118.777  0.00  0.00     0.006 C 
ENDBRANCH   8   9
BRANCH   8  11
ATOM     11  C   LIG d   1     -13.103  68.071 118.177  0.00  0.00     0.028 C 
ATOM     12  C   LIG d   1     -12.774  68.409 119.640  0.00  0.00     0.006 C 
ENDBRANCH   8  11
ENDBRANCH   7   8
ENDBRANCH   1   7
BRANCH   6  13
ATOM     13  N   LIG d   1     -15.069  64.575 116.009  0.00  0.00    -0.311 N 
ATOM     14  C   LIG d   1     -15.981  63.979 116.775  0.00  0.00     0.210 C 
ATOM     15  C   LIG d   1     -15.453  62.818 117.624  0.00  0.00     0.109 C 
ATOM     16  O   LIG d   1     -17.184  64.280 116.808  0.00  0.00    -0.276 OA
ATOM     17  H   LIG d   1     -14.124  64.245 116.020  0.00  0.00     0.149 HD
ENDBRANCH   6  13
BRANCH   5  18
ATOM     18  N   LIG d   1     -16.010  64.358 113.110  0.00  0.00     0.381 N 
ATOM     19  H   LIG d   1     -15.533  63.479 113.121  0.00  0.00    -0.090 HD
ATOM     20  H   LIG d   1     -16.248  64.576 112.159  0.00  0.00    -0.090 HD
ATOM     21  H   LIG d   1     -16.837  64.303 113.663  0.00  0.00    -0.090 HD
ENDBRANCH   5  18
BRANCH   3  22
ATOM     22  C   LIG d   1     -14.296  68.770 112.378  0.00  0.00     0.382 C 
ATOM     23  O   LIG d   1     -15.143  69.580 111.930  0.00  0.00    -0.241 OA
ATOM     24  O   LIG d   1     -13.121  68.820 111.966  0.00  0.00    -0.241 OA
ENDBRANCH   3  22
TORSDOF 7
ENDMDL
MODEL 2
REMARK VINA RESULT:      -5.8     11.097     13.272
REMARK  7 active torsions:
REMARK  status: ('A' for Active; 'I' for Inactive)
REMARK    1  A    between atoms: C_2  and  C_3 
REMARK    2  A    between atoms: C_3  and  O_6 
REMARK    3  A    between atoms: C_3  and  C_4 
REMARK    4  A    between atoms: C_7  and  O_6 
REMARK    5  A    between atoms: C_9  and  C_10 
REMARK    6  A    between atoms: N_15  and  C_14 
REMARK    7  A    between atoms: N_20  and  C_19 
REMARK       I    between atoms: C_22  and  N_20 
ROOT
ATOM      1  C   LIG d   1      -6.701  75.403 116.827  0.00  0.00     0.161 C 
ATOM      2  C   LIG d   1      -7.589  74.324 116.686  0.00  0.00     0.016 C 
ATOM      3  C   LIG d   1      -7.167  72.992 116.465  0.00  0.00     0.038 C 
ATOM      4  C   LIG d   1      -5.814  72.625 116.521  0.00  0.00     0.028 C 
ATOM      5  C   LIG d   1      -4.863  73.759 116.159  0.00  0.00    -0.047 C 
ATOM      6  C   LIG d   1      -5.221  75.004 117.003  0.00  0.00     0.091 C 
ENDROOT
BRANCH   1   7
ATOM      7  O   LIG d   1      -7.125  76.245 117.917  0.00  0.00    -0.368 OA
BRANCH   7   8
ATOM      8  C   LIG d   1      -7.585  77.571 117.557  0.00  0.00     0.119 C 
BRANCH   8   9
ATOM      9  C   LIG d   1      -6.724  78.587 118.332  0.00  0.00     0.028 C 
ATOM     10  C   LIG d   1      -5.836  79.433 117.404  0.00  0.00     0.006 C 
ENDBRANCH   8   9
BRANCH   8  11
ATOM     11  C   LIG d   1      -9.021  77.811 118.032  0.00  0.00     0.028 C 
ATOM     12  C   LIG d   1      -9.401  79.300 118.052  0.00  0.00     0.006 C 
ENDBRANCH   8  11
ENDBRANCH   7   8
ENDBRANCH   1   7
BRANCH   6  13
ATOM     13  N   LIG d   1      -4.392  76.186 116.650  0.00  0.00    -0.311 N 
ATOM     14  C   LIG d   1      -3.267  76.508 117.286  0.00  0.00     0.210 C 
ATOM     15  C   LIG d   1      -2.577  77.777 116.776  0.00  0.00     0.109 C 
ATOM     16  O   LIG d   1      -2.758  75.846 118.203  0.00  0.00    -0.276 OA
ATOM     17  H   LIG d   1      -4.715  76.761 115.897  0.00  0.00     0.149 HD
ENDBRANCH   6  13
BRANCH   5  18
ATOM     18  N   LIG d   1      -3.487  73.279 116.392  0.00  0.00     0.381 N 
ATOM     19  H   LIG d   1      -2.998  73.925 116.979  0.00  0.00    -0.090 HD
ATOM     20  H   LIG d   1      -3.007  73.228 115.511  0.00  0.00    -0.090 HD
ATOM     21  H   LIG d   1      -3.508  72.380 116.820  0.00  0.00    -0.090 HD
ENDBRANCH   5  18
BRANCH   3  22
ATOM     22  C   LIG d   1      -8.101  72.019 116.145  0.00  0.00     0.382 C 
ATOM     23  O   LIG d   1      -9.314  72.204 116.408  0.00  0.00    -0.241 OA
ATOM     24  O   LIG d   1      -7.741  70.941 115.636  0.00  0.00    -0.241 OA
ENDBRANCH   3  22
TORSDOF 7
ENDMDL
MODEL 3
REMARK VINA RESULT:      -5.8     13.371     15.592
REMARK  7 active torsions:
REMARK  status: ('A' for Active; 'I' for Inactive)
REMARK    1  A    between atoms: C_2  and  C_3 
REMARK    2  A    between atoms: C_3  and  O_6 
REMARK    3  A    between atoms: C_3  and  C_4 
REMARK    4  A    between atoms: C_7  and  O_6 
REMARK    5  A    between atoms: C_9  and  C_10 
REMARK    6  A    between atoms: N_15  and  C_14 
REMARK    7  A    between atoms: N_20  and  C_19 
REMARK       I    between atoms: C_22  and  N_20 
ROOT
ATOM      1  C   LIG d   1      -2.535  73.721 116.306  0.00  0.00     0.161 C 
ATOM      2  C   LIG d   1      -2.968  74.549 117.355  0.00  0.00     0.016 C 
ATOM      3  C   LIG d   1      -2.136  75.500 117.990  0.00  0.00     0.038 C 
ATOM      4  C   LIG d   1      -0.850  75.794 117.514  0.00  0.00     0.028 C 
ATOM      5  C   LIG d   1      -0.194  74.630 116.779  0.00  0.00    -0.047 C 
ATOM      6  C   LIG d   1      -1.169  74.105 115.700  0.00  0.00     0.091 C 
ENDROOT
BRANCH   1   7
ATOM      7  O   LIG d   1      -3.543  73.669 115.277  0.00  0.00    -0.368 OA
BRANCH   7   8
ATOM      8  C   LIG d   1      -4.790  74.346 115.570  0.00  0.00     0.119 C 
BRANCH   8   9
ATOM      9  C   LIG d   1      -5.936  73.380 115.214  0.00  0.00     0.028 C 
ATOM     10  C   LIG d   1      -6.466  72.619 116.441  0.00  0.00     0.006 C 
ENDBRANCH   8   9
BRANCH   8  11
ATOM     11  C   LIG d   1      -4.989  75.564 114.664  0.00  0.00     0.028 C 
ATOM     12  C   LIG d   1      -6.468  75.836 114.347  0.00  0.00     0.006 C 
ENDBRANCH   8  11
ENDBRANCH   7   8
ENDBRANCH   1   7
BRANCH   6  13
ATOM     13  N   LIG d   1      -0.640  72.911 114.991  0.00  0.00    -0.311 N 
ATOM     14  C   LIG d   1      -0.180  72.945 113.741  0.00  0.00     0.210 C 
ATOM     15  C   LIG d   1       0.300  71.598 113.192  0.00  0.00     0.109 C 
ATOM     16  O   LIG d   1      -0.095  73.969 113.046  0.00  0.00    -0.276 OA
ATOM     17  H   LIG d   1      -0.643  72.044 115.491  0.00  0.00     0.149 HD
ENDBRANCH   6  13
BRANCH   5  18
ATOM     18  N   LIG d   1       1.080  75.117 116.219  0.00  0.00     0.381 N 
ATOM     19  H   LIG d   1       1.622  74.344 115.887  0.00  0.00    -0.090 HD
ATOM     20  H   LIG d   1       1.600  75.576 116.946  0.00  0.00    -0.090 HD
ATOM     21  H   LIG d   1       0.904  75.753 115.474  0.00  0.00    -0.090 HD
ENDBRANCH   5  18
BRANCH   3  22
ATOM     22  C   LIG d   1      -2.576  76.140 119.138  0.00  0.00     0.382 C 
ATOM     23  O   LIG d   1      -1.747  76.665 119.920  0.00  0.00    -0.241 OA
ATOM     24  O   LIG d   1      -3.788  76.159 119.426  0.00  0.00    -0.241 OA
ENDBRANCH   3  22
TORSDOF 7
ENDMDL
MODEL 4
REMARK VINA RESULT:      -5.7     10.976     13.125
REMARK  7 active torsions:
REMARK  status: ('A' for Active; 'I' for Inactive)
REMARK    1  A    between atoms: C_2  and  C_3 
REMARK    2  A    between atoms: C_3  and  O_6 
REMARK    3  A    between atoms: C_3  and  C_4 
REMARK    4  A    between atoms: C_7  and  O_6 
REMARK    5  A    between atoms: C_9  and  C_10 
REMARK    6  A    between atoms: N_15  and  C_14 
REMARK    7  A    between atoms: N_20  and  C_19 
REMARK       I    between atoms: C_22  and  N_20 
ROOT
ATOM      1  C   LIG d   1      -6.307  75.493 115.719  0.00  0.00     0.161 C 
ATOM      2  C   LIG d   1      -7.224  74.435 115.837  0.00  0.00     0.016 C 
ATOM      3  C   LIG d   1      -6.845  73.106 116.136  0.00  0.00     0.038 C 
ATOM      4  C   LIG d   1      -5.529  72.772 116.488  0.00  0.00     0.028 C 
ATOM      5  C   LIG d   1      -4.485  73.709 115.890  0.00  0.00    -0.047 C 
ATOM      6  C   LIG d   1      -4.880  75.169 116.210  0.00  0.00     0.091 C 
ENDROOT
BRANCH   1   7
ATOM      7  O   LIG d   1      -6.817  76.659 116.395  0.00  0.00    -0.368 OA
BRANCH   7   8
ATOM      8  C   LIG d   1      -7.585  76.414 117.599  0.00  0.00     0.119 C 
BRANCH   8   9
ATOM      9  C   LIG d   1      -8.854  77.284 117.524  0.00  0.00     0.028 C 
ATOM     10  C   LIG d   1      -9.138  78.023 118.842  0.00  0.00     0.006 C 
ENDBRANCH   8   9
BRANCH   8  11
ATOM     11  C   LIG d   1      -6.836  76.895 118.846  0.00  0.00     0.028 C 
ATOM     12  C   LIG d   1      -6.030  75.777 119.525  0.00  0.00     0.006 C 
ENDBRANCH   8  11
ENDBRANCH   7   8
ENDBRANCH   1   7
BRANCH   6  13
ATOM     13  N   LIG d   1      -3.957  76.155 115.589  0.00  0.00    -0.311 N 
ATOM     14  C   LIG d   1      -3.401  77.162 116.260  0.00  0.00     0.210 C 
ATOM     15  C   LIG d   1      -2.496  78.074 115.426  0.00  0.00     0.109 C 
ATOM     16  O   LIG d   1      -3.546  77.368 117.475  0.00  0.00    -0.276 OA
ATOM     17  H   LIG d   1      -3.760  76.044 114.614  0.00  0.00     0.149 HD
ENDBRANCH   6  13
BRANCH   5  18
ATOM     18  N   LIG d   1      -3.174  73.330 116.449  0.00  0.00     0.381 N 
ATOM     19  H   LIG d   1      -3.105  73.646 117.395  0.00  0.00    -0.090 HD
ATOM     20  H   LIG d   1      -2.451  73.777 115.913  0.00  0.00    -0.090 HD
ATOM     21  H   LIG d   1      -3.061  72.341 116.412  0.00  0.00    -0.090 HD
ENDBRANCH   5  18
BRANCH   3  22
ATOM     22  C   LIG d   1      -7.782  72.088 116.044  0.00  0.00     0.382 C 
ATOM     23  O   LIG d   1      -8.950  72.271 116.464  0.00  0.00    -0.241 OA
ATOM     24  O   LIG d   1      -7.461  70.974 115.588  0.00  0.00    -0.241 OA
ENDBRANCH   3  22
TORSDOF 7
ENDMDL
MODEL 5
REMARK VINA RESULT:      -5.6     11.551     13.906
REMARK  7 active torsions:
REMARK  status: ('A' for Active; 'I' for Inactive)
REMARK    1  A    between atoms: C_2  and  C_3 
REMARK    2  A    between atoms: C_3  and  O_6 
REMARK    3  A    between atoms: C_3  and  C_4 
REMARK    4  A    between atoms: C_7  and  O_6 
REMARK    5  A    between atoms: C_9  and  C_10 
REMARK    6  A    between atoms: N_15  and  C_14 
REMARK    7  A    between atoms: N_20  and  C_19 
REMARK       I    between atoms: C_22  and  N_20 
ROOT
ATOM      1  C   LIG d   1      -4.831  74.266 116.579  0.00  0.00     0.161 C 
ATOM      2  C   LIG d   1      -5.518  73.072 116.303  0.00  0.00     0.016 C 
ATOM      3  C   LIG d   1      -6.927  72.962 116.326  0.00  0.00     0.038 C 
ATOM      4  C   LIG d   1      -7.756  74.083 116.480  0.00  0.00     0.028 C 
ATOM      5  C   LIG d   1      -7.102  75.217 117.263  0.00  0.00    -0.047 C 
ATOM      6  C   LIG d   1      -5.721  75.525 116.640  0.00  0.00     0.091 C 
ENDROOT
BRANCH   1   7
ATOM      7  O   LIG d   1      -3.768  74.450 115.623  0.00  0.00    -0.368 OA
BRANCH   7   8
ATOM      8  C   LIG d   1      -2.441  74.639 116.174  0.00  0.00     0.119 C 
BRANCH   8   9
ATOM      9  C   LIG d   1      -1.697  75.630 115.259  0.00  0.00     0.028 C 
ATOM     10  C   LIG d   1      -0.642  76.452 116.019  0.00  0.00     0.006 C 
ENDBRANCH   8   9
BRANCH   8  11
ATOM     11  C   LIG d   1      -1.625  73.344 116.119  0.00  0.00     0.028 C 
ATOM     12  C   LIG d   1      -0.980  72.988 117.467  0.00  0.00     0.006 C 
ENDBRANCH   8  11
ENDBRANCH   7   8
ENDBRANCH   1   7
BRANCH   6  13
ATOM     13  N   LIG d   1      -4.977  76.565 117.397  0.00  0.00    -0.311 N 
ATOM     14  C   LIG d   1      -4.387  77.610 116.819  0.00  0.00     0.210 C 
ATOM     15  C   LIG d   1      -3.656  78.553 117.781  0.00  0.00     0.109 C 
ATOM     16  O   LIG d   1      -4.426  77.863 115.606  0.00  0.00    -0.276 OA
ATOM     17  H   LIG d   1      -4.922  76.455 118.390  0.00  0.00     0.149 HD
ENDBRANCH   6  13
BRANCH   5  18
ATOM     18  N   LIG d   1      -8.021  76.370 117.230  0.00  0.00     0.381 N 
ATOM     19  H   LIG d   1      -8.527  76.425 118.091  0.00  0.00    -0.090 HD
ATOM     20  H   LIG d   1      -8.682  76.237 116.484  0.00  0.00    -0.090 HD
ATOM     21  H   LIG d   1      -7.508  77.211 117.083  0.00  0.00    -0.090 HD
ENDBRANCH   5  18
BRANCH   3  22
ATOM     22  C   LIG d   1      -7.521  71.712 116.234  0.00  0.00     0.382 C 
ATOM     23  O   LIG d   1      -6.822  70.676 116.347  0.00  0.00    -0.241 OA
ATOM     24  O   LIG d   1      -8.738  71.607 115.994  0.00  0.00    -0.241 OA
ENDBRANCH   3  22
TORSDOF 7
ENDMDL
MODEL 6
REMARK VINA RESULT:      -5.5     25.811     27.869
REMARK  7 active torsions:
REMARK  status: ('A' for Active; 'I' for Inactive)
REMARK    1  A    between atoms: C_2  and  C_3 
REMARK    2  A    between atoms: C_3  and  O_6 
REMARK    3  A    between atoms: C_3  and  C_4 
REMARK    4  A    between atoms: C_7  and  O_6 
REMARK    5  A    between atoms: C_9  and  C_10 
REMARK    6  A    between atoms: N_15  and  C_14 
REMARK    7  A    between atoms: N_20  and  C_19 
REMARK       I    between atoms: C_22  and  N_20 
ROOT
ATOM      1  C   LIG d   1      -3.494  91.281 117.440  0.00  0.00     0.161 C 
ATOM      2  C   LIG d   1      -4.051  90.493 116.419  0.00  0.00     0.016 C 
ATOM      3  C   LIG d   1      -5.293  90.778 115.806  0.00  0.00     0.038 C 
ATOM      4  C   LIG d   1      -5.994  91.964 116.068  0.00  0.00     0.028 C 
ATOM      5  C   LIG d   1      -5.720  92.536 117.455  0.00  0.00    -0.047 C 
ATOM      6  C   LIG d   1      -4.191  92.640 117.662  0.00  0.00     0.091 C 
ENDROOT
BRANCH   1   7
ATOM      7  O   LIG d   1      -2.087  91.475 117.195  0.00  0.00    -0.368 OA
BRANCH   7   8
ATOM      8  C   LIG d   1      -1.183  90.778 118.087  0.00  0.00     0.119 C 
BRANCH   8   9
ATOM      9  C   LIG d   1      -0.095  91.780 118.519  0.00  0.00     0.028 C 
ATOM     10  C   LIG d   1       0.310  92.733 117.382  0.00  0.00     0.006 C 
ENDBRANCH   8   9
BRANCH   8  11
ATOM     11  C   LIG d   1      -0.435  89.657 117.359  0.00  0.00     0.028 C 
ATOM     12  C   LIG d   1      -1.183  88.315 117.402  0.00  0.00     0.006 C 
ENDBRANCH   8  11
ENDBRANCH   7   8
ENDBRANCH   1   7
BRANCH   6  13
ATOM     13  N   LIG d   1      -3.834  93.111 119.025  0.00  0.00    -0.311 N 
ATOM     14  C   LIG d   1      -2.979  94.106 119.256  0.00  0.00     0.210 C 
ATOM     15  C   LIG d   1      -2.737  94.420 120.736  0.00  0.00     0.109 C 
ATOM     16  O   LIG d   1      -2.423  94.780 118.376  0.00  0.00    -0.276 OA
ATOM     17  H   LIG d   1      -4.264  92.641 119.797  0.00  0.00     0.149 HD
ENDBRANCH   6  13
BRANCH   5  18
ATOM     18  N   LIG d   1      -6.405  93.839 117.543  0.00  0.00     0.381 N 
ATOM     19  H   LIG d   1      -7.116  93.896 116.842  0.00  0.00    -0.090 HD
ATOM     20  H   LIG d   1      -5.736  94.570 117.374  0.00  0.00    -0.090 HD
ATOM     21  H   LIG d   1      -6.809  93.952 118.447  0.00  0.00    -0.090 HD
ENDBRANCH   5  18
BRANCH   3  22
ATOM     22  C   LIG d   1      -5.864  89.851 114.947  0.00  0.00     0.382 C 
ATOM     23  O   LIG d   1      -7.110  89.814 114.804  0.00  0.00    -0.241 OA
ATOM     24  O   LIG d   1      -5.153  89.023 114.348  0.00  0.00    -0.241 OA
ENDBRANCH   3  22
TORSDOF 7
ENDMDL
MODEL 7
REMARK VINA RESULT:      -5.5     12.386     14.610
REMARK  7 active torsions:
REMARK  status: ('A' for Active; 'I' for Inactive)
REMARK    1  A    between atoms: C_2  and  C_3 
REMARK    2  A    between atoms: C_3  and  O_6 
REMARK    3  A    between atoms: C_3  and  C_4 
REMARK    4  A    between atoms: C_7  and  O_6 
REMARK    5  A    between atoms: C_9  and  C_10 
REMARK    6  A    between atoms: N_15  and  C_14 
REMARK    7  A    between atoms: N_20  and  C_19 
REMARK       I    between atoms: C_22  and  N_20 
ROOT
ATOM      1  C   LIG d   1      -4.387  74.957 116.354  0.00  0.00     0.161 C 
ATOM      2  C   LIG d   1      -3.425  73.966 116.099  0.00  0.00     0.016 C 
ATOM      3  C   LIG d   1      -2.038  74.159 116.294  0.00  0.00     0.038 C 
ATOM      4  C   LIG d   1      -1.529  75.314 116.906  0.00  0.00     0.028 C 
ATOM      5  C   LIG d   1      -2.415  76.541 116.715  0.00  0.00    -0.047 C 
ATOM      6  C   LIG d   1      -3.861  76.185 117.127  0.00  0.00     0.091 C 
ENDROOT
BRANCH   1   7
ATOM      7  O   LIG d   1      -5.515  74.378 117.040  0.00  0.00    -0.368 OA
BRANCH   7   8
ATOM      8  C   LIG d   1      -6.559  73.830 116.200  0.00  0.00     0.119 C 
BRANCH   8   9
ATOM      9  C   LIG d   1      -7.904  74.377 116.716  0.00  0.00     0.028 C 
ATOM     10  C   LIG d   1      -7.986  75.910 116.630  0.00  0.00     0.006 C 
ENDBRANCH   8   9
BRANCH   8  11
ATOM     11  C   LIG d   1      -6.655  72.309 116.351  0.00  0.00     0.028 C 
ATOM     12  C   LIG d   1      -8.071  71.772 116.090  0.00  0.00     0.006 C 
ENDBRANCH   8  11
ENDBRANCH   7   8
ENDBRANCH   1   7
BRANCH   6  13
ATOM     13  N   LIG d   1      -4.810  77.305 116.891  0.00  0.00    -0.311 N 
ATOM     14  C   LIG d   1      -5.144  78.192 117.827  0.00  0.00     0.210 C 
ATOM     15  C   LIG d   1      -6.154  79.254 117.380  0.00  0.00     0.109 C 
ATOM     16  O   LIG d   1      -4.676  78.219 118.975  0.00  0.00    -0.276 OA
ATOM     17  H   LIG d   1      -5.213  77.376 115.977  0.00  0.00     0.149 HD
ENDBRANCH   6  13
BRANCH   5  18
ATOM     18  N   LIG d   1      -1.838  77.636 117.517  0.00  0.00     0.381 N 
ATOM     19  H   LIG d   1      -0.842  77.546 117.548  0.00  0.00    -0.090 HD
ATOM     20  H   LIG d   1      -2.190  77.572 118.456  0.00  0.00    -0.090 HD
ATOM     21  H   LIG d   1      -2.087  78.516 117.122  0.00  0.00    -0.090 HD
ENDBRANCH   5  18
BRANCH   3  22
ATOM     22  C   LIG d   1      -1.140  73.206 115.839  0.00  0.00     0.382 C 
ATOM     23  O   LIG d   1      -1.074  72.942 114.614  0.00  0.00    -0.241 OA
ATOM     24  O   LIG d   1      -0.428  72.574 116.642  0.00  0.00    -0.241 OA
ENDBRANCH   3  22
TORSDOF 7
ENDMDL
MODEL 8
REMARK VINA RESULT:      -5.2     13.244     15.193
REMARK  7 active torsions:
REMARK  status: ('A' for Active; 'I' for Inactive)
REMARK    1  A    between atoms: C_2  and  C_3 
REMARK    2  A    between atoms: C_3  and  O_6 
REMARK    3  A    between atoms: C_3  and  C_4 
REMARK    4  A    between atoms: C_7  and  O_6 
REMARK    5  A    between atoms: C_9  and  C_10 
REMARK    6  A    between atoms: N_15  and  C_14 
REMARK    7  A    between atoms: N_20  and  C_19 
REMARK       I    between atoms: C_22  and  N_20 
ROOT
ATOM      1  C   LIG d   1      -3.533  76.084 116.521  0.00  0.00     0.161 C 
ATOM      2  C   LIG d   1      -3.726  76.512 115.197  0.00  0.00     0.016 C 
ATOM      3  C   LIG d   1      -2.668  76.710 114.281  0.00  0.00     0.038 C 
ATOM      4  C   LIG d   1      -1.347  76.346 114.584  0.00  0.00     0.028 C 
ATOM      5  C   LIG d   1      -1.035  76.385 116.076  0.00  0.00    -0.047 C 
ATOM      6  C   LIG d   1      -2.111  75.576 116.835  0.00  0.00     0.091 C 
ENDROOT
BRANCH   1   7
ATOM      7  O   LIG d   1      -4.510  75.080 116.858  0.00  0.00    -0.368 OA
BRANCH   7   8
ATOM      8  C   LIG d   1      -5.814  75.229 116.244  0.00  0.00     0.119 C 
BRANCH   8   9
ATOM      9  C   LIG d   1      -6.813  75.588 117.362  0.00  0.00     0.028 C 
ATOM     10  C   LIG d   1      -8.208  75.933 116.813  0.00  0.00     0.006 C 
ENDBRANCH   8   9
BRANCH   8  11
ATOM     11  C   LIG d   1      -6.313  73.901 115.666  0.00  0.00     0.028 C 
ATOM     12  C   LIG d   1      -6.074  72.712 116.610  0.00  0.00     0.006 C 
ENDBRANCH   8  11
ENDBRANCH   7   8
ENDBRANCH   1   7
BRANCH   6  13
ATOM     13  N   LIG d   1      -1.928  75.633 118.309  0.00  0.00    -0.311 N 
ATOM     14  C   LIG d   1      -1.246  74.720 118.999  0.00  0.00     0.210 C 
ATOM     15  C   LIG d   1      -1.196  74.958 120.512  0.00  0.00     0.109 C 
ATOM     16  O   LIG d   1      -0.650  73.754 118.499  0.00  0.00    -0.276 OA
ATOM     17  H   LIG d   1      -2.351  76.401 118.792  0.00  0.00     0.149 HD
ENDBRANCH   6  13
BRANCH   5  18
ATOM     18  N   LIG d   1       0.328  75.852 116.260  0.00  0.00     0.381 N 
ATOM     19  H   LIG d   1       0.695  76.157 117.139  0.00  0.00    -0.090 HD
ATOM     20  H   LIG d   1       0.918  76.209 115.530  0.00  0.00    -0.090 HD
ATOM     21  H   LIG d   1       0.312  74.856 116.227  0.00  0.00    -0.090 HD
ENDBRANCH   5  18
BRANCH   3  22
ATOM     22  C   LIG d   1      -2.920  77.316 113.059  0.00  0.00     0.382 C 
ATOM     23  O   LIG d   1      -2.165  78.227 112.643  0.00  0.00    -0.241 OA
ATOM     24  O   LIG d   1      -3.919  76.993 112.389  0.00  0.00    -0.241 OA
ENDBRANCH   3  22
TORSDOF 7
ENDMDL
MODEL 9
REMARK VINA RESULT:      -5.2     25.491     27.773
REMARK  7 active torsions:
REMARK  status: ('A' for Active; 'I' for Inactive)
REMARK    1  A    between atoms: C_2  and  C_3 
REMARK    2  A    between atoms: C_3  and  O_6 
REMARK    3  A    between atoms: C_3  and  C_4 
REMARK    4  A    between atoms: C_7  and  O_6 
REMARK    5  A    between atoms: C_9  and  C_10 
REMARK    6  A    between atoms: N_15  and  C_14 
REMARK    7  A    between atoms: N_20  and  C_19 
REMARK       I    between atoms: C_22  and  N_20 
ROOT
ATOM      1  C   LIG d   1       1.671  87.626 115.226  0.00  0.00     0.161 C 
ATOM      2  C   LIG d   1       0.443  87.607 115.908  0.00  0.00     0.016 C 
ATOM      3  C   LIG d   1       0.009  88.651 116.757  0.00  0.00     0.038 C 
ATOM      4  C   LIG d   1       0.712  89.861 116.864  0.00  0.00     0.028 C 
ATOM      5  C   LIG d   1       2.205  89.720 116.589  0.00  0.00    -0.047 C 
ATOM      6  C   LIG d   1       2.400  88.986 115.243  0.00  0.00     0.091 C 
ENDROOT
BRANCH   1   7
ATOM      7  O   LIG d   1       1.484  87.174 113.870  0.00  0.00    -0.368 OA
BRANCH   7   8
ATOM      8  C   LIG d   1       1.729  85.767 113.627  0.00  0.00     0.119 C 
BRANCH   8   9
ATOM      9  C   LIG d   1       3.199  85.624 113.185  0.00  0.00     0.028 C 
ATOM     10  C   LIG d   1       3.518  86.454 111.930  0.00  0.00     0.006 C 
ENDBRANCH   8   9
BRANCH   8  11
ATOM     11  C   LIG d   1       0.899  85.252 112.448  0.00  0.00     0.028 C 
ATOM     12  C   LIG d   1      -0.415  86.027 112.261  0.00  0.00     0.006 C 
ENDBRANCH   8  11
ENDBRANCH   7   8
ENDBRANCH   1   7
BRANCH   6  13
ATOM     13  N   LIG d   1       3.832  88.732 114.938  0.00  0.00    -0.311 N 
ATOM     14  C   LIG d   1       4.485  89.324 113.938  0.00  0.00     0.210 C 
ATOM     15  C   LIG d   1       5.951  88.905 113.786  0.00  0.00     0.109 C 
ATOM     16  O   LIG d   1       3.998  90.179 113.184  0.00  0.00    -0.276 OA
ATOM     17  H   LIG d   1       4.313  88.075 115.520  0.00  0.00     0.149 HD
ENDBRANCH   6  13
BRANCH   5  18
ATOM     18  N   LIG d   1       2.789  91.075 116.598  0.00  0.00     0.381 N 
ATOM     19  H   LIG d   1       2.852  91.423 115.662  0.00  0.00    -0.090 HD
ATOM     20  H   LIG d   1       3.717  91.026 116.979  0.00  0.00    -0.090 HD
ATOM     21  H   LIG d   1       2.227  91.685 117.150  0.00  0.00    -0.090 HD
ENDBRANCH   5  18
BRANCH   3  22
ATOM     22  C   LIG d   1      -1.120  88.473 117.542  0.00  0.00     0.382 C 
ATOM     23  O   LIG d   1      -2.242  88.320 117.001  0.00  0.00    -0.241 OA
ATOM     24  O   LIG d   1      -1.038  88.509 118.785  0.00  0.00    -0.241 OA
ENDBRANCH   3  22
TORSDOF 7
ENDMDL
