MODEL 1
REMARK VINA RESULT:      -5.6      0.000      0.000
REMARK  7 active torsions:
REMARK  status: ('A' for Active; 'I' for Inactive)
REMARK    1  A    between atoms: C_2  and  C_3 
REMARK    2  A    between atoms: C_3  and  O_6 
REMARK    3  A    between atoms: C_3  and  C_4 
REMARK    4  A    between atoms: C_7  and  O_6 
REMARK    5  A    between atoms: C_9  and  C_10 
REMARK    6  A    between atoms: N_15  and  C_14 
REMARK    7  A    between atoms: N_20  and  C_19 
REMARK       I    between atoms: C_22  and  N_20 
ROOT
ATOM      1  C   LIG d   1      -2.940  77.427 116.087  0.00  0.00     0.161 C 
ATOM      2  C   LIG d   1      -3.166  78.339 115.043  0.00  0.00     0.016 C 
ATOM      3  C   LIG d   1      -2.234  78.585 114.009  0.00  0.00     0.038 C 
ATOM      4  C   LIG d   1      -1.067  77.820 113.865  0.00  0.00     0.028 C 
ATOM      5  C   LIG d   1      -0.559  77.238 115.180  0.00  0.00    -0.047 C 
ATOM      6  C   LIG d   1      -1.721  76.503 115.886  0.00  0.00     0.091 C 
ENDROOT
BRANCH   1   7
ATOM      7  O   LIG d   1      -4.129  76.646 116.320  0.00  0.00    -0.368 OA
BRANCH   7   8
ATOM      8  C   LIG d   1      -4.956  76.384 115.160  0.00  0.00     0.119 C 
BRANCH   8   9
ATOM      9  C   LIG d   1      -6.426  76.414 115.623  0.00  0.00     0.028 C 
ATOM     10  C   LIG d   1      -6.621  77.247 116.901  0.00  0.00     0.006 C 
ENDBRANCH   8   9
BRANCH   8  11
ATOM     11  C   LIG d   1      -4.729  74.968 114.621  0.00  0.00     0.028 C 
ATOM     12  C   LIG d   1      -5.764  73.959 115.144  0.00  0.00     0.006 C 
ENDBRANCH   8  11
ENDBRANCH   7   8
ENDBRANCH   1   7
BRANCH   6  13
ATOM     13  N   LIG d   1      -1.332  75.975 117.220  0.00  0.00    -0.311 N 
ATOM     14  C   LIG d   1      -1.655  74.756 117.649  0.00  0.00     0.210 C 
ATOM     15  C   LIG d   1      -1.171  74.420 119.063  0.00  0.00     0.109 C 
ATOM     16  O   LIG d   1      -2.268  73.911 116.980  0.00  0.00    -0.276 OA
ATOM     17  H   LIG d   1      -0.805  76.584 117.815  0.00  0.00     0.149 HD
ENDBRANCH   6  13
BRANCH   5  18
ATOM     18  N   LIG d   1       0.579  76.353 114.866  0.00  0.00     0.381 N 
ATOM     19  H   LIG d   1       0.305  75.680 114.178  0.00  0.00    -0.090 HD
ATOM     20  H   LIG d   1       0.847  75.860 115.699  0.00  0.00    -0.090 HD
ATOM     21  H   LIG d   1       1.346  76.891 114.528  0.00  0.00    -0.090 HD
ENDBRANCH   5  18
BRANCH   3  22
ATOM     22  C   LIG d   1      -2.446  79.634 113.127  0.00  0.00     0.382 C 
ATOM     23  O   LIG d   1      -1.999  79.570 111.957  0.00  0.00    -0.241 OA
ATOM     24  O   LIG d   1      -3.039  80.664 113.501  0.00  0.00    -0.241 OA
ENDBRANCH   3  22
TORSDOF 7
ENDMDL
MODEL 2
REMARK VINA RESULT:      -5.4     13.174     15.525
REMARK  7 active torsions:
REMARK  status: ('A' for Active; 'I' for Inactive)
REMARK    1  A    between atoms: C_2  and  C_3 
REMARK    2  A    between atoms: C_3  and  O_6 
REMARK    3  A    between atoms: C_3  and  C_4 
REMARK    4  A    between atoms: C_7  and  O_6 
REMARK    5  A    between atoms: C_9  and  C_10 
REMARK    6  A    between atoms: N_15  and  C_14 
REMARK    7  A    between atoms: N_20  and  C_19 
REMARK       I    between atoms: C_22  and  N_20 
ROOT
ATOM      1  C   LIG d   1      -4.487  90.950 117.570  0.00  0.00     0.161 C 
ATOM      2  C   LIG d   1      -5.330  90.288 116.662  0.00  0.00     0.016 C 
ATOM      3  C   LIG d   1      -6.562  90.818 116.214  0.00  0.00     0.038 C 
ATOM      4  C   LIG d   1      -6.966  92.124 116.531  0.00  0.00     0.028 C 
ATOM      5  C   LIG d   1      -6.390  92.633 117.848  0.00  0.00    -0.047 C 
ATOM      6  C   LIG d   1      -4.858  92.423 117.841  0.00  0.00     0.091 C 
ENDROOT
BRANCH   1   7
ATOM      7  O   LIG d   1      -3.119  90.851 117.129  0.00  0.00    -0.368 OA
BRANCH   7   8
ATOM      8  C   LIG d   1      -2.213  90.147 118.014  0.00  0.00     0.119 C 
BRANCH   8   9
ATOM      9  C   LIG d   1      -0.779  90.413 117.516  0.00  0.00     0.028 C 
ATOM     10  C   LIG d   1      -0.021  91.406 118.414  0.00  0.00     0.006 C 
ENDBRANCH   8   9
BRANCH   8  11
ATOM     11  C   LIG d   1      -2.402  88.630 117.913  0.00  0.00     0.028 C 
ATOM     12  C   LIG d   1      -1.109  87.892 117.531  0.00  0.00     0.006 C 
ENDBRANCH   8  11
ENDBRANCH   7   8
ENDBRANCH   1   7
BRANCH   6  13
ATOM     13  N   LIG d   1      -4.226  92.818 119.126  0.00  0.00    -0.311 N 
ATOM     14  C   LIG d   1      -3.094  93.516 119.203  0.00  0.00     0.210 C 
ATOM     15  C   LIG d   1      -2.604  93.799 120.626  0.00  0.00     0.109 C 
ATOM     16  O   LIG d   1      -2.466  93.954 118.227  0.00  0.00    -0.276 OA
ATOM     17  H   LIG d   1      -4.685  92.530 119.968  0.00  0.00     0.149 HD
ENDBRANCH   6  13
BRANCH   5  18
ATOM     18  N   LIG d   1      -6.779  94.049 117.987  0.00  0.00     0.381 N 
ATOM     19  H   LIG d   1      -7.583  94.124 118.577  0.00  0.00    -0.090 HD
ATOM     20  H   LIG d   1      -7.019  94.410 117.080  0.00  0.00    -0.090 HD
ATOM     21  H   LIG d   1      -6.025  94.574 118.372  0.00  0.00    -0.090 HD
ENDBRANCH   5  18
BRANCH   3  22
ATOM     22  C   LIG d   1      -7.423  90.024 115.473  0.00  0.00     0.382 C 
ATOM     23  O   LIG d   1      -8.282  89.319 116.054  0.00  0.00    -0.241 OA
ATOM     24  O   LIG d   1      -7.322  89.970 114.232  0.00  0.00    -0.241 OA
ENDBRANCH   3  22
TORSDOF 7
ENDMDL
MODEL 3
REMARK VINA RESULT:      -5.3      1.530      4.934
REMARK  7 active torsions:
REMARK  status: ('A' for Active; 'I' for Inactive)
REMARK    1  A    between atoms: C_2  and  C_3 
REMARK    2  A    between atoms: C_3  and  O_6 
REMARK    3  A    between atoms: C_3  and  C_4 
REMARK    4  A    between atoms: C_7  and  O_6 
REMARK    5  A    between atoms: C_9  and  C_10 
REMARK    6  A    between atoms: N_15  and  C_14 
REMARK    7  A    between atoms: N_20  and  C_19 
REMARK       I    between atoms: C_22  and  N_20 
ROOT
ATOM      1  C   LIG d   1      -3.194  76.483 115.504  0.00  0.00     0.161 C 
ATOM      2  C   LIG d   1      -3.135  75.669 116.647  0.00  0.00     0.016 C 
ATOM      3  C   LIG d   1      -1.970  75.512 117.432  0.00  0.00     0.038 C 
ATOM      4  C   LIG d   1      -0.818  76.282 117.211  0.00  0.00     0.028 C 
ATOM      5  C   LIG d   1      -0.665  76.742 115.766  0.00  0.00    -0.047 C 
ATOM      6  C   LIG d   1      -1.980  77.416 115.312  0.00  0.00     0.091 C 
ENDROOT
BRANCH   1   7
ATOM      7  O   LIG d   1      -4.417  77.246 115.508  0.00  0.00    -0.368 OA
BRANCH   7   8
ATOM      8  C   LIG d   1      -5.487  76.729 116.337  0.00  0.00     0.119 C 
BRANCH   8   9
ATOM      9  C   LIG d   1      -6.565  76.156 115.396  0.00  0.00     0.028 C 
ATOM     10  C   LIG d   1      -7.885  75.861 116.127  0.00  0.00     0.006 C 
ENDBRANCH   8   9
BRANCH   8  11
ATOM     11  C   LIG d   1      -6.182  77.851 117.114  0.00  0.00     0.028 C 
ATOM     12  C   LIG d   1      -5.356  79.146 117.156  0.00  0.00     0.006 C 
ENDBRANCH   8  11
ENDBRANCH   7   8
ENDBRANCH   1   7
BRANCH   6  13
ATOM     13  N   LIG d   1      -1.945  77.821 113.882  0.00  0.00    -0.311 N 
ATOM     14  C   LIG d   1      -2.372  79.004 113.444  0.00  0.00     0.210 C 
ATOM     15  C   LIG d   1      -2.266  79.210 111.930  0.00  0.00     0.109 C 
ATOM     16  O   LIG d   1      -2.799  79.915 114.170  0.00  0.00    -0.276 OA
ATOM     17  H   LIG d   1      -1.585  77.154 113.228  0.00  0.00     0.149 HD
ENDBRANCH   6  13
BRANCH   5  18
ATOM     18  N   LIG d   1       0.499  77.647 115.707  0.00  0.00     0.381 N 
ATOM     19  H   LIG d   1       0.286  78.503 116.178  0.00  0.00    -0.090 HD
ATOM     20  H   LIG d   1       0.698  77.858 114.745  0.00  0.00    -0.090 HD
ATOM     21  H   LIG d   1       1.289  77.213 116.130  0.00  0.00    -0.090 HD
ENDBRANCH   5  18
BRANCH   3  22
ATOM     22  C   LIG d   1      -1.936  74.547 118.427  0.00  0.00     0.382 C 
ATOM     23  O   LIG d   1      -1.881  74.891 119.632  0.00  0.00    -0.241 OA
ATOM     24  O   LIG d   1      -1.916  73.337 118.133  0.00  0.00    -0.241 OA
ENDBRANCH   3  22
TORSDOF 7
ENDMDL
MODEL 4
REMARK VINA RESULT:      -5.3      1.957      2.553
REMARK  7 active torsions:
REMARK  status: ('A' for Active; 'I' for Inactive)
REMARK    1  A    between atoms: C_2  and  C_3 
REMARK    2  A    between atoms: C_3  and  O_6 
REMARK    3  A    between atoms: C_3  and  C_4 
REMARK    4  A    between atoms: C_7  and  O_6 
REMARK    5  A    between atoms: C_9  and  C_10 
REMARK    6  A    between atoms: N_15  and  C_14 
REMARK    7  A    between atoms: N_20  and  C_19 
REMARK       I    between atoms: C_22  and  N_20 
ROOT
ATOM      1  C   LIG d   1      -3.012  78.392 115.345  0.00  0.00     0.161 C 
ATOM      2  C   LIG d   1      -3.112  79.509 114.499  0.00  0.00     0.016 C 
ATOM      3  C   LIG d   1      -2.343  79.665 113.323  0.00  0.00     0.038 C 
ATOM      4  C   LIG d   1      -1.526  78.637 112.829  0.00  0.00     0.028 C 
ATOM      5  C   LIG d   1      -1.011  77.698 113.915  0.00  0.00    -0.047 C 
ATOM      6  C   LIG d   1      -2.207  77.210 114.764  0.00  0.00     0.091 C 
ENDROOT
BRANCH   1   7
ATOM      7  O   LIG d   1      -4.329  77.957 115.737  0.00  0.00    -0.368 OA
BRANCH   7   8
ATOM      8  C   LIG d   1      -4.600  77.949 117.160  0.00  0.00     0.119 C 
BRANCH   8   9
ATOM      9  C   LIG d   1      -5.964  78.634 117.375  0.00  0.00     0.028 C 
ATOM     10  C   LIG d   1      -5.842  80.164 117.480  0.00  0.00     0.006 C 
ENDBRANCH   8   9
BRANCH   8  11
ATOM     11  C   LIG d   1      -3.590  78.809 117.925  0.00  0.00     0.028 C 
ATOM     12  C   LIG d   1      -3.011  78.095 119.157  0.00  0.00     0.006 C 
ENDBRANCH   8  11
ENDBRANCH   7   8
ENDBRANCH   1   7
BRANCH   6  13
ATOM     13  N   LIG d   1      -1.783  76.353 115.901  0.00  0.00    -0.311 N 
ATOM     14  C   LIG d   1      -1.680  75.027 115.822  0.00  0.00     0.210 C 
ATOM     15  C   LIG d   1      -1.245  74.334 117.117  0.00  0.00     0.109 C 
ATOM     16  O   LIG d   1      -1.877  74.363 114.793  0.00  0.00    -0.276 OA
ATOM     17  H   LIG d   1      -1.573  76.813 116.766  0.00  0.00     0.149 HD
ENDBRANCH   6  13
BRANCH   5  18
ATOM     18  N   LIG d   1      -0.290  76.598 113.247  0.00  0.00     0.381 N 
ATOM     19  H   LIG d   1       0.680  76.829 113.167  0.00  0.00    -0.090 HD
ATOM     20  H   LIG d   1      -0.663  76.478 112.322  0.00  0.00    -0.090 HD
ATOM     21  H   LIG d   1      -0.395  75.755 113.768  0.00  0.00    -0.090 HD
ENDBRANCH   5  18
BRANCH   3  22
ATOM     22  C   LIG d   1      -2.357  80.876 112.648  0.00  0.00     0.382 C 
ATOM     23  O   LIG d   1      -1.280  81.394 112.266  0.00  0.00    -0.241 OA
ATOM     24  O   LIG d   1      -3.430  81.479 112.455  0.00  0.00    -0.241 OA
ENDBRANCH   3  22
TORSDOF 7
ENDMDL
MODEL 5
REMARK VINA RESULT:      -5.3     14.645     16.699
REMARK  7 active torsions:
REMARK  status: ('A' for Active; 'I' for Inactive)
REMARK    1  A    between atoms: C_2  and  C_3 
REMARK    2  A    between atoms: C_3  and  O_6 
REMARK    3  A    between atoms: C_3  and  C_4 
REMARK    4  A    between atoms: C_7  and  O_6 
REMARK    5  A    between atoms: C_9  and  C_10 
REMARK    6  A    between atoms: N_15  and  C_14 
REMARK    7  A    between atoms: N_20  and  C_19 
REMARK       I    between atoms: C_22  and  N_20 
ROOT
ATOM      1  C   LIG d   1      -6.303  92.888 117.346  0.00  0.00     0.161 C 
ATOM      2  C   LIG d   1      -7.157  92.122 116.534  0.00  0.00     0.016 C 
ATOM      3  C   LIG d   1      -6.759  90.922 115.901  0.00  0.00     0.038 C 
ATOM      4  C   LIG d   1      -5.517  90.324 116.160  0.00  0.00     0.028 C 
ATOM      5  C   LIG d   1      -4.439  91.320 116.574  0.00  0.00    -0.047 C 
ATOM      6  C   LIG d   1      -4.980  92.193 117.729  0.00  0.00     0.091 C 
ENDROOT
BRANCH   1   7
ATOM      7  O   LIG d   1      -7.007  93.314 118.529  0.00  0.00    -0.368 OA
BRANCH   7   8
ATOM      8  C   LIG d   1      -6.882  94.715 118.875  0.00  0.00     0.119 C 
BRANCH   8   9
ATOM      9  C   LIG d   1      -6.627  94.797 120.393  0.00  0.00     0.028 C 
ATOM     10  C   LIG d   1      -6.461  93.409 121.035  0.00  0.00     0.006 C 
ENDBRANCH   8   9
BRANCH   8  11
ATOM     11  C   LIG d   1      -8.197  95.466 118.644  0.00  0.00     0.028 C 
ATOM     12  C   LIG d   1      -8.601  96.342 119.840  0.00  0.00     0.006 C 
ENDBRANCH   8  11
ENDBRANCH   7   8
ENDBRANCH   1   7
BRANCH   6  13
ATOM     13  N   LIG d   1      -4.019  93.250 118.139  0.00  0.00    -0.311 N 
ATOM     14  C   LIG d   1      -3.177  93.119 119.163  0.00  0.00     0.210 C 
ATOM     15  C   LIG d   1      -2.286  94.336 119.427  0.00  0.00     0.109 C 
ATOM     16  O   LIG d   1      -3.062  92.098 119.857  0.00  0.00    -0.276 OA
ATOM     17  H   LIG d   1      -4.023  94.100 117.610  0.00  0.00     0.149 HD
ENDBRANCH   6  13
BRANCH   5  18
ATOM     18  N   LIG d   1      -3.238  90.548 116.946  0.00  0.00     0.381 N 
ATOM     19  H   LIG d   1      -3.443  89.960 117.730  0.00  0.00    -0.090 HD
ATOM     20  H   LIG d   1      -2.511  91.187 117.213  0.00  0.00    -0.090 HD
ATOM     21  H   LIG d   1      -2.937  89.993 116.175  0.00  0.00    -0.090 HD
ENDBRANCH   5  18
BRANCH   3  22
ATOM     22  C   LIG d   1      -7.593  90.329 114.966  0.00  0.00     0.382 C 
ATOM     23  O   LIG d   1      -8.549  89.611 115.345  0.00  0.00    -0.241 OA
ATOM     24  O   LIG d   1      -7.376  90.468 113.747  0.00  0.00    -0.241 OA
ENDBRANCH   3  22
TORSDOF 7
ENDMDL
MODEL 6
REMARK VINA RESULT:      -5.1     14.389     16.356
REMARK  7 active torsions:
REMARK  status: ('A' for Active; 'I' for Inactive)
REMARK    1  A    between atoms: C_2  and  C_3 
REMARK    2  A    between atoms: C_3  and  O_6 
REMARK    3  A    between atoms: C_3  and  C_4 
REMARK    4  A    between atoms: C_7  and  O_6 
REMARK    5  A    between atoms: C_9  and  C_10 
REMARK    6  A    between atoms: N_15  and  C_14 
REMARK    7  A    between atoms: N_20  and  C_19 
REMARK       I    between atoms: C_22  and  N_20 
ROOT
ATOM      1  C   LIG d   1      -5.870  92.995 118.052  0.00  0.00     0.161 C 
ATOM      2  C   LIG d   1      -6.853  92.230 117.402  0.00  0.00     0.016 C 
ATOM      3  C   LIG d   1      -6.565  91.062 116.660  0.00  0.00     0.038 C 
ATOM      4  C   LIG d   1      -5.284  90.490 116.644  0.00  0.00     0.028 C 
ATOM      5  C   LIG d   1      -4.166  91.503 116.869  0.00  0.00    -0.047 C 
ATOM      6  C   LIG d   1      -4.482  92.325 118.139  0.00  0.00     0.091 C 
ENDROOT
BRANCH   1   7
ATOM      7  O   LIG d   1      -6.330  93.366 119.367  0.00  0.00    -0.368 OA
BRANCH   7   8
ATOM      8  C   LIG d   1      -5.870  92.535 120.461  0.00  0.00     0.119 C 
BRANCH   8   9
ATOM      9  C   LIG d   1      -7.090  91.764 121.000  0.00  0.00     0.028 C 
ATOM     10  C   LIG d   1      -8.272  92.691 121.331  0.00  0.00     0.006 C 
ENDBRANCH   8   9
BRANCH   8  11
ATOM     11  C   LIG d   1      -5.375  93.384 121.636  0.00  0.00     0.028 C 
ATOM     12  C   LIG d   1      -5.167  94.859 121.259  0.00  0.00     0.006 C 
ENDBRANCH   8  11
ENDBRANCH   7   8
ENDBRANCH   1   7
BRANCH   6  13
ATOM     13  N   LIG d   1      -3.481  93.396 118.384  0.00  0.00    -0.311 N 
ATOM     14  C   LIG d   1      -2.440  93.253 119.203  0.00  0.00     0.210 C 
ATOM     15  C   LIG d   1      -1.541  94.487 119.328  0.00  0.00     0.109 C 
ATOM     16  O   LIG d   1      -2.159  92.210 119.813  0.00  0.00    -0.276 OA
ATOM     17  H   LIG d   1      -3.615  94.265 117.905  0.00  0.00     0.149 HD
ENDBRANCH   6  13
BRANCH   5  18
ATOM     18  N   LIG d   1      -2.899  90.753 116.966  0.00  0.00     0.381 N 
ATOM     19  H   LIG d   1      -2.446  90.965 117.832  0.00  0.00    -0.090 HD
ATOM     20  H   LIG d   1      -2.295  91.038 116.215  0.00  0.00    -0.090 HD
ATOM     21  H   LIG d   1      -3.076  89.775 116.906  0.00  0.00    -0.090 HD
ENDBRANCH   5  18
BRANCH   3  22
ATOM     22  C   LIG d   1      -7.558  90.474 115.891  0.00  0.00     0.382 C 
ATOM     23  O   LIG d   1      -8.032  91.088 114.904  0.00  0.00    -0.241 OA
ATOM     24  O   LIG d   1      -8.016  89.357 116.196  0.00  0.00    -0.241 OA
ENDBRANCH   3  22
TORSDOF 7
ENDMDL
MODEL 7
REMARK VINA RESULT:      -4.7     21.736     23.945
REMARK  7 active torsions:
REMARK  status: ('A' for Active; 'I' for Inactive)
REMARK    1  A    between atoms: C_2  and  C_3 
REMARK    2  A    between atoms: C_3  and  O_6 
REMARK    3  A    between atoms: C_3  and  C_4 
REMARK    4  A    between atoms: C_7  and  O_6 
REMARK    5  A    between atoms: C_9  and  C_10 
REMARK    6  A    between atoms: N_15  and  C_14 
REMARK    7  A    between atoms: N_20  and  C_19 
REMARK       I    between atoms: C_22  and  N_20 
ROOT
ATOM      1  C   LIG d   1     -25.330  85.052 114.688  0.00  0.00     0.161 C 
ATOM      2  C   LIG d   1     -24.478  86.150 114.485  0.00  0.00     0.016 C 
ATOM      3  C   LIG d   1     -23.273  86.075 113.750  0.00  0.00     0.038 C 
ATOM      4  C   LIG d   1     -22.911  84.923 113.035  0.00  0.00     0.028 C 
ATOM      5  C   LIG d   1     -23.486  83.639 113.624  0.00  0.00    -0.047 C 
ATOM      6  C   LIG d   1     -25.009  83.816 113.822  0.00  0.00     0.091 C 
ENDROOT
BRANCH   1   7
ATOM      7  O   LIG d   1     -26.701  85.455 114.496  0.00  0.00    -0.368 OA
BRANCH   7   8
ATOM      8  C   LIG d   1     -27.132  85.615 113.122  0.00  0.00     0.119 C 
BRANCH   8   9
ATOM      9  C   LIG d   1     -27.638  87.062 112.962  0.00  0.00     0.028 C 
ATOM     10  C   LIG d   1     -26.738  87.900 112.039  0.00  0.00     0.006 C 
ENDBRANCH   8   9
BRANCH   8  11
ATOM     11  C   LIG d   1     -28.339  84.726 112.809  0.00  0.00     0.028 C 
ATOM     12  C   LIG d   1     -28.966  84.108 114.069  0.00  0.00     0.006 C 
ENDBRANCH   8  11
ENDBRANCH   7   8
ENDBRANCH   1   7
BRANCH   6  13
ATOM     13  N   LIG d   1     -25.636  82.636 114.473  0.00  0.00    -0.311 N 
ATOM     14  C   LIG d   1     -26.172  81.623 113.794  0.00  0.00     0.210 C 
ATOM     15  C   LIG d   1     -26.784  80.517 114.659  0.00  0.00     0.109 C 
ATOM     16  O   LIG d   1     -26.171  81.521 112.558  0.00  0.00    -0.276 OA
ATOM     17  H   LIG d   1     -25.652  82.622 115.474  0.00  0.00     0.149 HD
ENDBRANCH   6  13
BRANCH   5  18
ATOM     18  N   LIG d   1     -23.146  82.537 112.705  0.00  0.00     0.381 N 
ATOM     19  H   LIG d   1     -23.611  81.699 112.994  0.00  0.00    -0.090 HD
ATOM     20  H   LIG d   1     -22.155  82.376 112.742  0.00  0.00    -0.090 HD
ATOM     21  H   LIG d   1     -23.418  82.771 111.775  0.00  0.00    -0.090 HD
ENDBRANCH   5  18
BRANCH   3  22
ATOM     22  C   LIG d   1     -22.395  87.148 113.758  0.00  0.00     0.382 C 
ATOM     23  O   LIG d   1     -22.741  88.238 114.274  0.00  0.00    -0.241 OA
ATOM     24  O   LIG d   1     -21.277  87.054 113.215  0.00  0.00    -0.241 OA
ENDBRANCH   3  22
TORSDOF 7
ENDMDL
MODEL 8
REMARK VINA RESULT:      -4.7     16.090     19.382
REMARK  7 active torsions:
REMARK  status: ('A' for Active; 'I' for Inactive)
REMARK    1  A    between atoms: C_2  and  C_3 
REMARK    2  A    between atoms: C_3  and  O_6 
REMARK    3  A    between atoms: C_3  and  C_4 
REMARK    4  A    between atoms: C_7  and  O_6 
REMARK    5  A    between atoms: C_9  and  C_10 
REMARK    6  A    between atoms: N_15  and  C_14 
REMARK    7  A    between atoms: N_20  and  C_19 
REMARK       I    between atoms: C_22  and  N_20 
ROOT
ATOM      1  C   LIG d   1     -17.866  64.871 117.347  0.00  0.00     0.161 C 
ATOM      2  C   LIG d   1     -18.459  63.630 117.063  0.00  0.00     0.016 C 
ATOM      3  C   LIG d   1     -18.474  63.051 115.773  0.00  0.00     0.038 C 
ATOM      4  C   LIG d   1     -17.760  63.609 114.702  0.00  0.00     0.028 C 
ATOM      5  C   LIG d   1     -17.570  65.118 114.821  0.00  0.00    -0.047 C 
ATOM      6  C   LIG d   1     -16.986  65.442 116.215  0.00  0.00     0.091 C 
ENDROOT
BRANCH   1   7
ATOM      7  O   LIG d   1     -17.111  64.784 118.572  0.00  0.00    -0.368 OA
BRANCH   7   8
ATOM      8  C   LIG d   1     -15.795  64.187 118.469  0.00  0.00     0.119 C 
BRANCH   8   9
ATOM      9  C   LIG d   1     -15.809  62.889 119.300  0.00  0.00     0.028 C 
ATOM     10  C   LIG d   1     -14.522  62.704 120.121  0.00  0.00     0.006 C 
ENDBRANCH   8   9
BRANCH   8  11
ATOM     11  C   LIG d   1     -14.729  65.073 119.119  0.00  0.00     0.028 C 
ATOM     12  C   LIG d   1     -15.312  66.358 119.727  0.00  0.00     0.006 C 
ENDBRANCH   8  11
ENDBRANCH   7   8
ENDBRANCH   1   7
BRANCH   6  13
ATOM     13  N   LIG d   1     -16.848  66.903 116.446  0.00  0.00    -0.311 N 
ATOM     14  C   LIG d   1     -15.707  67.568 116.273  0.00  0.00     0.210 C 
ATOM     15  C   LIG d   1     -15.777  69.066 116.586  0.00  0.00     0.109 C 
ATOM     16  O   LIG d   1     -14.651  67.065 115.859  0.00  0.00    -0.276 OA
ATOM     17  H   LIG d   1     -17.664  67.396 116.753  0.00  0.00     0.149 HD
ENDBRANCH   6  13
BRANCH   5  18
ATOM     18  N   LIG d   1     -16.695  65.545 113.713  0.00  0.00     0.381 N 
ATOM     19  H   LIG d   1     -16.694  64.849 112.995  0.00  0.00    -0.090 HD
ATOM     20  H   LIG d   1     -15.757  65.643 114.060  0.00  0.00    -0.090 HD
ATOM     21  H   LIG d   1     -17.013  66.414 113.344  0.00  0.00    -0.090 HD
ENDBRANCH   5  18
BRANCH   3  22
ATOM     22  C   LIG d   1     -19.243  61.922 115.535  0.00  0.00     0.382 C 
ATOM     23  O   LIG d   1     -19.487  61.121 116.470  0.00  0.00    -0.241 OA
ATOM     24  O   LIG d   1     -19.659  61.671 114.388  0.00  0.00    -0.241 OA
ENDBRANCH   3  22
TORSDOF 7
ENDMDL
MODEL 9
REMARK VINA RESULT:      -4.6     15.359     18.506
REMARK  7 active torsions:
REMARK  status: ('A' for Active; 'I' for Inactive)
REMARK    1  A    between atoms: C_2  and  C_3 
REMARK    2  A    between atoms: C_3  and  O_6 
REMARK    3  A    between atoms: C_3  and  C_4 
REMARK    4  A    between atoms: C_7  and  O_6 
REMARK    5  A    between atoms: C_9  and  C_10 
REMARK    6  A    between atoms: N_15  and  C_14 
REMARK    7  A    between atoms: N_20  and  C_19 
REMARK       I    between atoms: C_22  and  N_20 
ROOT
ATOM      1  C   LIG d   1     -16.121  64.268 117.893  0.00  0.00     0.161 C 
ATOM      2  C   LIG d   1     -16.887  63.517 116.986  0.00  0.00     0.016 C 
ATOM      3  C   LIG d   1     -17.385  64.039 115.770  0.00  0.00     0.038 C 
ATOM      4  C   LIG d   1     -17.021  65.311 115.305  0.00  0.00     0.028 C 
ATOM      5  C   LIG d   1     -16.664  66.286 116.422  0.00  0.00    -0.047 C 
ATOM      6  C   LIG d   1     -15.621  65.623 117.351  0.00  0.00     0.091 C 
ENDROOT
BRANCH   1   7
ATOM      7  O   LIG d   1     -15.012  63.479 118.368  0.00  0.00    -0.368 OA
BRANCH   7   8
ATOM      8  C   LIG d   1     -14.909  63.323 119.805  0.00  0.00     0.119 C 
BRANCH   8   9
ATOM      9  C   LIG d   1     -13.481  63.734 120.214  0.00  0.00     0.028 C 
ATOM     10  C   LIG d   1     -13.472  64.794 121.328  0.00  0.00     0.006 C 
ENDBRANCH   8   9
BRANCH   8  11
ATOM     11  C   LIG d   1     -15.043  61.854 120.217  0.00  0.00     0.028 C 
ATOM     12  C   LIG d   1     -16.433  61.517 120.778  0.00  0.00     0.006 C 
ENDBRANCH   8  11
ENDBRANCH   7   8
ENDBRANCH   1   7
BRANCH   6  13
ATOM     13  N   LIG d   1     -15.278  66.477 118.518  0.00  0.00    -0.311 N 
ATOM     14  C   LIG d   1     -14.314  67.395 118.498  0.00  0.00     0.210 C 
ATOM     15  C   LIG d   1     -14.112  68.151 119.815  0.00  0.00     0.109 C 
ATOM     16  O   LIG d   1     -13.627  67.677 117.504  0.00  0.00    -0.276 OA
ATOM     17  H   LIG d   1     -15.807  66.336 119.357  0.00  0.00     0.149 HD
ENDBRANCH   6  13
BRANCH   5  18
ATOM     18  N   LIG d   1     -16.173  67.525 115.792  0.00  0.00     0.381 N 
ATOM     19  H   LIG d   1     -15.959  67.355 114.829  0.00  0.00    -0.090 HD
ATOM     20  H   LIG d   1     -15.329  67.813 116.255  0.00  0.00    -0.090 HD
ATOM     21  H   LIG d   1     -16.862  68.241 115.865  0.00  0.00    -0.090 HD
ENDBRANCH   5  18
BRANCH   3  22
ATOM     22  C   LIG d   1     -18.290  63.299 115.025  0.00  0.00     0.382 C 
ATOM     23  O   LIG d   1     -19.124  63.882 114.291  0.00  0.00    -0.241 OA
ATOM     24  O   LIG d   1     -18.313  62.056 115.111  0.00  0.00    -0.241 OA
ENDBRANCH   3  22
TORSDOF 7
ENDMDL
