MODEL 1
REMARK VINA RESULT:      -5.7      0.000      0.000
REMARK  7 active torsions:
REMARK  status: ('A' for Active; 'I' for Inactive)
REMARK    1  A    between atoms: C_2  and  C_3 
REMARK    2  A    between atoms: C_3  and  O_6 
REMARK    3  A    between atoms: C_3  and  C_4 
REMARK    4  A    between atoms: C_7  and  O_6 
REMARK    5  A    between atoms: C_9  and  C_10 
REMARK    6  A    between atoms: N_15  and  C_14 
REMARK    7  A    between atoms: N_20  and  C_19 
REMARK       I    between atoms: C_22  and  N_20 
ROOT
ATOM      1  C   LIG d   1      -3.250  75.955 116.519  0.00  0.00     0.161 C 
ATOM      2  C   LIG d   1      -3.536  76.760 115.403  0.00  0.00     0.016 C 
ATOM      3  C   LIG d   1      -2.540  77.305 114.561  0.00  0.00     0.038 C 
ATOM      4  C   LIG d   1      -1.187  76.955 114.690  0.00  0.00     0.028 C 
ATOM      5  C   LIG d   1      -0.799  76.549 116.108  0.00  0.00    -0.047 C 
ATOM      6  C   LIG d   1      -1.787  75.472 116.609  0.00  0.00     0.091 C 
ENDROOT
BRANCH   1   7
ATOM      7  O   LIG d   1      -4.152  74.831 116.554  0.00  0.00    -0.368 OA
BRANCH   7   8
ATOM      8  C   LIG d   1      -5.494  75.075 116.065  0.00  0.00     0.119 C 
BRANCH   8   9
ATOM      9  C   LIG d   1      -6.387  75.363 117.287  0.00  0.00     0.028 C 
ATOM     10  C   LIG d   1      -7.402  76.487 117.020  0.00  0.00     0.006 C 
ENDBRANCH   8   9
BRANCH   8  11
ATOM     11  C   LIG d   1      -6.087  73.820 115.417  0.00  0.00     0.028 C 
ATOM     12  C   LIG d   1      -6.634  72.819 116.446  0.00  0.00     0.006 C 
ENDBRANCH   8  11
ENDBRANCH   7   8
ENDBRANCH   1   7
BRANCH   6  13
ATOM     13  N   LIG d   1      -1.530  75.079 118.019  0.00  0.00    -0.311 N 
ATOM     14  C   LIG d   1      -0.904  73.956 118.365  0.00  0.00     0.210 C 
ATOM     15  C   LIG d   1      -0.760  73.733 119.874  0.00  0.00     0.109 C 
ATOM     16  O   LIG d   1      -0.425  73.138 117.565  0.00  0.00    -0.276 OA
ATOM     17  H   LIG d   1      -1.857  75.701 118.733  0.00  0.00     0.149 HD
ENDBRANCH   6  13
BRANCH   5  18
ATOM     18  N   LIG d   1       0.599  76.079 116.069  0.00  0.00     0.381 N 
ATOM     19  H   LIG d   1       1.156  76.624 116.696  0.00  0.00    -0.090 HD
ATOM     20  H   LIG d   1       0.958  76.203 115.139  0.00  0.00    -0.090 HD
ATOM     21  H   LIG d   1       0.642  75.117 116.325  0.00  0.00    -0.090 HD
ENDBRANCH   5  18
BRANCH   3  22
ATOM     22  C   LIG d   1      -2.889  78.242 113.601  0.00  0.00     0.382 C 
ATOM     23  O   LIG d   1      -2.784  79.467 113.853  0.00  0.00    -0.241 OA
ATOM     24  O   LIG d   1      -3.351  77.880 112.502  0.00  0.00    -0.241 OA
ENDBRANCH   3  22
TORSDOF 7
ENDMDL
MODEL 2
REMARK VINA RESULT:      -5.6      3.614      5.775
REMARK  7 active torsions:
REMARK  status: ('A' for Active; 'I' for Inactive)
REMARK    1  A    between atoms: C_2  and  C_3 
REMARK    2  A    between atoms: C_3  and  O_6 
REMARK    3  A    between atoms: C_3  and  C_4 
REMARK    4  A    between atoms: C_7  and  O_6 
REMARK    5  A    between atoms: C_9  and  C_10 
REMARK    6  A    between atoms: N_15  and  C_14 
REMARK    7  A    between atoms: N_20  and  C_19 
REMARK       I    between atoms: C_22  and  N_20 
ROOT
ATOM      1  C   LIG d   1      -7.079  76.842 117.284  0.00  0.00     0.161 C 
ATOM      2  C   LIG d   1      -8.395  77.266 117.532  0.00  0.00     0.016 C 
ATOM      3  C   LIG d   1      -8.734  78.598 117.866  0.00  0.00     0.038 C 
ATOM      4  C   LIG d   1      -7.790  79.635 117.826  0.00  0.00     0.028 C 
ATOM      5  C   LIG d   1      -6.361  79.164 118.074  0.00  0.00    -0.047 C 
ATOM      6  C   LIG d   1      -6.051  77.982 117.127  0.00  0.00     0.091 C 
ENDROOT
BRANCH   1   7
ATOM      7  O   LIG d   1      -7.053  75.981 116.129  0.00  0.00    -0.368 OA
BRANCH   7   8
ATOM      8  C   LIG d   1      -6.359  74.719 116.290  0.00  0.00     0.119 C 
BRANCH   8   9
ATOM      9  C   LIG d   1      -5.535  74.477 115.010  0.00  0.00     0.028 C 
ATOM     10  C   LIG d   1      -5.601  75.666 114.036  0.00  0.00     0.006 C 
ENDBRANCH   8   9
BRANCH   8  11
ATOM     11  C   LIG d   1      -7.343  73.548 116.366  0.00  0.00     0.028 C 
ATOM     12  C   LIG d   1      -6.712  72.211 115.946  0.00  0.00     0.006 C 
ENDBRANCH   8  11
ENDBRANCH   7   8
ENDBRANCH   1   7
BRANCH   6  13
ATOM     13  N   LIG d   1      -4.701  77.406 117.362  0.00  0.00    -0.311 N 
ATOM     14  C   LIG d   1      -3.678  77.571 116.526  0.00  0.00     0.210 C 
ATOM     15  C   LIG d   1      -2.379  76.877 116.948  0.00  0.00     0.109 C 
ATOM     16  O   LIG d   1      -3.713  78.254 115.491  0.00  0.00    -0.276 OA
ATOM     17  H   LIG d   1      -4.575  76.864 118.194  0.00  0.00     0.149 HD
ENDBRANCH   6  13
BRANCH   5  18
ATOM     18  N   LIG d   1      -5.469  80.320 117.868  0.00  0.00     0.381 N 
ATOM     19  H   LIG d   1      -4.516  80.037 117.982  0.00  0.00    -0.090 HD
ATOM     20  H   LIG d   1      -5.675  81.018 118.560  0.00  0.00    -0.090 HD
ATOM     21  H   LIG d   1      -5.604  80.697 116.955  0.00  0.00    -0.090 HD
ENDBRANCH   5  18
BRANCH   3  22
ATOM     22  C   LIG d   1     -10.022  78.895 118.284  0.00  0.00     0.382 C 
ATOM     23  O   LIG d   1     -10.785  77.975 118.665  0.00  0.00    -0.241 OA
ATOM     24  O   LIG d   1     -10.445  80.066 118.243  0.00  0.00    -0.241 OA
ENDBRANCH   3  22
TORSDOF 7
ENDMDL
MODEL 3
REMARK VINA RESULT:      -5.3      1.722      4.983
REMARK  7 active torsions:
REMARK  status: ('A' for Active; 'I' for Inactive)
REMARK    1  A    between atoms: C_2  and  C_3 
REMARK    2  A    between atoms: C_3  and  O_6 
REMARK    3  A    between atoms: C_3  and  C_4 
REMARK    4  A    between atoms: C_7  and  O_6 
REMARK    5  A    between atoms: C_9  and  C_10 
REMARK    6  A    between atoms: N_15  and  C_14 
REMARK    7  A    between atoms: N_20  and  C_19 
REMARK       I    between atoms: C_22  and  N_20 
ROOT
ATOM      1  C   LIG d   1      -1.745  75.345 115.200  0.00  0.00     0.161 C 
ATOM      2  C   LIG d   1      -1.529  74.422 116.236  0.00  0.00     0.016 C 
ATOM      3  C   LIG d   1      -0.676  74.672 117.336  0.00  0.00     0.038 C 
ATOM      4  C   LIG d   1      -0.095  75.930 117.552  0.00  0.00     0.028 C 
ATOM      5  C   LIG d   1       0.118  76.728 116.270  0.00  0.00    -0.047 C 
ATOM      6  C   LIG d   1      -1.208  76.764 115.476  0.00  0.00     0.091 C 
ENDROOT
BRANCH   1   7
ATOM      7  O   LIG d   1      -3.149  75.395 114.875  0.00  0.00    -0.368 OA
BRANCH   7   8
ATOM      8  C   LIG d   1      -4.065  75.119 115.964  0.00  0.00     0.119 C 
BRANCH   8   9
ATOM      9  C   LIG d   1      -5.360  74.557 115.347  0.00  0.00     0.028 C 
ATOM     10  C   LIG d   1      -6.024  73.496 116.242  0.00  0.00     0.006 C 
ENDBRANCH   8   9
BRANCH   8  11
ATOM     11  C   LIG d   1      -4.482  76.407 116.680  0.00  0.00     0.028 C 
ATOM     12  C   LIG d   1      -3.999  76.461 118.138  0.00  0.00     0.006 C 
ENDBRANCH   8  11
ENDBRANCH   7   8
ENDBRANCH   1   7
BRANCH   6  13
ATOM     13  N   LIG d   1      -1.065  77.453 114.166  0.00  0.00    -0.311 N 
ATOM     14  C   LIG d   1      -1.937  78.352 113.712  0.00  0.00     0.210 C 
ATOM     15  C   LIG d   1      -1.612  78.926 112.330  0.00  0.00     0.109 C 
ATOM     16  O   LIG d   1      -2.932  78.751 114.336  0.00  0.00    -0.276 OA
ATOM     17  H   LIG d   1      -0.270  77.212 113.608  0.00  0.00     0.149 HD
ENDBRANCH   6  13
BRANCH   5  18
ATOM     18  N   LIG d   1       0.600  78.068 116.653  0.00  0.00     0.381 N 
ATOM     19  H   LIG d   1       1.534  78.201 116.319  0.00  0.00    -0.090 HD
ATOM     20  H   LIG d   1       0.611  78.135 117.655  0.00  0.00    -0.090 HD
ATOM     21  H   LIG d   1       0.001  78.767 116.273  0.00  0.00    -0.090 HD
ENDBRANCH   5  18
BRANCH   3  22
ATOM     22  C   LIG d   1      -0.365  73.644 118.213  0.00  0.00     0.382 C 
ATOM     23  O   LIG d   1      -1.140  72.664 118.330  0.00  0.00    -0.241 OA
ATOM     24  O   LIG d   1       0.659  73.704 118.920  0.00  0.00    -0.241 OA
ENDBRANCH   3  22
TORSDOF 7
ENDMDL
MODEL 4
REMARK VINA RESULT:      -5.3     16.338     18.292
REMARK  7 active torsions:
REMARK  status: ('A' for Active; 'I' for Inactive)
REMARK    1  A    between atoms: C_2  and  C_3 
REMARK    2  A    between atoms: C_3  and  O_6 
REMARK    3  A    between atoms: C_3  and  C_4 
REMARK    4  A    between atoms: C_7  and  O_6 
REMARK    5  A    between atoms: C_9  and  C_10 
REMARK    6  A    between atoms: N_15  and  C_14 
REMARK    7  A    between atoms: N_20  and  C_19 
REMARK       I    between atoms: C_22  and  N_20 
ROOT
ATOM      1  C   LIG d   1      -6.189  93.385 118.213  0.00  0.00     0.161 C 
ATOM      2  C   LIG d   1      -6.776  92.387 117.418  0.00  0.00     0.016 C 
ATOM      3  C   LIG d   1      -6.041  91.342 116.811  0.00  0.00     0.038 C 
ATOM      4  C   LIG d   1      -4.680  91.137 117.085  0.00  0.00     0.028 C 
ATOM      5  C   LIG d   1      -3.943  92.413 117.479  0.00  0.00    -0.047 C 
ATOM      6  C   LIG d   1      -4.724  93.114 118.614  0.00  0.00     0.091 C 
ENDROOT
BRANCH   1   7
ATOM      7  O   LIG d   1      -6.995  93.612 119.386  0.00  0.00    -0.368 OA
BRANCH   7   8
ATOM      8  C   LIG d   1      -7.702  94.876 119.439  0.00  0.00     0.119 C 
BRANCH   8   9
ATOM      9  C   LIG d   1      -9.182  94.592 119.120  0.00  0.00     0.028 C 
ATOM     10  C   LIG d   1     -10.096  94.797 120.340  0.00  0.00     0.006 C 
ENDBRANCH   8   9
BRANCH   8  11
ATOM     11  C   LIG d   1      -7.225  95.827 118.338  0.00  0.00     0.028 C 
ATOM     12  C   LIG d   1      -6.603  97.118 118.895  0.00  0.00     0.006 C 
ENDBRANCH   8  11
ENDBRANCH   7   8
ENDBRANCH   1   7
BRANCH   6  13
ATOM     13  N   LIG d   1      -4.116  94.413 119.002  0.00  0.00    -0.311 N 
ATOM     14  C   LIG d   1      -3.255  94.549 120.009  0.00  0.00     0.210 C 
ATOM     15  C   LIG d   1      -2.764  95.979 120.252  0.00  0.00     0.109 C 
ATOM     16  O   LIG d   1      -2.827  93.615 120.704  0.00  0.00    -0.276 OA
ATOM     17  H   LIG d   1      -4.383  95.219 118.470  0.00  0.00     0.149 HD
ENDBRANCH   6  13
BRANCH   5  18
ATOM     18  N   LIG d   1      -2.572  92.032 117.870  0.00  0.00     0.381 N 
ATOM     19  H   LIG d   1      -2.591  91.168 118.374  0.00  0.00    -0.090 HD
ATOM     20  H   LIG d   1      -2.197  92.742 118.474  0.00  0.00    -0.090 HD
ATOM     21  H   LIG d   1      -2.000  91.940 117.059  0.00  0.00    -0.090 HD
ENDBRANCH   5  18
BRANCH   3  22
ATOM     22  C   LIG d   1      -6.659  90.513 115.888  0.00  0.00     0.382 C 
ATOM     23  O   LIG d   1      -5.970  89.743 115.177  0.00  0.00    -0.241 OA
ATOM     24  O   LIG d   1      -7.893  90.557 115.727  0.00  0.00    -0.241 OA
ENDBRANCH   3  22
TORSDOF 7
ENDMDL
MODEL 5
REMARK VINA RESULT:      -4.8     20.706     22.635
REMARK  7 active torsions:
REMARK  status: ('A' for Active; 'I' for Inactive)
REMARK    1  A    between atoms: C_2  and  C_3 
REMARK    2  A    between atoms: C_3  and  O_6 
REMARK    3  A    between atoms: C_3  and  C_4 
REMARK    4  A    between atoms: C_7  and  O_6 
REMARK    5  A    between atoms: C_9  and  C_10 
REMARK    6  A    between atoms: N_15  and  C_14 
REMARK    7  A    between atoms: N_20  and  C_19 
REMARK       I    between atoms: C_22  and  N_20 
ROOT
ATOM      1  C   LIG d   1     -23.340  83.315 115.081  0.00  0.00     0.161 C 
ATOM      2  C   LIG d   1     -22.553  84.472 114.948  0.00  0.00     0.016 C 
ATOM      3  C   LIG d   1     -22.954  85.604 114.201  0.00  0.00     0.038 C 
ATOM      4  C   LIG d   1     -24.242  85.715 113.657  0.00  0.00     0.028 C 
ATOM      5  C   LIG d   1     -24.884  84.369 113.339  0.00  0.00    -0.047 C 
ATOM      6  C   LIG d   1     -24.794  83.462 114.588  0.00  0.00     0.091 C 
ENDROOT
BRANCH   1   7
ATOM      7  O   LIG d   1     -23.318  82.864 116.449  0.00  0.00    -0.368 OA
BRANCH   7   8
ATOM      8  C   LIG d   1     -22.129  82.149 116.866  0.00  0.00     0.119 C 
BRANCH   8   9
ATOM      9  C   LIG d   1     -22.555  80.714 117.230  0.00  0.00     0.028 C 
ATOM     10  C   LIG d   1     -22.775  79.834 115.988  0.00  0.00     0.006 C 
ENDBRANCH   8   9
BRANCH   8  11
ATOM     11  C   LIG d   1     -21.547  82.738 118.154  0.00  0.00     0.028 C 
ATOM     12  C   LIG d   1     -22.316  83.974 118.645  0.00  0.00     0.006 C 
ENDBRANCH   8  11
ENDBRANCH   7   8
ENDBRANCH   1   7
BRANCH   6  13
ATOM     13  N   LIG d   1     -25.324  82.097 114.336  0.00  0.00    -0.311 N 
ATOM     14  C   LIG d   1     -26.576  81.733 114.610  0.00  0.00     0.210 C 
ATOM     15  C   LIG d   1     -26.910  80.273 114.291  0.00  0.00     0.109 C 
ATOM     16  O   LIG d   1     -27.450  82.491 115.056  0.00  0.00    -0.276 OA
ATOM     17  H   LIG d   1     -24.690  81.427 113.945  0.00  0.00     0.149 HD
ENDBRANCH   6  13
BRANCH   5  18
ATOM     18  N   LIG d   1     -26.272  84.627 112.910  0.00  0.00     0.381 N 
ATOM     19  H   LIG d   1     -26.302  85.445 112.335  0.00  0.00    -0.090 HD
ATOM     20  H   LIG d   1     -26.838  84.792 113.724  0.00  0.00    -0.090 HD
ATOM     21  H   LIG d   1     -26.624  83.844 112.405  0.00  0.00    -0.090 HD
ENDBRANCH   5  18
BRANCH   3  22
ATOM     22  C   LIG d   1     -22.046  86.623 113.958  0.00  0.00     0.382 C 
ATOM     23  O   LIG d   1     -21.066  86.423 113.200  0.00  0.00    -0.241 OA
ATOM     24  O   LIG d   1     -22.170  87.727 114.521  0.00  0.00    -0.241 OA
ENDBRANCH   3  22
TORSDOF 7
ENDMDL
MODEL 6
REMARK VINA RESULT:      -4.7     11.782     14.517
REMARK  7 active torsions:
REMARK  status: ('A' for Active; 'I' for Inactive)
REMARK    1  A    between atoms: C_2  and  C_3 
REMARK    2  A    between atoms: C_3  and  O_6 
REMARK    3  A    between atoms: C_3  and  C_4 
REMARK    4  A    between atoms: C_7  and  O_6 
REMARK    5  A    between atoms: C_9  and  C_10 
REMARK    6  A    between atoms: N_15  and  C_14 
REMARK    7  A    between atoms: N_20  and  C_19 
REMARK       I    between atoms: C_22  and  N_20 
ROOT
ATOM      1  C   LIG d   1      10.209  78.797 114.924  0.00  0.00     0.161 C 
ATOM      2  C   LIG d   1       8.889  79.013 115.353  0.00  0.00     0.016 C 
ATOM      3  C   LIG d   1       8.001  77.966 115.693  0.00  0.00     0.038 C 
ATOM      4  C   LIG d   1       8.424  76.631 115.773  0.00  0.00     0.028 C 
ATOM      5  C   LIG d   1       9.606  76.315 114.862  0.00  0.00    -0.047 C 
ATOM      6  C   LIG d   1      10.723  77.354 115.111  0.00  0.00     0.091 C 
ENDROOT
BRANCH   1   7
ATOM      7  O   LIG d   1      11.093  79.732 115.574  0.00  0.00    -0.368 OA
BRANCH   7   8
ATOM      8  C   LIG d   1      11.577  80.826 114.757  0.00  0.00     0.119 C 
BRANCH   8   9
ATOM      9  C   LIG d   1      10.742  82.072 115.110  0.00  0.00     0.028 C 
ATOM     10  C   LIG d   1      11.074  82.625 116.506  0.00  0.00     0.006 C 
ENDBRANCH   8   9
BRANCH   8  11
ATOM     11  C   LIG d   1      11.314  80.569 113.270  0.00  0.00     0.028 C 
ATOM     12  C   LIG d   1      12.605  80.336 112.469  0.00  0.00     0.006 C 
ENDBRANCH   8  11
ENDBRANCH   7   8
ENDBRANCH   1   7
BRANCH   6  13
ATOM     13  N   LIG d   1      11.883  77.169 114.201  0.00  0.00    -0.311 N 
ATOM     14  C   LIG d   1      13.143  77.090 114.625  0.00  0.00     0.210 C 
ATOM     15  C   LIG d   1      14.189  76.918 113.519  0.00  0.00     0.109 C 
ATOM     16  O   LIG d   1      13.491  77.114 115.816  0.00  0.00    -0.276 OA
ATOM     17  H   LIG d   1      11.689  77.108 113.220  0.00  0.00     0.149 HD
ENDBRANCH   6  13
BRANCH   5  18
ATOM     18  N   LIG d   1      10.030  74.931 115.147  0.00  0.00     0.381 N 
ATOM     19  H   LIG d   1       9.781  74.686 116.084  0.00  0.00    -0.090 HD
ATOM     20  H   LIG d   1      11.030  74.874 115.061  0.00  0.00    -0.090 HD
ATOM     21  H   LIG d   1       9.598  74.303 114.505  0.00  0.00    -0.090 HD
ENDBRANCH   5  18
BRANCH   3  22
ATOM     22  C   LIG d   1       6.662  78.247 115.920  0.00  0.00     0.382 C 
ATOM     23  O   LIG d   1       5.917  77.377 116.430  0.00  0.00    -0.241 OA
ATOM     24  O   LIG d   1       6.181  79.345 115.580  0.00  0.00    -0.241 OA
ENDBRANCH   3  22
TORSDOF 7
ENDMDL
MODEL 7
REMARK VINA RESULT:      -4.7      3.684      6.754
REMARK  7 active torsions:
REMARK  status: ('A' for Active; 'I' for Inactive)
REMARK    1  A    between atoms: C_2  and  C_3 
REMARK    2  A    between atoms: C_3  and  O_6 
REMARK    3  A    between atoms: C_3  and  C_4 
REMARK    4  A    between atoms: C_7  and  O_6 
REMARK    5  A    between atoms: C_9  and  C_10 
REMARK    6  A    between atoms: N_15  and  C_14 
REMARK    7  A    between atoms: N_20  and  C_19 
REMARK       I    between atoms: C_22  and  N_20 
ROOT
ATOM      1  C   LIG d   1      -5.182  77.879 116.989  0.00  0.00     0.161 C 
ATOM      2  C   LIG d   1      -5.247  76.597 116.417  0.00  0.00     0.016 C 
ATOM      3  C   LIG d   1      -6.451  75.868 116.276  0.00  0.00     0.038 C 
ATOM      4  C   LIG d   1      -7.700  76.438 116.560  0.00  0.00     0.028 C 
ATOM      5  C   LIG d   1      -7.638  77.542 117.610  0.00  0.00    -0.047 C 
ATOM      6  C   LIG d   1      -6.550  78.562 117.202  0.00  0.00     0.091 C 
ENDROOT
BRANCH   1   7
ATOM      7  O   LIG d   1      -4.319  78.722 116.200  0.00  0.00    -0.368 OA
BRANCH   7   8
ATOM      8  C   LIG d   1      -3.040  79.056 116.793  0.00  0.00     0.119 C 
BRANCH   8   9
ATOM      9  C   LIG d   1      -1.950  78.326 115.984  0.00  0.00     0.028 C 
ATOM     10  C   LIG d   1      -2.336  78.148 114.506  0.00  0.00     0.006 C 
ENDBRANCH   8   9
BRANCH   8  11
ATOM     11  C   LIG d   1      -2.925  78.506 118.218  0.00  0.00     0.028 C 
ATOM     12  C   LIG d   1      -1.724  77.565 118.398  0.00  0.00     0.006 C 
ENDBRANCH   8  11
ENDBRANCH   7   8
ENDBRANCH   1   7
BRANCH   6  13
ATOM     13  N   LIG d   1      -6.365  79.630 118.218  0.00  0.00    -0.311 N 
ATOM     14  C   LIG d   1      -6.895  80.847 118.107  0.00  0.00     0.210 C 
ATOM     15  C   LIG d   1      -6.564  81.804 119.257  0.00  0.00     0.109 C 
ATOM     16  O   LIG d   1      -7.634  81.215 117.182  0.00  0.00    -0.276 OA
ATOM     17  H   LIG d   1      -5.805  79.407 119.018  0.00  0.00     0.149 HD
ENDBRANCH   6  13
BRANCH   5  18
ATOM     18  N   LIG d   1      -8.983  78.141 117.708  0.00  0.00     0.381 N 
ATOM     19  H   LIG d   1      -8.962  78.920 118.335  0.00  0.00    -0.090 HD
ATOM     20  H   LIG d   1      -9.617  77.455 118.078  0.00  0.00    -0.090 HD
ATOM     21  H   LIG d   1      -9.291  78.437 116.808  0.00  0.00    -0.090 HD
ENDBRANCH   5  18
BRANCH   3  22
ATOM     22  C   LIG d   1      -6.407  74.539 115.882  0.00  0.00     0.382 C 
ATOM     23  O   LIG d   1      -5.633  74.183 114.961  0.00  0.00    -0.241 OA
ATOM     24  O   LIG d   1      -7.163  73.700 116.407  0.00  0.00    -0.241 OA
ENDBRANCH   3  22
TORSDOF 7
ENDMDL
MODEL 8
REMARK VINA RESULT:      -4.7     21.761     24.280
REMARK  7 active torsions:
REMARK  status: ('A' for Active; 'I' for Inactive)
REMARK    1  A    between atoms: C_2  and  C_3 
REMARK    2  A    between atoms: C_3  and  O_6 
REMARK    3  A    between atoms: C_3  and  C_4 
REMARK    4  A    between atoms: C_7  and  O_6 
REMARK    5  A    between atoms: C_9  and  C_10 
REMARK    6  A    between atoms: N_15  and  C_14 
REMARK    7  A    between atoms: N_20  and  C_19 
REMARK       I    between atoms: C_22  and  N_20 
ROOT
ATOM      1  C   LIG d   1     -25.070  85.510 114.577  0.00  0.00     0.161 C 
ATOM      2  C   LIG d   1     -24.000  86.405 114.410  0.00  0.00     0.016 C 
ATOM      3  C   LIG d   1     -22.760  86.036 113.839  0.00  0.00     0.038 C 
ATOM      4  C   LIG d   1     -22.557  84.777 113.255  0.00  0.00     0.028 C 
ATOM      5  C   LIG d   1     -23.436  83.684 113.852  0.00  0.00    -0.047 C 
ATOM      6  C   LIG d   1     -24.906  84.162 113.844  0.00  0.00     0.091 C 
ENDROOT
BRANCH   1   7
ATOM      7  O   LIG d   1     -26.304  86.145 114.187  0.00  0.00    -0.368 OA
BRANCH   7   8
ATOM      8  C   LIG d   1     -26.205  87.136 113.134  0.00  0.00     0.119 C 
BRANCH   8   9
ATOM      9  C   LIG d   1     -26.805  88.448 113.675  0.00  0.00     0.028 C 
ATOM     10  C   LIG d   1     -27.043  89.486 112.565  0.00  0.00     0.006 C 
ENDBRANCH   8   9
BRANCH   8  11
ATOM     11  C   LIG d   1     -27.075  86.758 111.931  0.00  0.00     0.028 C 
ATOM     12  C   LIG d   1     -27.985  85.551 112.209  0.00  0.00     0.006 C 
ENDBRANCH   8  11
ENDBRANCH   7   8
ENDBRANCH   1   7
BRANCH   6  13
ATOM     13  N   LIG d   1     -25.823  83.185 114.489  0.00  0.00    -0.311 N 
ATOM     14  C   LIG d   1     -26.613  82.360 113.805  0.00  0.00     0.210 C 
ATOM     15  C   LIG d   1     -27.495  81.448 114.664  0.00  0.00     0.109 C 
ATOM     16  O   LIG d   1     -26.645  82.274 112.568  0.00  0.00    -0.276 OA
ATOM     17  H   LIG d   1     -25.839  83.166 115.490  0.00  0.00     0.149 HD
ENDBRANCH   6  13
BRANCH   5  18
ATOM     18  N   LIG d   1     -23.223  82.458 113.060  0.00  0.00     0.381 N 
ATOM     19  H   LIG d   1     -22.535  82.627 112.353  0.00  0.00    -0.090 HD
ATOM     20  H   LIG d   1     -24.085  82.208 112.608  0.00  0.00    -0.090 HD
ATOM     21  H   LIG d   1     -22.924  81.716 113.654  0.00  0.00    -0.090 HD
ENDBRANCH   5  18
BRANCH   3  22
ATOM     22  C   LIG d   1     -21.693  86.921 113.885  0.00  0.00     0.382 C 
ATOM     23  O   LIG d   1     -21.738  87.918 114.645  0.00  0.00    -0.241 OA
ATOM     24  O   LIG d   1     -20.704  86.757 113.145  0.00  0.00    -0.241 OA
ENDBRANCH   3  22
TORSDOF 7
ENDMDL
MODEL 9
REMARK VINA RESULT:      -4.7     14.429     17.475
REMARK  7 active torsions:
REMARK  status: ('A' for Active; 'I' for Inactive)
REMARK    1  A    between atoms: C_2  and  C_3 
REMARK    2  A    between atoms: C_3  and  O_6 
REMARK    3  A    between atoms: C_3  and  C_4 
REMARK    4  A    between atoms: C_7  and  O_6 
REMARK    5  A    between atoms: C_9  and  C_10 
REMARK    6  A    between atoms: N_15  and  C_14 
REMARK    7  A    between atoms: N_20  and  C_19 
REMARK       I    between atoms: C_22  and  N_20 
ROOT
ATOM      1  C   LIG d   1     -15.647  64.929 118.636  0.00  0.00     0.161 C 
ATOM      2  C   LIG d   1     -14.860  65.577 119.602  0.00  0.00     0.016 C 
ATOM      3  C   LIG d   1     -14.536  66.953 119.547  0.00  0.00     0.038 C 
ATOM      4  C   LIG d   1     -15.107  67.811 118.595  0.00  0.00     0.028 C 
ATOM      5  C   LIG d   1     -15.504  67.104 117.304  0.00  0.00    -0.047 C 
ATOM      6  C   LIG d   1     -16.369  65.872 117.652  0.00  0.00     0.091 C 
ENDROOT
BRANCH   1   7
ATOM      7  O   LIG d   1     -16.595  64.057 119.283  0.00  0.00    -0.368 OA
BRANCH   7   8
ATOM      8  C   LIG d   1     -16.589  62.675 118.850  0.00  0.00     0.119 C 
BRANCH   8   9
ATOM      9  C   LIG d   1     -18.011  62.335 118.364  0.00  0.00     0.028 C 
ATOM     10  C   LIG d   1     -19.063  63.328 118.889  0.00  0.00     0.006 C 
ENDBRANCH   8   9
BRANCH   8  11
ATOM     11  C   LIG d   1     -16.323  61.725 120.022  0.00  0.00     0.028 C 
ATOM     12  C   LIG d   1     -14.847  61.311 120.131  0.00  0.00     0.006 C 
ENDBRANCH   8  11
ENDBRANCH   7   8
ENDBRANCH   1   7
BRANCH   6  13
ATOM     13  N   LIG d   1     -16.731  65.075 116.450  0.00  0.00    -0.311 N 
ATOM     14  C   LIG d   1     -17.908  65.173 115.833  0.00  0.00     0.210 C 
ATOM     15  C   LIG d   1     -18.082  64.247 114.625  0.00  0.00     0.109 C 
ATOM     16  O   LIG d   1     -18.810  65.961 116.152  0.00  0.00    -0.276 OA
ATOM     17  H   LIG d   1     -16.045  64.433 116.105  0.00  0.00     0.149 HD
ENDBRANCH   6  13
BRANCH   5  18
ATOM     18  N   LIG d   1     -16.209  68.085 116.458  0.00  0.00     0.381 N 
ATOM     19  H   LIG d   1     -17.194  67.911 116.485  0.00  0.00    -0.090 HD
ATOM     20  H   LIG d   1     -15.897  67.980 115.508  0.00  0.00    -0.090 HD
ATOM     21  H   LIG d   1     -16.020  69.010 116.777  0.00  0.00    -0.090 HD
ENDBRANCH   5  18
BRANCH   3  22
ATOM     22  C   LIG d   1     -13.600  67.474 120.427  0.00  0.00     0.382 C 
ATOM     23  O   LIG d   1     -13.264  66.822 121.445  0.00  0.00    -0.241 OA
ATOM     24  O   LIG d   1     -13.121  68.609 120.240  0.00  0.00    -0.241 OA
ENDBRANCH   3  22
TORSDOF 7
ENDMDL
