MODEL 1
REMARK VINA RESULT:      -5.9      0.000      0.000
REMARK  7 active torsions:
REMARK  status: ('A' for Active; 'I' for Inactive)
REMARK    1  A    between atoms: C_2  and  C_3 
REMARK    2  A    between atoms: C_3  and  O_6 
REMARK    3  A    between atoms: C_3  and  C_4 
REMARK    4  A    between atoms: C_7  and  O_6 
REMARK    5  A    between atoms: C_9  and  C_10 
REMARK    6  A    between atoms: N_15  and  C_14 
REMARK    7  A    between atoms: N_20  and  C_19 
REMARK       I    between atoms: C_22  and  N_20 
ROOT
ATOM      1  C   LIG d   1      -8.131  75.945 116.072  0.00  0.00     0.161 C 
ATOM      2  C   LIG d   1      -7.108  75.491 115.223  0.00  0.00     0.016 C 
ATOM      3  C   LIG d   1      -5.770  75.940 115.308  0.00  0.00     0.038 C 
ATOM      4  C   LIG d   1      -5.330  76.767 116.353  0.00  0.00     0.028 C 
ATOM      5  C   LIG d   1      -6.432  77.648 116.933  0.00  0.00    -0.047 C 
ATOM      6  C   LIG d   1      -7.648  76.762 117.288  0.00  0.00     0.091 C 
ENDROOT
BRANCH   1   7
ATOM      7  O   LIG d   1      -8.937  74.831 116.505  0.00  0.00    -0.368 OA
BRANCH   7   8
ATOM      8  C   LIG d   1      -8.266  73.837 117.319  0.00  0.00     0.119 C 
BRANCH   8   9
ATOM      9  C   LIG d   1      -8.270  72.513 116.530  0.00  0.00     0.028 C 
ATOM     10  C   LIG d   1      -6.850  72.014 116.214  0.00  0.00     0.006 C 
ENDBRANCH   8   9
BRANCH   8  11
ATOM     11  C   LIG d   1      -9.049  73.547 118.603  0.00  0.00     0.028 C 
ATOM     12  C   LIG d   1      -9.380  72.056 118.774  0.00  0.00     0.006 C 
ENDBRANCH   8  11
ENDBRANCH   7   8
ENDBRANCH   1   7
BRANCH   6  13
ATOM     13  N   LIG d   1      -8.802  77.556 117.784  0.00  0.00    -0.311 N 
ATOM     14  C   LIG d   1      -9.284  77.456 119.022  0.00  0.00     0.210 C 
ATOM     15  C   LIG d   1     -10.491  78.350 119.320  0.00  0.00     0.109 C 
ATOM     16  O   LIG d   1      -8.806  76.734 119.910  0.00  0.00    -0.276 OA
ATOM     17  H   LIG d   1      -9.230  78.190 117.138  0.00  0.00     0.149 HD
ENDBRANCH   6  13
BRANCH   5  18
ATOM     18  N   LIG d   1      -5.870  78.354 118.100  0.00  0.00     0.381 N 
ATOM     19  H   LIG d   1      -5.092  78.915 117.814  0.00  0.00    -0.090 HD
ATOM     20  H   LIG d   1      -5.541  77.674 118.764  0.00  0.00    -0.090 HD
ATOM     21  H   LIG d   1      -6.567  78.928 118.519  0.00  0.00    -0.090 HD
ENDBRANCH   5  18
BRANCH   3  22
ATOM     22  C   LIG d   1      -4.864  75.594 114.317  0.00  0.00     0.382 C 
ATOM     23  O   LIG d   1      -4.486  76.453 113.485  0.00  0.00    -0.241 OA
ATOM     24  O   LIG d   1      -4.455  74.422 114.217  0.00  0.00    -0.241 OA
ENDBRANCH   3  22
TORSDOF 7
ENDMDL
MODEL 2
REMARK VINA RESULT:      -5.7     15.832     18.213
REMARK  7 active torsions:
REMARK  status: ('A' for Active; 'I' for Inactive)
REMARK    1  A    between atoms: C_2  and  C_3 
REMARK    2  A    between atoms: C_3  and  O_6 
REMARK    3  A    between atoms: C_3  and  C_4 
REMARK    4  A    between atoms: C_7  and  O_6 
REMARK    5  A    between atoms: C_9  and  C_10 
REMARK    6  A    between atoms: N_15  and  C_14 
REMARK    7  A    between atoms: N_20  and  C_19 
REMARK       I    between atoms: C_22  and  N_20 
ROOT
ATOM      1  C   LIG d   1      -6.332  93.290 117.924  0.00  0.00     0.161 C 
ATOM      2  C   LIG d   1      -6.860  92.240 117.154  0.00  0.00     0.016 C 
ATOM      3  C   LIG d   1      -6.088  91.150 116.692  0.00  0.00     0.038 C 
ATOM      4  C   LIG d   1      -4.759  90.956 117.099  0.00  0.00     0.028 C 
ATOM      5  C   LIG d   1      -4.043  92.252 117.464  0.00  0.00    -0.047 C 
ATOM      6  C   LIG d   1      -4.912  93.039 118.472  0.00  0.00     0.091 C 
ENDROOT
BRANCH   1   7
ATOM      7  O   LIG d   1      -7.236  93.607 119.002  0.00  0.00    -0.368 OA
BRANCH   7   8
ATOM      8  C   LIG d   1      -8.207  94.648 118.734  0.00  0.00     0.119 C 
BRANCH   8   9
ATOM      9  C   LIG d   1      -7.428  95.913 118.321  0.00  0.00     0.028 C 
ATOM     10  C   LIG d   1      -8.300  97.178 118.360  0.00  0.00     0.006 C 
ENDBRANCH   8   9
BRANCH   8  11
ATOM     11  C   LIG d   1      -8.970  95.039 120.003  0.00  0.00     0.028 C 
ATOM     12  C   LIG d   1     -10.272  94.242 120.184  0.00  0.00     0.006 C 
ENDBRANCH   8  11
ENDBRANCH   7   8
ENDBRANCH   1   7
BRANCH   6  13
ATOM     13  N   LIG d   1      -4.323  94.360 118.817  0.00  0.00    -0.311 N 
ATOM     14  C   LIG d   1      -3.538  94.559 119.874  0.00  0.00     0.210 C 
ATOM     15  C   LIG d   1      -3.055  96.001 120.058  0.00  0.00     0.109 C 
ATOM     16  O   LIG d   1      -3.169  93.671 120.658  0.00  0.00    -0.276 OA
ATOM     17  H   LIG d   1      -4.545  95.129 118.216  0.00  0.00     0.149 HD
ENDBRANCH   6  13
BRANCH   5  18
ATOM     18  N   LIG d   1      -2.717  91.893 118.001  0.00  0.00     0.381 N 
ATOM     19  H   LIG d   1      -2.458  92.535 118.723  0.00  0.00    -0.090 HD
ATOM     20  H   LIG d   1      -2.039  91.958 117.263  0.00  0.00    -0.090 HD
ATOM     21  H   LIG d   1      -2.736  90.965 118.363  0.00  0.00    -0.090 HD
ENDBRANCH   5  18
BRANCH   3  22
ATOM     22  C   LIG d   1      -6.633  90.259 115.780  0.00  0.00     0.382 C 
ATOM     23  O   LIG d   1      -7.726  89.696 116.030  0.00  0.00    -0.241 OA
ATOM     24  O   LIG d   1      -6.024  89.978 114.730  0.00  0.00    -0.241 OA
ENDBRANCH   3  22
TORSDOF 7
ENDMDL
MODEL 3
REMARK VINA RESULT:      -5.6      2.192      4.272
REMARK  7 active torsions:
REMARK  status: ('A' for Active; 'I' for Inactive)
REMARK    1  A    between atoms: C_2  and  C_3 
REMARK    2  A    between atoms: C_3  and  O_6 
REMARK    3  A    between atoms: C_3  and  C_4 
REMARK    4  A    between atoms: C_7  and  O_6 
REMARK    5  A    between atoms: C_9  and  C_10 
REMARK    6  A    between atoms: N_15  and  C_14 
REMARK    7  A    between atoms: N_20  and  C_19 
REMARK       I    between atoms: C_22  and  N_20 
ROOT
ATOM      1  C   LIG d   1      -6.684  75.929 116.803  0.00  0.00     0.161 C 
ATOM      2  C   LIG d   1      -5.694  76.431 115.942  0.00  0.00     0.016 C 
ATOM      3  C   LIG d   1      -5.019  75.638 114.985  0.00  0.00     0.038 C 
ATOM      4  C   LIG d   1      -5.399  74.314 114.719  0.00  0.00     0.028 C 
ATOM      5  C   LIG d   1      -6.051  73.620 115.911  0.00  0.00    -0.047 C 
ATOM      6  C   LIG d   1      -7.190  74.515 116.451  0.00  0.00     0.091 C 
ENDROOT
BRANCH   1   7
ATOM      7  O   LIG d   1      -7.788  76.854 116.869  0.00  0.00    -0.368 OA
BRANCH   7   8
ATOM      8  C   LIG d   1      -7.974  77.535 118.134  0.00  0.00     0.119 C 
BRANCH   8   9
ATOM      9  C   LIG d   1      -9.358  77.130 118.679  0.00  0.00     0.028 C 
ATOM     10  C   LIG d   1     -10.281  76.575 117.581  0.00  0.00     0.006 C 
ENDBRANCH   8   9
BRANCH   8  11
ATOM     11  C   LIG d   1      -8.040  79.053 117.946  0.00  0.00     0.028 C 
ATOM     12  C   LIG d   1      -6.668  79.677 117.650  0.00  0.00     0.006 C 
ENDBRANCH   8  11
ENDBRANCH   7   8
ENDBRANCH   1   7
BRANCH   6  13
ATOM     13  N   LIG d   1      -7.825  73.949 117.670  0.00  0.00    -0.311 N 
ATOM     14  C   LIG d   1      -8.887  73.146 117.637  0.00  0.00     0.210 C 
ATOM     15  C   LIG d   1      -9.397  72.691 119.008  0.00  0.00     0.109 C 
ATOM     16  O   LIG d   1      -9.437  72.741 116.601  0.00  0.00    -0.276 OA
ATOM     17  H   LIG d   1      -7.424  74.200 118.552  0.00  0.00     0.149 HD
ENDBRANCH   6  13
BRANCH   5  18
ATOM     18  N   LIG d   1      -6.521  72.299 115.454  0.00  0.00     0.381 N 
ATOM     19  H   LIG d   1      -6.556  72.278 114.454  0.00  0.00    -0.090 HD
ATOM     20  H   LIG d   1      -7.449  72.145 115.805  0.00  0.00    -0.090 HD
ATOM     21  H   LIG d   1      -5.909  71.586 115.787  0.00  0.00    -0.090 HD
ENDBRANCH   5  18
BRANCH   3  22
ATOM     22  C   LIG d   1      -3.925  76.158 114.310  0.00  0.00     0.382 C 
ATOM     23  O   LIG d   1      -4.094  76.823 113.260  0.00  0.00    -0.241 OA
ATOM     24  O   LIG d   1      -2.769  75.932 114.714  0.00  0.00    -0.241 OA
ENDBRANCH   3  22
TORSDOF 7
ENDMDL
MODEL 4
REMARK VINA RESULT:      -5.5      2.607      4.630
REMARK  7 active torsions:
REMARK  status: ('A' for Active; 'I' for Inactive)
REMARK    1  A    between atoms: C_2  and  C_3 
REMARK    2  A    between atoms: C_3  and  O_6 
REMARK    3  A    between atoms: C_3  and  C_4 
REMARK    4  A    between atoms: C_7  and  O_6 
REMARK    5  A    between atoms: C_9  and  C_10 
REMARK    6  A    between atoms: N_15  and  C_14 
REMARK    7  A    between atoms: N_20  and  C_19 
REMARK       I    between atoms: C_22  and  N_20 
ROOT
ATOM      1  C   LIG d   1      -6.221  74.705 118.016  0.00  0.00     0.161 C 
ATOM      2  C   LIG d   1      -6.303  73.358 117.625  0.00  0.00     0.016 C 
ATOM      3  C   LIG d   1      -7.436  72.799 116.990  0.00  0.00     0.038 C 
ATOM      4  C   LIG d   1      -8.512  73.591 116.563  0.00  0.00     0.028 C 
ATOM      5  C   LIG d   1      -8.692  74.863 117.385  0.00  0.00    -0.047 C 
ATOM      6  C   LIG d   1      -7.340  75.609 117.458  0.00  0.00     0.091 C 
ENDROOT
BRANCH   1   7
ATOM      7  O   LIG d   1      -4.927  75.237 117.668  0.00  0.00    -0.368 OA
BRANCH   7   8
ATOM      8  C   LIG d   1      -4.194  74.513 116.649  0.00  0.00     0.119 C 
BRANCH   8   9
ATOM      9  C   LIG d   1      -2.717  74.465 117.088  0.00  0.00     0.028 C 
ATOM     10  C   LIG d   1      -1.764  74.194 115.912  0.00  0.00     0.006 C 
ENDBRANCH   8   9
BRANCH   8  11
ATOM     11  C   LIG d   1      -4.197  75.268 115.317  0.00  0.00     0.028 C 
ATOM     12  C   LIG d   1      -5.193  74.684 114.303  0.00  0.00     0.006 C 
ENDBRANCH   8  11
ENDBRANCH   7   8
ENDBRANCH   1   7
BRANCH   6  13
ATOM     13  N   LIG d   1      -7.408  76.822 118.314  0.00  0.00    -0.311 N 
ATOM     14  C   LIG d   1      -6.947  78.013 117.936  0.00  0.00     0.210 C 
ATOM     15  C   LIG d   1      -7.098  79.125 118.979  0.00  0.00     0.109 C 
ATOM     16  O   LIG d   1      -6.458  78.262 116.824  0.00  0.00    -0.276 OA
ATOM     17  H   LIG d   1      -7.818  76.717 119.222  0.00  0.00     0.149 HD
ENDBRANCH   6  13
BRANCH   5  18
ATOM     18  N   LIG d   1      -9.758  75.659 116.747  0.00  0.00     0.381 N 
ATOM     19  H   LIG d   1      -9.878  75.365 115.798  0.00  0.00    -0.090 HD
ATOM     20  H   LIG d   1      -9.485  76.626 116.745  0.00  0.00    -0.090 HD
ATOM     21  H   LIG d   1     -10.612  75.548 117.248  0.00  0.00    -0.090 HD
ENDBRANCH   5  18
BRANCH   3  22
ATOM     22  C   LIG d   1      -7.516  71.427 116.812  0.00  0.00     0.382 C 
ATOM     23  O   LIG d   1      -6.680  70.838 116.085  0.00  0.00    -0.241 OA
ATOM     24  O   LIG d   1      -8.442  70.775 117.333  0.00  0.00    -0.241 OA
ENDBRANCH   3  22
TORSDOF 7
ENDMDL
MODEL 5
REMARK VINA RESULT:      -5.3     15.262     17.403
REMARK  7 active torsions:
REMARK  status: ('A' for Active; 'I' for Inactive)
REMARK    1  A    between atoms: C_2  and  C_3 
REMARK    2  A    between atoms: C_3  and  O_6 
REMARK    3  A    between atoms: C_3  and  C_4 
REMARK    4  A    between atoms: C_7  and  O_6 
REMARK    5  A    between atoms: C_9  and  C_10 
REMARK    6  A    between atoms: N_15  and  C_14 
REMARK    7  A    between atoms: N_20  and  C_19 
REMARK       I    between atoms: C_22  and  N_20 
ROOT
ATOM      1  C   LIG d   1      -3.893  91.504 118.237  0.00  0.00     0.161 C 
ATOM      2  C   LIG d   1      -4.510  90.744 117.229  0.00  0.00     0.016 C 
ATOM      3  C   LIG d   1      -5.697  91.140 116.572  0.00  0.00     0.038 C 
ATOM      4  C   LIG d   1      -6.270  92.404 116.775  0.00  0.00     0.028 C 
ATOM      5  C   LIG d   1      -5.967  92.994 118.149  0.00  0.00    -0.047 C 
ATOM      6  C   LIG d   1      -4.442  92.937 118.393  0.00  0.00     0.091 C 
ENDROOT
BRANCH   1   7
ATOM      7  O   LIG d   1      -2.468  91.533 118.024  0.00  0.00    -0.368 OA
BRANCH   7   8
ATOM      8  C   LIG d   1      -1.648  91.100 119.137  0.00  0.00     0.119 C 
BRANCH   8   9
ATOM      9  C   LIG d   1      -0.584  92.189 119.379  0.00  0.00     0.028 C 
ATOM     10  C   LIG d   1      -0.573  93.255 118.271  0.00  0.00     0.006 C 
ENDBRANCH   8   9
BRANCH   8  11
ATOM     11  C   LIG d   1      -0.860  89.834 118.790  0.00  0.00     0.028 C 
ATOM     12  C   LIG d   1      -0.830  89.546 117.281  0.00  0.00     0.006 C 
ENDBRANCH   8  11
ENDBRANCH   7   8
ENDBRANCH   1   7
BRANCH   6  13
ATOM     13  N   LIG d   1      -4.067  93.417 119.749  0.00  0.00    -0.311 N 
ATOM     14  C   LIG d   1      -3.613  94.645 119.993  0.00  0.00     0.210 C 
ATOM     15  C   LIG d   1      -3.266  94.928 121.458  0.00  0.00     0.109 C 
ATOM     16  O   LIG d   1      -3.494  95.538 119.139  0.00  0.00    -0.276 OA
ATOM     17  H   LIG d   1      -4.162  92.768 120.505  0.00  0.00     0.149 HD
ENDBRANCH   6  13
BRANCH   5  18
ATOM     18  N   LIG d   1      -6.507  94.366 118.174  0.00  0.00     0.381 N 
ATOM     19  H   LIG d   1      -7.067  94.525 117.360  0.00  0.00    -0.090 HD
ATOM     20  H   LIG d   1      -5.741  95.017 118.161  0.00  0.00    -0.090 HD
ATOM     21  H   LIG d   1      -7.054  94.503 118.995  0.00  0.00    -0.090 HD
ENDBRANCH   5  18
BRANCH   3  22
ATOM     22  C   LIG d   1      -6.347  90.250 115.731  0.00  0.00     0.382 C 
ATOM     23  O   LIG d   1      -5.805  89.894 114.656  0.00  0.00    -0.241 OA
ATOM     24  O   LIG d   1      -7.487  89.833 116.011  0.00  0.00    -0.241 OA
ENDBRANCH   3  22
TORSDOF 7
ENDMDL
MODEL 6
REMARK VINA RESULT:      -5.2     15.554     17.935
REMARK  7 active torsions:
REMARK  status: ('A' for Active; 'I' for Inactive)
REMARK    1  A    between atoms: C_2  and  C_3 
REMARK    2  A    between atoms: C_3  and  O_6 
REMARK    3  A    between atoms: C_3  and  C_4 
REMARK    4  A    between atoms: C_7  and  O_6 
REMARK    5  A    between atoms: C_9  and  C_10 
REMARK    6  A    between atoms: N_15  and  C_14 
REMARK    7  A    between atoms: N_20  and  C_19 
REMARK       I    between atoms: C_22  and  N_20 
ROOT
ATOM      1  C   LIG d   1      -6.094  92.275 118.260  0.00  0.00     0.161 C 
ATOM      2  C   LIG d   1      -5.364  92.690 119.386  0.00  0.00     0.016 C 
ATOM      3  C   LIG d   1      -4.022  92.313 119.626  0.00  0.00     0.038 C 
ATOM      4  C   LIG d   1      -3.267  91.614 118.672  0.00  0.00     0.028 C 
ATOM      5  C   LIG d   1      -4.113  90.745 117.748  0.00  0.00    -0.047 C 
ATOM      6  C   LIG d   1      -5.253  91.605 117.154  0.00  0.00     0.091 C 
ENDROOT
BRANCH   1   7
ATOM      7  O   LIG d   1      -6.834  93.388 117.721  0.00  0.00    -0.368 OA
BRANCH   7   8
ATOM      8  C   LIG d   1      -7.424  94.291 118.689  0.00  0.00     0.119 C 
BRANCH   8   9
ATOM      9  C   LIG d   1      -8.955  94.168 118.565  0.00  0.00     0.028 C 
ATOM     10  C   LIG d   1      -9.674  94.414 119.901  0.00  0.00     0.006 C 
ENDBRANCH   8   9
BRANCH   8  11
ATOM     11  C   LIG d   1      -7.106  95.751 118.356  0.00  0.00     0.028 C 
ATOM     12  C   LIG d   1      -6.554  96.531 119.560  0.00  0.00     0.006 C 
ENDBRANCH   8  11
ENDBRANCH   7   8
ENDBRANCH   1   7
BRANCH   6  13
ATOM     13  N   LIG d   1      -6.178  90.811 116.304  0.00  0.00    -0.311 N 
ATOM     14  C   LIG d   1      -6.604  91.215 115.109  0.00  0.00     0.210 C 
ATOM     15  C   LIG d   1      -7.570  90.254 114.408  0.00  0.00     0.109 C 
ATOM     16  O   LIG d   1      -6.249  92.263 114.549  0.00  0.00    -0.276 OA
ATOM     17  H   LIG d   1      -6.492  89.932 116.668  0.00  0.00     0.149 HD
ENDBRANCH   6  13
BRANCH   5  18
ATOM     18  N   LIG d   1      -3.217  90.184 116.719  0.00  0.00     0.381 N 
ATOM     19  H   LIG d   1      -2.535  90.866 116.456  0.00  0.00    -0.090 HD
ATOM     20  H   LIG d   1      -3.760  89.951 115.907  0.00  0.00    -0.090 HD
ATOM     21  H   LIG d   1      -2.764  89.369 117.070  0.00  0.00    -0.090 HD
ENDBRANCH   5  18
BRANCH   3  22
ATOM     22  C   LIG d   1      -3.435  92.601 120.848  0.00  0.00     0.382 C 
ATOM     23  O   LIG d   1      -2.719  93.624 120.974  0.00  0.00    -0.241 OA
ATOM     24  O   LIG d   1      -3.575  91.828 121.814  0.00  0.00    -0.241 OA
ENDBRANCH   3  22
TORSDOF 7
ENDMDL
MODEL 7
REMARK VINA RESULT:      -5.2      1.845      4.826
REMARK  7 active torsions:
REMARK  status: ('A' for Active; 'I' for Inactive)
REMARK    1  A    between atoms: C_2  and  C_3 
REMARK    2  A    between atoms: C_3  and  O_6 
REMARK    3  A    between atoms: C_3  and  C_4 
REMARK    4  A    between atoms: C_7  and  O_6 
REMARK    5  A    between atoms: C_9  and  C_10 
REMARK    6  A    between atoms: N_15  and  C_14 
REMARK    7  A    between atoms: N_20  and  C_19 
REMARK       I    between atoms: C_22  and  N_20 
ROOT
ATOM      1  C   LIG d   1      -7.273  76.493 117.644  0.00  0.00     0.161 C 
ATOM      2  C   LIG d   1      -8.581  76.887 117.970  0.00  0.00     0.016 C 
ATOM      3  C   LIG d   1      -8.967  78.237 118.142  0.00  0.00     0.038 C 
ATOM      4  C   LIG d   1      -8.099  79.299 117.849  0.00  0.00     0.028 C 
ATOM      5  C   LIG d   1      -6.626  78.938 118.005  0.00  0.00    -0.047 C 
ATOM      6  C   LIG d   1      -6.340  77.643 117.212  0.00  0.00     0.091 C 
ENDROOT
BRANCH   1   7
ATOM      7  O   LIG d   1      -7.310  75.469 116.630  0.00  0.00    -0.368 OA
BRANCH   7   8
ATOM      8  C   LIG d   1      -7.167  74.105 117.095  0.00  0.00     0.119 C 
BRANCH   8   9
ATOM      9  C   LIG d   1      -6.040  73.451 116.272  0.00  0.00     0.028 C 
ATOM     10  C   LIG d   1      -5.672  74.272 115.025  0.00  0.00     0.006 C 
ENDBRANCH   8   9
BRANCH   8  11
ATOM     11  C   LIG d   1      -8.421  73.279 116.795  0.00  0.00     0.028 C 
ATOM     12  C   LIG d   1      -9.232  72.946 118.057  0.00  0.00     0.006 C 
ENDBRANCH   8  11
ENDBRANCH   7   8
ENDBRANCH   1   7
BRANCH   6  13
ATOM     13  N   LIG d   1      -4.940  77.173 117.379  0.00  0.00    -0.311 N 
ATOM     14  C   LIG d   1      -4.049  77.153 116.389  0.00  0.00     0.210 C 
ATOM     15  C   LIG d   1      -2.668  76.612 116.771  0.00  0.00     0.109 C 
ATOM     16  O   LIG d   1      -4.263  77.562 115.238  0.00  0.00    -0.276 OA
ATOM     17  H   LIG d   1      -4.672  76.852 118.289  0.00  0.00     0.149 HD
ENDBRANCH   6  13
BRANCH   5  18
ATOM     18  N   LIG d   1      -5.832  80.090 117.537  0.00  0.00     0.381 N 
ATOM     19  H   LIG d   1      -5.183  80.365 118.247  0.00  0.00    -0.090 HD
ATOM     20  H   LIG d   1      -6.452  80.861 117.361  0.00  0.00    -0.090 HD
ATOM     21  H   LIG d   1      -5.343  79.851 116.703  0.00  0.00    -0.090 HD
ENDBRANCH   5  18
BRANCH   3  22
ATOM     22  C   LIG d   1     -10.223  78.533 118.650  0.00  0.00     0.382 C 
ATOM     23  O   LIG d   1     -11.168  77.722 118.498  0.00  0.00    -0.241 OA
ATOM     24  O   LIG d   1     -10.433  79.621 119.220  0.00  0.00    -0.241 OA
ENDBRANCH   3  22
TORSDOF 7
ENDMDL
MODEL 8
REMARK VINA RESULT:      -5.1      2.512      4.807
REMARK  7 active torsions:
REMARK  status: ('A' for Active; 'I' for Inactive)
REMARK    1  A    between atoms: C_2  and  C_3 
REMARK    2  A    between atoms: C_3  and  O_6 
REMARK    3  A    between atoms: C_3  and  C_4 
REMARK    4  A    between atoms: C_7  and  O_6 
REMARK    5  A    between atoms: C_9  and  C_10 
REMARK    6  A    between atoms: N_15  and  C_14 
REMARK    7  A    between atoms: N_20  and  C_19 
REMARK       I    between atoms: C_22  and  N_20 
ROOT
ATOM      1  C   LIG d   1      -7.208  76.926 117.202  0.00  0.00     0.161 C 
ATOM      2  C   LIG d   1      -6.908  78.285 117.393  0.00  0.00     0.016 C 
ATOM      3  C   LIG d   1      -7.818  79.212 117.954  0.00  0.00     0.038 C 
ATOM      4  C   LIG d   1      -9.043  78.807 118.505  0.00  0.00     0.028 C 
ATOM      5  C   LIG d   1      -9.597  77.532 117.878  0.00  0.00    -0.047 C 
ATOM      6  C   LIG d   1      -8.498  76.445 117.899  0.00  0.00     0.091 C 
ENDROOT
BRANCH   1   7
ATOM      7  O   LIG d   1      -6.087  76.117 117.609  0.00  0.00    -0.368 OA
BRANCH   7   8
ATOM      8  C   LIG d   1      -5.232  75.631 116.545  0.00  0.00     0.119 C 
BRANCH   8   9
ATOM      9  C   LIG d   1      -6.126  75.369 115.317  0.00  0.00     0.028 C 
ATOM     10  C   LIG d   1      -5.316  75.260 114.014  0.00  0.00     0.006 C 
ENDBRANCH   8   9
BRANCH   8  11
ATOM     11  C   LIG d   1      -4.621  74.272 116.898  0.00  0.00     0.028 C 
ATOM     12  C   LIG d   1      -3.087  74.314 116.988  0.00  0.00     0.006 C 
ENDBRANCH   8  11
ENDBRANCH   7   8
ENDBRANCH   1   7
BRANCH   6  13
ATOM     13  N   LIG d   1      -8.929  75.190 117.228  0.00  0.00    -0.311 N 
ATOM     14  C   LIG d   1      -8.692  73.976 117.722  0.00  0.00     0.210 C 
ATOM     15  C   LIG d   1      -9.204  72.817 116.862  0.00  0.00     0.109 C 
ATOM     16  O   LIG d   1      -8.133  73.750 118.806  0.00  0.00    -0.276 OA
ATOM     17  H   LIG d   1      -9.416  75.282 116.359  0.00  0.00     0.149 HD
ENDBRANCH   6  13
BRANCH   5  18
ATOM     18  N   LIG d   1     -10.802  77.150 118.637  0.00  0.00     0.381 N 
ATOM     19  H   LIG d   1     -10.903  76.154 118.635  0.00  0.00    -0.090 HD
ATOM     20  H   LIG d   1     -11.608  77.549 118.190  0.00  0.00    -0.090 HD
ATOM     21  H   LIG d   1     -10.735  77.481 119.574  0.00  0.00    -0.090 HD
ENDBRANCH   5  18
BRANCH   3  22
ATOM     22  C   LIG d   1      -7.521  80.566 117.932  0.00  0.00     0.382 C 
ATOM     23  O   LIG d   1      -6.693  81.040 118.746  0.00  0.00    -0.241 OA
ATOM     24  O   LIG d   1      -8.103  81.327 117.136  0.00  0.00    -0.241 OA
ENDBRANCH   3  22
TORSDOF 7
ENDMDL
MODEL 9
REMARK VINA RESULT:      -5.1      2.455      3.286
REMARK  7 active torsions:
REMARK  status: ('A' for Active; 'I' for Inactive)
REMARK    1  A    between atoms: C_2  and  C_3 
REMARK    2  A    between atoms: C_3  and  O_6 
REMARK    3  A    between atoms: C_3  and  C_4 
REMARK    4  A    between atoms: C_7  and  O_6 
REMARK    5  A    between atoms: C_9  and  C_10 
REMARK    6  A    between atoms: N_15  and  C_14 
REMARK    7  A    between atoms: N_20  and  C_19 
REMARK       I    between atoms: C_22  and  N_20 
ROOT
ATOM      1  C   LIG d   1      -5.528  74.971 117.197  0.00  0.00     0.161 C 
ATOM      2  C   LIG d   1      -4.414  74.303 116.663  0.00  0.00     0.016 C 
ATOM      3  C   LIG d   1      -3.079  74.628 116.996  0.00  0.00     0.038 C 
ATOM      4  C   LIG d   1      -2.770  75.549 118.008  0.00  0.00     0.028 C 
ATOM      5  C   LIG d   1      -3.849  76.607 118.213  0.00  0.00    -0.047 C 
ATOM      6  C   LIG d   1      -5.215  75.904 118.385  0.00  0.00     0.091 C 
ENDROOT
BRANCH   1   7
ATOM      7  O   LIG d   1      -6.542  74.015 117.564  0.00  0.00    -0.368 OA
BRANCH   7   8
ATOM      8  C   LIG d   1      -7.675  73.911 116.668  0.00  0.00     0.119 C 
BRANCH   8   9
ATOM      9  C   LIG d   1      -8.880  74.571 117.366  0.00  0.00     0.028 C 
ATOM     10  C   LIG d   1      -9.051  74.093 118.818  0.00  0.00     0.006 C 
ENDBRANCH   8   9
BRANCH   8  11
ATOM     11  C   LIG d   1      -8.082  72.450 116.452  0.00  0.00     0.028 C 
ATOM     12  C   LIG d   1      -6.876  71.502 116.364  0.00  0.00     0.006 C 
ENDBRANCH   8  11
ENDBRANCH   7   8
ENDBRANCH   1   7
BRANCH   6  13
ATOM     13  N   LIG d   1      -6.338  76.870 118.507  0.00  0.00    -0.311 N 
ATOM     14  C   LIG d   1      -6.678  77.724 117.544  0.00  0.00     0.210 C 
ATOM     15  C   LIG d   1      -7.853  78.647 117.883  0.00  0.00     0.109 C 
ATOM     16  O   LIG d   1      -6.139  77.784 116.429  0.00  0.00    -0.276 OA
ATOM     17  H   LIG d   1      -6.850  76.868 119.368  0.00  0.00     0.149 HD
ENDBRANCH   6  13
BRANCH   5  18
ATOM     18  N   LIG d   1      -3.463  77.416 119.385  0.00  0.00     0.381 N 
ATOM     19  H   LIG d   1      -3.164  76.815 120.127  0.00  0.00    -0.090 HD
ATOM     20  H   LIG d   1      -4.264  77.933 119.701  0.00  0.00    -0.090 HD
ATOM     21  H   LIG d   1      -2.729  78.043 119.140  0.00  0.00    -0.090 HD
ENDBRANCH   5  18
BRANCH   3  22
ATOM     22  C   LIG d   1      -2.035  74.056 116.285  0.00  0.00     0.382 C 
ATOM     23  O   LIG d   1      -1.237  73.276 116.861  0.00  0.00    -0.241 OA
ATOM     24  O   LIG d   1      -1.854  74.344 115.087  0.00  0.00    -0.241 OA
ENDBRANCH   3  22
TORSDOF 7
ENDMDL
