MODEL 1
REMARK VINA RESULT:      -5.6      0.000      0.000
REMARK  7 active torsions:
REMARK  status: ('A' for Active; 'I' for Inactive)
REMARK    1  A    between atoms: C_2  and  C_3 
REMARK    2  A    between atoms: C_3  and  O_6 
REMARK    3  A    between atoms: C_3  and  C_4 
REMARK    4  A    between atoms: C_7  and  O_6 
REMARK    5  A    between atoms: C_9  and  C_10 
REMARK    6  A    between atoms: N_15  and  C_14 
REMARK    7  A    between atoms: N_20  and  C_19 
REMARK       I    between atoms: C_22  and  N_20 
ROOT
ATOM      1  C   LIG d   1      -1.012  58.121 118.755  0.00  0.00     0.161 C 
ATOM      2  C   LIG d   1      -1.985  58.058 117.745  0.00  0.00     0.016 C 
ATOM      3  C   LIG d   1      -1.679  57.847 116.381  0.00  0.00     0.038 C 
ATOM      4  C   LIG d   1      -0.381  57.531 115.953  0.00  0.00     0.028 C 
ATOM      5  C   LIG d   1       0.709  58.082 116.866  0.00  0.00    -0.047 C 
ATOM      6  C   LIG d   1       0.399  57.668 118.323  0.00  0.00     0.091 C 
ENDROOT
BRANCH   1   7
ATOM      7  O   LIG d   1      -1.450  57.368 119.903  0.00  0.00    -0.368 OA
BRANCH   7   8
ATOM      8  C   LIG d   1      -1.876  58.144 121.050  0.00  0.00     0.119 C 
BRANCH   8   9
ATOM      9  C   LIG d   1      -3.417  58.133 121.069  0.00  0.00     0.028 C 
ATOM     10  C   LIG d   1      -3.985  57.697 122.430  0.00  0.00     0.006 C 
ENDBRANCH   8   9
BRANCH   8  11
ATOM     11  C   LIG d   1      -1.483  59.617 120.904  0.00  0.00     0.028 C 
ATOM     12  C   LIG d   1      -0.432  60.058 121.935  0.00  0.00     0.006 C 
ENDBRANCH   8  11
ENDBRANCH   7   8
ENDBRANCH   1   7
BRANCH   6  13
ATOM     13  N   LIG d   1       1.371  58.237 119.293  0.00  0.00    -0.311 N 
ATOM     14  C   LIG d   1       2.466  57.595 119.695  0.00  0.00     0.210 C 
ATOM     15  C   LIG d   1       3.322  58.353 120.715  0.00  0.00     0.109 C 
ATOM     16  O   LIG d   1       2.828  56.484 119.280  0.00  0.00    -0.276 OA
ATOM     17  H   LIG d   1       1.172  59.148 119.657  0.00  0.00     0.149 HD
ENDBRANCH   6  13
BRANCH   5  18
ATOM     18  N   LIG d   1       2.002  57.564 116.381  0.00  0.00     0.381 N 
ATOM     19  H   LIG d   1       2.365  58.170 115.672  0.00  0.00    -0.090 HD
ATOM     20  H   LIG d   1       1.856  56.656 115.975  0.00  0.00    -0.090 HD
ATOM     21  H   LIG d   1       2.648  57.499 117.136  0.00  0.00    -0.090 HD
ENDBRANCH   5  18
BRANCH   3  22
ATOM     22  C   LIG d   1      -2.672  57.990 115.423  0.00  0.00     0.382 C 
ATOM     23  O   LIG d   1      -3.860  57.702 115.704  0.00  0.00    -0.241 OA
ATOM     24  O   LIG d   1      -2.387  58.362 114.269  0.00  0.00    -0.241 OA
ENDBRANCH   3  22
TORSDOF 7
ENDMDL
MODEL 2
REMARK VINA RESULT:      -5.5     33.779     35.155
REMARK  7 active torsions:
REMARK  status: ('A' for Active; 'I' for Inactive)
REMARK    1  A    between atoms: C_2  and  C_3 
REMARK    2  A    between atoms: C_3  and  O_6 
REMARK    3  A    between atoms: C_3  and  C_4 
REMARK    4  A    between atoms: C_7  and  O_6 
REMARK    5  A    between atoms: C_9  and  C_10 
REMARK    6  A    between atoms: N_15  and  C_14 
REMARK    7  A    between atoms: N_20  and  C_19 
REMARK       I    between atoms: C_22  and  N_20 
ROOT
ATOM      1  C   LIG d   1      -4.812  92.526 117.609  0.00  0.00     0.161 C 
ATOM      2  C   LIG d   1      -5.138  91.716 116.508  0.00  0.00     0.016 C 
ATOM      3  C   LIG d   1      -6.243  91.963 115.661  0.00  0.00     0.038 C 
ATOM      4  C   LIG d   1      -7.014  93.130 115.768  0.00  0.00     0.028 C 
ATOM      5  C   LIG d   1      -7.031  93.717 117.175  0.00  0.00    -0.047 C 
ATOM      6  C   LIG d   1      -5.576  93.865 117.675  0.00  0.00     0.091 C 
ENDROOT
BRANCH   1   7
ATOM      7  O   LIG d   1      -3.390  92.758 117.641  0.00  0.00    -0.368 OA
BRANCH   7   8
ATOM      8  C   LIG d   1      -2.649  92.034 118.654  0.00  0.00     0.119 C 
BRANCH   8   9
ATOM      9  C   LIG d   1      -1.905  90.883 117.950  0.00  0.00     0.028 C 
ATOM     10  C   LIG d   1      -0.477  91.275 117.534  0.00  0.00     0.006 C 
ENDBRANCH   8   9
BRANCH   8  11
ATOM     11  C   LIG d   1      -3.590  91.357 119.655  0.00  0.00     0.028 C 
ATOM     12  C   LIG d   1      -3.363  89.840 119.753  0.00  0.00     0.006 C 
ENDBRANCH   8  11
ENDBRANCH   7   8
ENDBRANCH   1   7
BRANCH   6  13
ATOM     13  N   LIG d   1      -5.505  94.354 119.077  0.00  0.00    -0.311 N 
ATOM     14  C   LIG d   1      -4.627  95.266 119.492  0.00  0.00     0.210 C 
ATOM     15  C   LIG d   1      -4.712  95.615 120.981  0.00  0.00     0.109 C 
ATOM     16  O   LIG d   1      -3.808  95.843 118.761  0.00  0.00    -0.276 OA
ATOM     17  H   LIG d   1      -6.154  93.962 119.730  0.00  0.00     0.149 HD
ENDBRANCH   6  13
BRANCH   5  18
ATOM     18  N   LIG d   1      -7.755  95.001 117.114  0.00  0.00     0.381 N 
ATOM     19  H   LIG d   1      -8.464  94.956 116.410  0.00  0.00    -0.090 HD
ATOM     20  H   LIG d   1      -7.107  95.727 116.863  0.00  0.00    -0.090 HD
ATOM     21  H   LIG d   1      -8.166  95.203 117.998  0.00  0.00    -0.090 HD
ENDBRANCH   5  18
BRANCH   3  22
ATOM     22  C   LIG d   1      -6.610  91.015 114.717  0.00  0.00     0.382 C 
ATOM     23  O   LIG d   1      -6.130  89.857 114.772  0.00  0.00    -0.241 OA
ATOM     24  O   LIG d   1      -7.382  91.316 113.787  0.00  0.00    -0.241 OA
ENDBRANCH   3  22
TORSDOF 7
ENDMDL
MODEL 3
REMARK VINA RESULT:      -5.3     17.384     18.303
REMARK  7 active torsions:
REMARK  status: ('A' for Active; 'I' for Inactive)
REMARK    1  A    between atoms: C_2  and  C_3 
REMARK    2  A    between atoms: C_3  and  O_6 
REMARK    3  A    between atoms: C_3  and  C_4 
REMARK    4  A    between atoms: C_7  and  O_6 
REMARK    5  A    between atoms: C_9  and  C_10 
REMARK    6  A    between atoms: N_15  and  C_14 
REMARK    7  A    between atoms: N_20  and  C_19 
REMARK       I    between atoms: C_22  and  N_20 
ROOT
ATOM      1  C   LIG d   1      -3.841  75.845 115.730  0.00  0.00     0.161 C 
ATOM      2  C   LIG d   1      -4.035  76.741 114.666  0.00  0.00     0.016 C 
ATOM      3  C   LIG d   1      -2.973  77.329 113.941  0.00  0.00     0.038 C 
ATOM      4  C   LIG d   1      -1.639  76.942 114.134  0.00  0.00     0.028 C 
ATOM      5  C   LIG d   1      -1.358  76.417 115.539  0.00  0.00    -0.047 C 
ATOM      6  C   LIG d   1      -2.396  75.325 115.883  0.00  0.00     0.091 C 
ENDROOT
BRANCH   1   7
ATOM      7  O   LIG d   1      -4.761  74.742 115.614  0.00  0.00    -0.368 OA
BRANCH   7   8
ATOM      8  C   LIG d   1      -5.971  74.834 116.406  0.00  0.00     0.119 C 
BRANCH   8   9
ATOM      9  C   LIG d   1      -6.454  73.397 116.682  0.00  0.00     0.028 C 
ATOM     10  C   LIG d   1      -5.949  72.857 118.030  0.00  0.00     0.006 C 
ENDBRANCH   8   9
BRANCH   8  11
ATOM     11  C   LIG d   1      -7.103  75.498 115.617  0.00  0.00     0.028 C 
ATOM     12  C   LIG d   1      -8.411  75.594 116.420  0.00  0.00     0.006 C 
ENDBRANCH   8  11
ENDBRANCH   7   8
ENDBRANCH   1   7
BRANCH   6  13
ATOM     13  N   LIG d   1      -2.245  74.818 117.272  0.00  0.00    -0.311 N 
ATOM     14  C   LIG d   1      -1.568  73.713 117.579  0.00  0.00     0.210 C 
ATOM     15  C   LIG d   1      -1.553  73.357 119.069  0.00  0.00     0.109 C 
ATOM     16  O   LIG d   1      -0.951  73.012 116.763  0.00  0.00    -0.276 OA
ATOM     17  H   LIG d   1      -2.688  75.343 118.000  0.00  0.00     0.149 HD
ENDBRANCH   6  13
BRANCH   5  18
ATOM     18  N   LIG d   1       0.031  75.922 115.560  0.00  0.00     0.381 N 
ATOM     19  H   LIG d   1       0.652  76.641 115.246  0.00  0.00    -0.090 HD
ATOM     20  H   LIG d   1       0.108  75.142 114.931  0.00  0.00    -0.090 HD
ATOM     21  H   LIG d   1       0.278  75.639 116.483  0.00  0.00    -0.090 HD
ENDBRANCH   5  18
BRANCH   3  22
ATOM     22  C   LIG d   1      -3.239  78.347 113.037  0.00  0.00     0.382 C 
ATOM     23  O   LIG d   1      -2.987  79.537 113.341  0.00  0.00    -0.241 OA
ATOM     24  O   LIG d   1      -3.768  78.093 111.938  0.00  0.00    -0.241 OA
ENDBRANCH   3  22
TORSDOF 7
ENDMDL
MODEL 4
REMARK VINA RESULT:      -5.2      1.866      4.859
REMARK  7 active torsions:
REMARK  status: ('A' for Active; 'I' for Inactive)
REMARK    1  A    between atoms: C_2  and  C_3 
REMARK    2  A    between atoms: C_3  and  O_6 
REMARK    3  A    between atoms: C_3  and  C_4 
REMARK    4  A    between atoms: C_7  and  O_6 
REMARK    5  A    between atoms: C_9  and  C_10 
REMARK    6  A    between atoms: N_15  and  C_14 
REMARK    7  A    between atoms: N_20  and  C_19 
REMARK       I    between atoms: C_22  and  N_20 
ROOT
ATOM      1  C   LIG d   1      -0.148  56.864 118.629  0.00  0.00     0.161 C 
ATOM      2  C   LIG d   1       1.192  56.621 118.974  0.00  0.00     0.016 C 
ATOM      3  C   LIG d   1       2.287  57.024 118.176  0.00  0.00     0.038 C 
ATOM      4  C   LIG d   1       2.120  57.836 117.044  0.00  0.00     0.028 C 
ATOM      5  C   LIG d   1       0.755  57.679 116.382  0.00  0.00    -0.047 C 
ATOM      6  C   LIG d   1      -0.345  57.846 117.454  0.00  0.00     0.091 C 
ENDROOT
BRANCH   1   7
ATOM      7  O   LIG d   1      -0.877  57.317 119.787  0.00  0.00    -0.368 OA
BRANCH   7   8
ATOM      8  C   LIG d   1      -0.551  58.644 120.267  0.00  0.00     0.119 C 
BRANCH   8   9
ATOM      9  C   LIG d   1       0.089  58.489 121.660  0.00  0.00     0.028 C 
ATOM     10  C   LIG d   1       1.508  59.079 121.723  0.00  0.00     0.006 C 
ENDBRANCH   8   9
BRANCH   8  11
ATOM     11  C   LIG d   1      -1.814  59.481 120.492  0.00  0.00     0.028 C 
ATOM     12  C   LIG d   1      -3.093  58.630 120.531  0.00  0.00     0.006 C 
ENDBRANCH   8  11
ENDBRANCH   7   8
ENDBRANCH   1   7
BRANCH   6  13
ATOM     13  N   LIG d   1      -1.709  57.624 116.907  0.00  0.00    -0.311 N 
ATOM     14  C   LIG d   1      -2.641  58.573 116.854  0.00  0.00     0.210 C 
ATOM     15  C   LIG d   1      -3.986  58.128 116.270  0.00  0.00     0.109 C 
ATOM     16  O   LIG d   1      -2.472  59.751 117.204  0.00  0.00    -0.276 OA
ATOM     17  H   LIG d   1      -1.921  56.705 116.571  0.00  0.00     0.149 HD
ENDBRANCH   6  13
BRANCH   5  18
ATOM     18  N   LIG d   1       0.666  58.680 115.302  0.00  0.00     0.381 N 
ATOM     19  H   LIG d   1       0.297  58.254 114.475  0.00  0.00    -0.090 HD
ATOM     20  H   LIG d   1       1.590  59.019 115.096  0.00  0.00    -0.090 HD
ATOM     21  H   LIG d   1       0.082  59.435 115.584  0.00  0.00    -0.090 HD
ENDBRANCH   5  18
BRANCH   3  22
ATOM     22  C   LIG d   1       3.563  56.580 118.485  0.00  0.00     0.382 C 
ATOM     23  O   LIG d   1       4.553  57.029 117.858  0.00  0.00    -0.241 OA
ATOM     24  O   LIG d   1       3.734  55.702 119.353  0.00  0.00    -0.241 OA
ENDBRANCH   3  22
TORSDOF 7
ENDMDL
MODEL 5
REMARK VINA RESULT:      -5.1     16.410     17.686
REMARK  7 active torsions:
REMARK  status: ('A' for Active; 'I' for Inactive)
REMARK    1  A    between atoms: C_2  and  C_3 
REMARK    2  A    between atoms: C_3  and  O_6 
REMARK    3  A    between atoms: C_3  and  C_4 
REMARK    4  A    between atoms: C_7  and  O_6 
REMARK    5  A    between atoms: C_9  and  C_10 
REMARK    6  A    between atoms: N_15  and  C_14 
REMARK    7  A    between atoms: N_20  and  C_19 
REMARK       I    between atoms: C_22  and  N_20 
ROOT
ATOM      1  C   LIG d   1      -4.361  74.733 117.885  0.00  0.00     0.161 C 
ATOM      2  C   LIG d   1      -4.844  73.415 117.827  0.00  0.00     0.016 C 
ATOM      3  C   LIG d   1      -5.814  72.983 116.894  0.00  0.00     0.038 C 
ATOM      4  C   LIG d   1      -6.260  73.808 115.851  0.00  0.00     0.028 C 
ATOM      5  C   LIG d   1      -6.177  75.295 116.178  0.00  0.00    -0.047 C 
ATOM      6  C   LIG d   1      -4.753  75.619 116.685  0.00  0.00     0.091 C 
ENDROOT
BRANCH   1   7
ATOM      7  O   LIG d   1      -2.930  74.722 118.054  0.00  0.00    -0.368 OA
BRANCH   7   8
ATOM      8  C   LIG d   1      -2.231  73.581 117.498  0.00  0.00     0.119 C 
BRANCH   8   9
ATOM      9  C   LIG d   1      -1.153  73.158 118.514  0.00  0.00     0.028 C 
ATOM     10  C   LIG d   1      -1.190  74.007 119.796  0.00  0.00     0.006 C 
ENDBRANCH   8   9
BRANCH   8  11
ATOM     11  C   LIG d   1      -1.465  73.961 116.228  0.00  0.00     0.028 C 
ATOM     12  C   LIG d   1      -1.059  75.443 116.198  0.00  0.00     0.006 C 
ENDBRANCH   8  11
ENDBRANCH   7   8
ENDBRANCH   1   7
BRANCH   6  13
ATOM     13  N   LIG d   1      -4.611  77.037 117.107  0.00  0.00    -0.311 N 
ATOM     14  C   LIG d   1      -4.229  78.012 116.283  0.00  0.00     0.210 C 
ATOM     15  C   LIG d   1      -4.127  79.399 116.927  0.00  0.00     0.109 C 
ATOM     16  O   LIG d   1      -3.997  77.866 115.074  0.00  0.00    -0.276 OA
ATOM     17  H   LIG d   1      -4.810  77.250 118.064  0.00  0.00     0.149 HD
ENDBRANCH   6  13
BRANCH   5  18
ATOM     18  N   LIG d   1      -6.540  76.041 114.958  0.00  0.00     0.381 N 
ATOM     19  H   LIG d   1      -5.743  76.117 114.358  0.00  0.00    -0.090 HD
ATOM     20  H   LIG d   1      -6.830  76.967 115.217  0.00  0.00    -0.090 HD
ATOM     21  H   LIG d   1      -7.281  75.574 114.481  0.00  0.00    -0.090 HD
ENDBRANCH   5  18
BRANCH   3  22
ATOM     22  C   LIG d   1      -6.379  71.723 117.024  0.00  0.00     0.382 C 
ATOM     23  O   LIG d   1      -6.749  71.094 116.004  0.00  0.00    -0.241 OA
ATOM     24  O   LIG d   1      -6.563  71.226 118.151  0.00  0.00    -0.241 OA
ENDBRANCH   3  22
TORSDOF 7
ENDMDL
MODEL 6
REMARK VINA RESULT:      -5.0     21.777     23.172
REMARK  7 active torsions:
REMARK  status: ('A' for Active; 'I' for Inactive)
REMARK    1  A    between atoms: C_2  and  C_3 
REMARK    2  A    between atoms: C_3  and  O_6 
REMARK    3  A    between atoms: C_3  and  C_4 
REMARK    4  A    between atoms: C_7  and  O_6 
REMARK    5  A    between atoms: C_9  and  C_10 
REMARK    6  A    between atoms: N_15  and  C_14 
REMARK    7  A    between atoms: N_20  and  C_19 
REMARK       I    between atoms: C_22  and  N_20 
ROOT
ATOM      1  C   LIG d   1      -6.693  79.421 117.991  0.00  0.00     0.161 C 
ATOM      2  C   LIG d   1      -7.992  78.978 118.290  0.00  0.00     0.016 C 
ATOM      3  C   LIG d   1      -9.032  79.840 118.707  0.00  0.00     0.038 C 
ATOM      4  C   LIG d   1      -8.883  81.235 118.709  0.00  0.00     0.028 C 
ATOM      5  C   LIG d   1      -7.440  81.689 118.901  0.00  0.00    -0.047 C 
ATOM      6  C   LIG d   1      -6.542  80.953 117.880  0.00  0.00     0.091 C 
ENDROOT
BRANCH   1   7
ATOM      7  O   LIG d   1      -6.224  78.783 116.787  0.00  0.00    -0.368 OA
BRANCH   7   8
ATOM      8  C   LIG d   1      -5.904  77.374 116.895  0.00  0.00     0.119 C 
BRANCH   8   9
ATOM      9  C   LIG d   1      -4.390  77.222 116.651  0.00  0.00     0.028 C 
ATOM     10  C   LIG d   1      -3.754  78.508 116.095  0.00  0.00     0.006 C 
ENDBRANCH   8   9
BRANCH   8  11
ATOM     11  C   LIG d   1      -6.578  76.563 115.784  0.00  0.00     0.028 C 
ATOM     12  C   LIG d   1      -7.854  75.849 116.257  0.00  0.00     0.006 C 
ENDBRANCH   8  11
ENDBRANCH   7   8
ENDBRANCH   1   7
BRANCH   6  13
ATOM     13  N   LIG d   1      -5.102  81.276 118.054  0.00  0.00    -0.311 N 
ATOM     14  C   LIG d   1      -4.469  82.209 117.344  0.00  0.00     0.210 C 
ATOM     15  C   LIG d   1      -2.980  82.369 117.669  0.00  0.00     0.109 C 
ATOM     16  O   LIG d   1      -5.006  82.940 116.500  0.00  0.00    -0.276 OA
ATOM     17  H   LIG d   1      -4.596  80.752 118.741  0.00  0.00     0.149 HD
ENDBRANCH   6  13
BRANCH   5  18
ATOM     18  N   LIG d   1      -7.410  83.156 118.744  0.00  0.00     0.381 N 
ATOM     19  H   LIG d   1      -8.308  83.538 118.961  0.00  0.00    -0.090 HD
ATOM     20  H   LIG d   1      -7.196  83.376 117.787  0.00  0.00    -0.090 HD
ATOM     21  H   LIG d   1      -6.719  83.549 119.346  0.00  0.00    -0.090 HD
ENDBRANCH   5  18
BRANCH   3  22
ATOM     22  C   LIG d   1     -10.226  79.305 119.167  0.00  0.00     0.382 C 
ATOM     23  O   LIG d   1     -10.878  79.901 120.058  0.00  0.00    -0.241 OA
ATOM     24  O   LIG d   1     -10.636  78.211 118.735  0.00  0.00    -0.241 OA
ENDBRANCH   3  22
TORSDOF 7
ENDMDL
MODEL 7
REMARK VINA RESULT:      -4.9     16.231     17.560
REMARK  7 active torsions:
REMARK  status: ('A' for Active; 'I' for Inactive)
REMARK    1  A    between atoms: C_2  and  C_3 
REMARK    2  A    between atoms: C_3  and  O_6 
REMARK    3  A    between atoms: C_3  and  C_4 
REMARK    4  A    between atoms: C_7  and  O_6 
REMARK    5  A    between atoms: C_9  and  C_10 
REMARK    6  A    between atoms: N_15  and  C_14 
REMARK    7  A    between atoms: N_20  and  C_19 
REMARK       I    between atoms: C_22  and  N_20 
ROOT
ATOM      1  C   LIG d   1      -4.851  73.630 116.708  0.00  0.00     0.161 C 
ATOM      2  C   LIG d   1      -4.166  74.572 115.923  0.00  0.00     0.016 C 
ATOM      3  C   LIG d   1      -4.787  75.701 115.343  0.00  0.00     0.038 C 
ATOM      4  C   LIG d   1      -6.114  76.049 115.635  0.00  0.00     0.028 C 
ATOM      5  C   LIG d   1      -6.984  74.855 116.015  0.00  0.00    -0.047 C 
ATOM      6  C   LIG d   1      -6.274  74.052 117.129  0.00  0.00     0.091 C 
ENDROOT
BRANCH   1   7
ATOM      7  O   LIG d   1      -4.064  73.294 117.867  0.00  0.00    -0.368 OA
BRANCH   7   8
ATOM      8  C   LIG d   1      -2.927  74.151 118.135  0.00  0.00     0.119 C 
BRANCH   8   9
ATOM      9  C   LIG d   1      -1.725  73.239 118.453  0.00  0.00     0.028 C 
ATOM     10  C   LIG d   1      -0.405  74.021 118.552  0.00  0.00     0.006 C 
ENDBRANCH   8   9
BRANCH   8  11
ATOM     11  C   LIG d   1      -3.145  74.988 119.398  0.00  0.00     0.028 C 
ATOM     12  C   LIG d   1      -3.898  76.299 119.121  0.00  0.00     0.006 C 
ENDBRANCH   8  11
ENDBRANCH   7   8
ENDBRANCH   1   7
BRANCH   6  13
ATOM     13  N   LIG d   1      -7.018  72.820 117.501  0.00  0.00    -0.311 N 
ATOM     14  C   LIG d   1      -7.016  71.712 116.762  0.00  0.00     0.210 C 
ATOM     15  C   LIG d   1      -7.865  70.563 117.317  0.00  0.00     0.109 C 
ATOM     16  O   LIG d   1      -6.367  71.560 115.716  0.00  0.00    -0.276 OA
ATOM     17  H   LIG d   1      -7.546  72.845 118.350  0.00  0.00     0.149 HD
ENDBRANCH   6  13
BRANCH   5  18
ATOM     18  N   LIG d   1      -8.301  75.376 116.427  0.00  0.00     0.381 N 
ATOM     19  H   LIG d   1      -8.235  75.780 117.340  0.00  0.00    -0.090 HD
ATOM     20  H   LIG d   1      -8.954  74.614 116.465  0.00  0.00    -0.090 HD
ATOM     21  H   LIG d   1      -8.616  76.061 115.775  0.00  0.00    -0.090 HD
ENDBRANCH   5  18
BRANCH   3  22
ATOM     22  C   LIG d   1      -4.090  76.475 114.427  0.00  0.00     0.382 C 
ATOM     23  O   LIG d   1      -2.844  76.588 114.522  0.00  0.00    -0.241 OA
ATOM     24  O   LIG d   1      -4.696  77.097 113.534  0.00  0.00    -0.241 OA
ENDBRANCH   3  22
TORSDOF 7
ENDMDL
MODEL 8
REMARK VINA RESULT:      -4.9     22.778     24.047
REMARK  7 active torsions:
REMARK  status: ('A' for Active; 'I' for Inactive)
REMARK    1  A    between atoms: C_2  and  C_3 
REMARK    2  A    between atoms: C_3  and  O_6 
REMARK    3  A    between atoms: C_3  and  C_4 
REMARK    4  A    between atoms: C_7  and  O_6 
REMARK    5  A    between atoms: C_9  and  C_10 
REMARK    6  A    between atoms: N_15  and  C_14 
REMARK    7  A    between atoms: N_20  and  C_19 
REMARK       I    between atoms: C_22  and  N_20 
ROOT
ATOM      1  C   LIG d   1       9.751  79.347 115.618  0.00  0.00     0.161 C 
ATOM      2  C   LIG d   1      10.873  79.598 114.810  0.00  0.00     0.016 C 
ATOM      3  C   LIG d   1      11.394  78.659 113.890  0.00  0.00     0.038 C 
ATOM      4  C   LIG d   1      10.734  77.455 113.605  0.00  0.00     0.028 C 
ATOM      5  C   LIG d   1       9.880  76.944 114.760  0.00  0.00    -0.047 C 
ATOM      6  C   LIG d   1       8.952  78.082 115.240  0.00  0.00     0.091 C 
ENDROOT
BRANCH   1   7
ATOM      7  O   LIG d   1       8.887  80.501 115.626  0.00  0.00    -0.368 OA
BRANCH   7   8
ATOM      8  C   LIG d   1       9.319  81.614 116.448  0.00  0.00     0.119 C 
BRANCH   8   9
ATOM      9  C   LIG d   1       8.659  81.452 117.831  0.00  0.00     0.028 C 
ATOM     10  C   LIG d   1       9.688  81.192 118.945  0.00  0.00     0.006 C 
ENDBRANCH   8   9
BRANCH   8  11
ATOM     11  C   LIG d   1       8.795  82.946 115.902  0.00  0.00     0.028 C 
ATOM     12  C   LIG d   1       7.678  83.547 116.771  0.00  0.00     0.006 C 
ENDBRANCH   8  11
ENDBRANCH   7   8
ENDBRANCH   1   7
BRANCH   6  13
ATOM     13  N   LIG d   1       8.142  77.692 116.424  0.00  0.00    -0.311 N 
ATOM     14  C   LIG d   1       6.907  77.199 116.337  0.00  0.00     0.210 C 
ATOM     15  C   LIG d   1       6.242  76.881 117.680  0.00  0.00     0.109 C 
ATOM     16  O   LIG d   1       6.312  76.965 115.274  0.00  0.00    -0.276 OA
ATOM     17  H   LIG d   1       8.559  77.820 117.324  0.00  0.00     0.149 HD
ENDBRANCH   6  13
BRANCH   5  18
ATOM     18  N   LIG d   1       9.143  75.760 114.279  0.00  0.00     0.381 N 
ATOM     19  H   LIG d   1       9.396  75.565 113.331  0.00  0.00    -0.090 HD
ATOM     20  H   LIG d   1       8.158  75.957 114.309  0.00  0.00    -0.090 HD
ATOM     21  H   LIG d   1       9.349  74.973 114.854  0.00  0.00    -0.090 HD
ENDBRANCH   5  18
BRANCH   3  22
ATOM     22  C   LIG d   1      12.612  78.905 113.274  0.00  0.00     0.382 C 
ATOM     23  O   LIG d   1      13.682  78.674 113.885  0.00  0.00    -0.241 OA
ATOM     24  O   LIG d   1      12.653  79.397 112.130  0.00  0.00    -0.241 OA
ENDBRANCH   3  22
TORSDOF 7
ENDMDL
MODEL 9
REMARK VINA RESULT:      -4.9      2.322      4.255
REMARK  7 active torsions:
REMARK  status: ('A' for Active; 'I' for Inactive)
REMARK    1  A    between atoms: C_2  and  C_3 
REMARK    2  A    between atoms: C_3  and  O_6 
REMARK    3  A    between atoms: C_3  and  C_4 
REMARK    4  A    between atoms: C_7  and  O_6 
REMARK    5  A    between atoms: C_9  and  C_10 
REMARK    6  A    between atoms: N_15  and  C_14 
REMARK    7  A    between atoms: N_20  and  C_19 
REMARK       I    between atoms: C_22  and  N_20 
ROOT
ATOM      1  C   LIG d   1      -0.387  57.237 118.096  0.00  0.00     0.161 C 
ATOM      2  C   LIG d   1      -1.110  57.434 116.908  0.00  0.00     0.016 C 
ATOM      3  C   LIG d   1      -2.288  58.212 116.835  0.00  0.00     0.038 C 
ATOM      4  C   LIG d   1      -2.742  58.976 117.921  0.00  0.00     0.028 C 
ATOM      5  C   LIG d   1      -2.329  58.408 119.274  0.00  0.00    -0.047 C 
ATOM      6  C   LIG d   1      -0.804  58.152 119.267  0.00  0.00     0.091 C 
ENDROOT
BRANCH   1   7
ATOM      7  O   LIG d   1       1.025  57.369 117.836  0.00  0.00    -0.368 OA
BRANCH   7   8
ATOM      8  C   LIG d   1       1.803  56.150 117.913  0.00  0.00     0.119 C 
BRANCH   8   9
ATOM      9  C   LIG d   1       2.293  55.823 116.488  0.00  0.00     0.028 C 
ATOM     10  C   LIG d   1       1.899  54.405 116.043  0.00  0.00     0.006 C 
ENDBRANCH   8   9
BRANCH   8  11
ATOM     11  C   LIG d   1       0.934  54.958 118.326  0.00  0.00     0.028 C 
ATOM     12  C   LIG d   1       1.334  54.374 119.690  0.00  0.00     0.006 C 
ENDBRANCH   8  11
ENDBRANCH   7   8
ENDBRANCH   1   7
BRANCH   6  13
ATOM     13  N   LIG d   1      -0.329  57.519 120.524  0.00  0.00    -0.311 N 
ATOM     14  C   LIG d   1       0.778  57.894 121.162  0.00  0.00     0.210 C 
ATOM     15  C   LIG d   1       1.096  57.096 122.430  0.00  0.00     0.109 C 
ATOM     16  O   LIG d   1       1.509  58.834 120.816  0.00  0.00    -0.276 OA
ATOM     17  H   LIG d   1      -0.880  56.768 120.893  0.00  0.00     0.149 HD
ENDBRANCH   6  13
BRANCH   5  18
ATOM     18  N   LIG d   1      -2.748  59.373 120.309  0.00  0.00     0.381 N 
ATOM     19  H   LIG d   1      -3.746  59.390 120.372  0.00  0.00    -0.090 HD
ATOM     20  H   LIG d   1      -2.433  60.290 120.044  0.00  0.00    -0.090 HD
ATOM     21  H   LIG d   1      -2.356  59.121 121.189  0.00  0.00    -0.090 HD
ENDBRANCH   5  18
BRANCH   3  22
ATOM     22  C   LIG d   1      -3.048  58.200 115.675  0.00  0.00     0.382 C 
ATOM     23  O   LIG d   1      -4.295  58.077 115.743  0.00  0.00    -0.241 OA
ATOM     24  O   LIG d   1      -2.499  58.266 114.559  0.00  0.00    -0.241 OA
ENDBRANCH   3  22
TORSDOF 7
ENDMDL
