MODEL 1
REMARK VINA RESULT:      -5.5      0.000      0.000
REMARK  7 active torsions:
REMARK  status: ('A' for Active; 'I' for Inactive)
REMARK    1  A    between atoms: C_2  and  C_3 
REMARK    2  A    between atoms: C_3  and  O_6 
REMARK    3  A    between atoms: C_3  and  C_4 
REMARK    4  A    between atoms: C_7  and  O_6 
REMARK    5  A    between atoms: C_9  and  C_10 
REMARK    6  A    between atoms: N_15  and  C_14 
REMARK    7  A    between atoms: N_20  and  C_19 
REMARK       I    between atoms: C_22  and  N_20 
ROOT
ATOM      1  C   LIG d   1      -0.622  59.459 118.166  0.00  0.00     0.161 C 
ATOM      2  C   LIG d   1       0.578  60.117 117.851  0.00  0.00     0.016 C 
ATOM      3  C   LIG d   1       1.767  59.440 117.494  0.00  0.00     0.038 C 
ATOM      4  C   LIG d   1       1.794  58.054 117.278  0.00  0.00     0.028 C 
ATOM      5  C   LIG d   1       0.736  57.296 118.073  0.00  0.00    -0.047 C 
ATOM      6  C   LIG d   1      -0.642  57.953 117.828  0.00  0.00     0.091 C 
ENDROOT
BRANCH   1   7
ATOM      7  O   LIG d   1      -1.728  60.129 117.529  0.00  0.00    -0.368 OA
BRANCH   7   8
ATOM      8  C   LIG d   1      -2.630  60.846 118.408  0.00  0.00     0.119 C 
BRANCH   8   9
ATOM      9  C   LIG d   1      -2.157  60.604 119.855  0.00  0.00     0.028 C 
ATOM     10  C   LIG d   1      -3.252  59.975 120.733  0.00  0.00     0.006 C 
ENDBRANCH   8   9
BRANCH   8  11
ATOM     11  C   LIG d   1      -4.047  60.269 118.343  0.00  0.00     0.028 C 
ATOM     12  C   LIG d   1      -4.339  59.552 117.015  0.00  0.00     0.006 C 
ENDBRANCH   8  11
ENDBRANCH   7   8
ENDBRANCH   1   7
BRANCH   6  13
ATOM     13  N   LIG d   1      -1.721  57.325 118.634  0.00  0.00    -0.311 N 
ATOM     14  C   LIG d   1      -2.635  56.503 118.122  0.00  0.00     0.210 C 
ATOM     15  C   LIG d   1      -3.670  55.982 119.124  0.00  0.00     0.109 C 
ATOM     16  O   LIG d   1      -2.668  56.130 116.940  0.00  0.00    -0.276 OA
ATOM     17  H   LIG d   1      -1.750  57.549 119.610  0.00  0.00     0.149 HD
ENDBRANCH   6  13
BRANCH   5  18
ATOM     18  N   LIG d   1       0.786  55.884 117.650  0.00  0.00     0.381 N 
ATOM     19  H   LIG d   1       0.579  55.290 118.427  0.00  0.00    -0.090 HD
ATOM     20  H   LIG d   1       1.716  55.673 117.331  0.00  0.00    -0.090 HD
ATOM     21  H   LIG d   1       0.132  55.724 116.916  0.00  0.00    -0.090 HD
ENDBRANCH   5  18
BRANCH   3  22
ATOM     22  C   LIG d   1       2.955  60.146 117.387  0.00  0.00     0.382 C 
ATOM     23  O   LIG d   1       3.593  60.460 118.421  0.00  0.00    -0.241 OA
ATOM     24  O   LIG d   1       3.374  60.513 116.273  0.00  0.00    -0.241 OA
ENDBRANCH   3  22
TORSDOF 7
ENDMDL
MODEL 2
REMARK VINA RESULT:      -5.4     18.145     19.676
REMARK  7 active torsions:
REMARK  status: ('A' for Active; 'I' for Inactive)
REMARK    1  A    between atoms: C_2  and  C_3 
REMARK    2  A    between atoms: C_3  and  O_6 
REMARK    3  A    between atoms: C_3  and  C_4 
REMARK    4  A    between atoms: C_7  and  O_6 
REMARK    5  A    between atoms: C_9  and  C_10 
REMARK    6  A    between atoms: N_15  and  C_14 
REMARK    7  A    between atoms: N_20  and  C_19 
REMARK       I    between atoms: C_22  and  N_20 
ROOT
ATOM      1  C   LIG d   1      -3.057  78.374 115.587  0.00  0.00     0.161 C 
ATOM      2  C   LIG d   1      -3.179  79.405 114.642  0.00  0.00     0.016 C 
ATOM      3  C   LIG d   1      -2.447  79.445 113.433  0.00  0.00     0.038 C 
ATOM      4  C   LIG d   1      -1.648  78.370 113.015  0.00  0.00     0.028 C 
ATOM      5  C   LIG d   1      -1.103  77.536 114.170  0.00  0.00    -0.047 C 
ATOM      6  C   LIG d   1      -2.273  77.138 115.097  0.00  0.00     0.091 C 
ENDROOT
BRANCH   1   7
ATOM      7  O   LIG d   1      -4.362  77.985 116.058  0.00  0.00    -0.368 OA
BRANCH   7   8
ATOM      8  C   LIG d   1      -4.683  78.352 117.423  0.00  0.00     0.119 C 
BRANCH   8   9
ATOM      9  C   LIG d   1      -4.668  77.061 118.265  0.00  0.00     0.028 C 
ATOM     10  C   LIG d   1      -3.785  77.187 119.517  0.00  0.00     0.006 C 
ENDBRANCH   8   9
BRANCH   8  11
ATOM     11  C   LIG d   1      -6.111  78.892 117.534  0.00  0.00     0.028 C 
ATOM     12  C   LIG d   1      -6.159  80.420 117.691  0.00  0.00     0.006 C 
ENDBRANCH   8  11
ENDBRANCH   7   8
ENDBRANCH   1   7
BRANCH   6  13
ATOM     13  N   LIG d   1      -1.816  76.390 116.298  0.00  0.00    -0.311 N 
ATOM     14  C   LIG d   1      -1.741  75.061 116.350  0.00  0.00     0.210 C 
ATOM     15  C   LIG d   1      -1.264  74.492 117.689  0.00  0.00     0.109 C 
ATOM     16  O   LIG d   1      -1.994  74.301 115.403  0.00  0.00    -0.276 OA
ATOM     17  H   LIG d   1      -1.561  76.930 117.102  0.00  0.00     0.149 HD
ENDBRANCH   6  13
BRANCH   5  18
ATOM     18  N   LIG d   1      -0.404  76.373 113.589  0.00  0.00     0.381 N 
ATOM     19  H   LIG d   1      -0.876  75.530 113.848  0.00  0.00    -0.090 HD
ATOM     20  H   LIG d   1       0.530  76.338 113.957  0.00  0.00    -0.090 HD
ATOM     21  H   LIG d   1      -0.375  76.454 112.596  0.00  0.00    -0.090 HD
ENDBRANCH   5  18
BRANCH   3  22
ATOM     22  C   LIG d   1      -2.478  80.587 112.647  0.00  0.00     0.382 C 
ATOM     23  O   LIG d   1      -3.510  81.300 112.620  0.00  0.00    -0.241 OA
ATOM     24  O   LIG d   1      -1.505  80.888 111.931  0.00  0.00    -0.241 OA
ENDBRANCH   3  22
TORSDOF 7
ENDMDL
MODEL 3
REMARK VINA RESULT:      -5.4     17.160     18.763
REMARK  7 active torsions:
REMARK  status: ('A' for Active; 'I' for Inactive)
REMARK    1  A    between atoms: C_2  and  C_3 
REMARK    2  A    between atoms: C_3  and  O_6 
REMARK    3  A    between atoms: C_3  and  C_4 
REMARK    4  A    between atoms: C_7  and  O_6 
REMARK    5  A    between atoms: C_9  and  C_10 
REMARK    6  A    between atoms: N_15  and  C_14 
REMARK    7  A    between atoms: N_20  and  C_19 
REMARK       I    between atoms: C_22  and  N_20 
ROOT
ATOM      1  C   LIG d   1      -3.385  77.016 115.343  0.00  0.00     0.161 C 
ATOM      2  C   LIG d   1      -3.461  78.031 114.375  0.00  0.00     0.016 C 
ATOM      3  C   LIG d   1      -2.329  78.708 113.866  0.00  0.00     0.038 C 
ATOM      4  C   LIG d   1      -1.022  78.308 114.182  0.00  0.00     0.028 C 
ATOM      5  C   LIG d   1      -0.910  77.623 115.540  0.00  0.00    -0.047 C 
ATOM      6  C   LIG d   1      -1.960  76.491 115.618  0.00  0.00     0.091 C 
ENDROOT
BRANCH   1   7
ATOM      7  O   LIG d   1      -4.259  75.929 114.981  0.00  0.00    -0.368 OA
BRANCH   7   8
ATOM      8  C   LIG d   1      -5.359  75.667 115.887  0.00  0.00     0.119 C 
BRANCH   8   9
ATOM      9  C   LIG d   1      -6.516  75.083 115.053  0.00  0.00     0.028 C 
ATOM     10  C   LIG d   1      -6.827  75.930 113.807  0.00  0.00     0.006 C 
ENDBRANCH   8   9
BRANCH   8  11
ATOM     11  C   LIG d   1      -5.907  76.965 116.487  0.00  0.00     0.028 C 
ATOM     12  C   LIG d   1      -6.437  76.783 117.918  0.00  0.00     0.006 C 
ENDBRANCH   8  11
ENDBRANCH   7   8
ENDBRANCH   1   7
BRANCH   6  13
ATOM     13  N   LIG d   1      -1.976  75.823 116.946  0.00  0.00    -0.311 N 
ATOM     14  C   LIG d   1      -1.626  74.551 117.131  0.00  0.00     0.210 C 
ATOM     15  C   LIG d   1      -1.733  74.055 118.576  0.00  0.00     0.109 C 
ATOM     16  O   LIG d   1      -1.207  73.796 116.241  0.00  0.00    -0.276 OA
ATOM     17  H   LIG d   1      -2.273  76.372 117.729  0.00  0.00     0.149 HD
ENDBRANCH   6  13
BRANCH   5  18
ATOM     18  N   LIG d   1       0.475  77.137 115.681  0.00  0.00     0.381 N 
ATOM     19  H   LIG d   1       0.671  76.945 116.643  0.00  0.00    -0.090 HD
ATOM     20  H   LIG d   1       1.105  77.854 115.368  0.00  0.00    -0.090 HD
ATOM     21  H   LIG d   1       0.604  76.311 115.138  0.00  0.00    -0.090 HD
ENDBRANCH   5  18
BRANCH   3  22
ATOM     22  C   LIG d   1      -2.500  79.823 113.060  0.00  0.00     0.382 C 
ATOM     23  O   LIG d   1      -3.220  80.773 113.450  0.00  0.00    -0.241 OA
ATOM     24  O   LIG d   1      -1.978  79.872 111.930  0.00  0.00    -0.241 OA
ENDBRANCH   3  22
TORSDOF 7
ENDMDL
MODEL 4
REMARK VINA RESULT:      -5.4      1.821      2.513
REMARK  7 active torsions:
REMARK  status: ('A' for Active; 'I' for Inactive)
REMARK    1  A    between atoms: C_2  and  C_3 
REMARK    2  A    between atoms: C_3  and  O_6 
REMARK    3  A    between atoms: C_3  and  C_4 
REMARK    4  A    between atoms: C_7  and  O_6 
REMARK    5  A    between atoms: C_9  and  C_10 
REMARK    6  A    between atoms: N_15  and  C_14 
REMARK    7  A    between atoms: N_20  and  C_19 
REMARK       I    between atoms: C_22  and  N_20 
ROOT
ATOM      1  C   LIG d   1      -0.358  58.515 118.511  0.00  0.00     0.161 C 
ATOM      2  C   LIG d   1       0.149  59.391 117.537  0.00  0.00     0.016 C 
ATOM      3  C   LIG d   1       1.054  58.991 116.527  0.00  0.00     0.038 C 
ATOM      4  C   LIG d   1       1.398  57.646 116.330  0.00  0.00     0.028 C 
ATOM      5  C   LIG d   1       1.307  56.805 117.599  0.00  0.00    -0.047 C 
ATOM      6  C   LIG d   1      -0.080  57.021 118.245  0.00  0.00     0.091 C 
ENDROOT
BRANCH   1   7
ATOM      7  O   LIG d   1      -1.771  58.739 118.682  0.00  0.00    -0.368 OA
BRANCH   7   8
ATOM      8  C   LIG d   1      -2.637  58.139 117.688  0.00  0.00     0.119 C 
BRANCH   8   9
ATOM      9  C   LIG d   1      -3.229  59.281 116.840  0.00  0.00     0.028 C 
ATOM     10  C   LIG d   1      -4.436  59.950 117.518  0.00  0.00     0.006 C 
ENDBRANCH   8   9
BRANCH   8  11
ATOM     11  C   LIG d   1      -3.840  57.450 118.339  0.00  0.00     0.028 C 
ATOM     12  C   LIG d   1      -3.918  55.951 118.011  0.00  0.00     0.006 C 
ENDBRANCH   8  11
ENDBRANCH   7   8
ENDBRANCH   1   7
BRANCH   6  13
ATOM     13  N   LIG d   1      -0.222  56.300 119.537  0.00  0.00    -0.311 N 
ATOM     14  C   LIG d   1      -0.666  55.048 119.633  0.00  0.00     0.210 C 
ATOM     15  C   LIG d   1      -0.754  54.501 121.061  0.00  0.00     0.109 C 
ATOM     16  O   LIG d   1      -0.966  54.328 118.669  0.00  0.00    -0.276 OA
ATOM     17  H   LIG d   1       0.029  56.799 120.368  0.00  0.00     0.149 HD
ENDBRANCH   6  13
BRANCH   5  18
ATOM     18  N   LIG d   1       1.558  55.401 117.222  0.00  0.00     0.381 N 
ATOM     19  H   LIG d   1       2.272  55.360 116.523  0.00  0.00    -0.090 HD
ATOM     20  H   LIG d   1       0.716  55.013 116.835  0.00  0.00    -0.090 HD
ATOM     21  H   LIG d   1       1.836  54.878 118.023  0.00  0.00    -0.090 HD
ENDBRANCH   5  18
BRANCH   3  22
ATOM     22  C   LIG d   1       1.656  59.949 115.725  0.00  0.00     0.382 C 
ATOM     23  O   LIG d   1       1.133  60.269 114.630  0.00  0.00    -0.241 OA
ATOM     24  O   LIG d   1       2.738  60.466 116.062  0.00  0.00    -0.241 OA
ENDBRANCH   3  22
TORSDOF 7
ENDMDL
MODEL 5
REMARK VINA RESULT:      -5.3     31.344     33.285
REMARK  7 active torsions:
REMARK  status: ('A' for Active; 'I' for Inactive)
REMARK    1  A    between atoms: C_2  and  C_3 
REMARK    2  A    between atoms: C_3  and  O_6 
REMARK    3  A    between atoms: C_3  and  C_4 
REMARK    4  A    between atoms: C_7  and  O_6 
REMARK    5  A    between atoms: C_9  and  C_10 
REMARK    6  A    between atoms: N_15  and  C_14 
REMARK    7  A    between atoms: N_20  and  C_19 
REMARK       I    between atoms: C_22  and  N_20 
ROOT
ATOM      1  C   LIG d   1      -4.574  90.963 117.453  0.00  0.00     0.161 C 
ATOM      2  C   LIG d   1      -5.263  90.609 116.281  0.00  0.00     0.016 C 
ATOM      3  C   LIG d   1      -6.203  91.453 115.645  0.00  0.00     0.038 C 
ATOM      4  C   LIG d   1      -6.407  92.778 116.058  0.00  0.00     0.028 C 
ATOM      5  C   LIG d   1      -6.107  93.005 117.536  0.00  0.00    -0.047 C 
ATOM      6  C   LIG d   1      -4.701  92.447 117.854  0.00  0.00     0.091 C 
ENDROOT
BRANCH   1   7
ATOM      7  O   LIG d   1      -3.186  90.593 117.334  0.00  0.00    -0.368 OA
BRANCH   7   8
ATOM      8  C   LIG d   1      -2.844  89.253 117.769  0.00  0.00     0.119 C 
BRANCH   8   9
ATOM      9  C   LIG d   1      -3.334  89.099 119.222  0.00  0.00     0.028 C 
ATOM     10  C   LIG d   1      -2.334  89.670 120.241  0.00  0.00     0.006 C 
ENDBRANCH   8   9
BRANCH   8  11
ATOM     11  C   LIG d   1      -1.327  89.058 117.829  0.00  0.00     0.028 C 
ATOM     12  C   LIG d   1      -0.878  87.702 117.260  0.00  0.00     0.006 C 
ENDBRANCH   8  11
ENDBRANCH   7   8
ENDBRANCH   1   7
BRANCH   6  13
ATOM     13  N   LIG d   1      -4.363  92.553 119.298  0.00  0.00    -0.311 N 
ATOM     14  C   LIG d   1      -3.752  93.609 119.832  0.00  0.00     0.210 C 
ATOM     15  C   LIG d   1      -3.478  93.505 121.335  0.00  0.00     0.109 C 
ATOM     16  O   LIG d   1      -3.438  94.634 119.209  0.00  0.00    -0.276 OA
ATOM     17  H   LIG d   1      -4.610  91.778 119.882  0.00  0.00     0.149 HD
ENDBRANCH   6  13
BRANCH   5  18
ATOM     18  N   LIG d   1      -6.228  94.452 117.797  0.00  0.00     0.381 N 
ATOM     19  H   LIG d   1      -5.971  94.967 116.979  0.00  0.00    -0.090 HD
ATOM     20  H   LIG d   1      -5.596  94.702 118.538  0.00  0.00    -0.090 HD
ATOM     21  H   LIG d   1      -7.163  94.674 118.059  0.00  0.00    -0.090 HD
ENDBRANCH   5  18
BRANCH   3  22
ATOM     22  C   LIG d   1      -6.979  90.959 114.608  0.00  0.00     0.382 C 
ATOM     23  O   LIG d   1      -7.878  91.674 114.102  0.00  0.00    -0.241 OA
ATOM     24  O   LIG d   1      -6.823  89.792 114.202  0.00  0.00    -0.241 OA
ENDBRANCH   3  22
TORSDOF 7
ENDMDL
MODEL 6
REMARK VINA RESULT:      -5.3     32.351     34.142
REMARK  7 active torsions:
REMARK  status: ('A' for Active; 'I' for Inactive)
REMARK    1  A    between atoms: C_2  and  C_3 
REMARK    2  A    between atoms: C_3  and  O_6 
REMARK    3  A    between atoms: C_3  and  C_4 
REMARK    4  A    between atoms: C_7  and  O_6 
REMARK    5  A    between atoms: C_9  and  C_10 
REMARK    6  A    between atoms: N_15  and  C_14 
REMARK    7  A    between atoms: N_20  and  C_19 
REMARK       I    between atoms: C_22  and  N_20 
ROOT
ATOM      1  C   LIG d   1      -5.465  92.858 117.317  0.00  0.00     0.161 C 
ATOM      2  C   LIG d   1      -6.335  92.506 116.271  0.00  0.00     0.016 C 
ATOM      3  C   LIG d   1      -6.276  91.266 115.595  0.00  0.00     0.038 C 
ATOM      4  C   LIG d   1      -5.435  90.227 116.021  0.00  0.00     0.028 C 
ATOM      5  C   LIG d   1      -4.189  90.718 116.750  0.00  0.00    -0.047 C 
ATOM      6  C   LIG d   1      -4.614  91.695 117.870  0.00  0.00     0.091 C 
ENDROOT
BRANCH   1   7
ATOM      7  O   LIG d   1      -6.208  93.485 118.381  0.00  0.00    -0.368 OA
BRANCH   7   8
ATOM      8  C   LIG d   1      -5.942  94.892 118.601  0.00  0.00     0.119 C 
BRANCH   8   9
ATOM      9  C   LIG d   1      -5.339  95.034 120.012  0.00  0.00     0.028 C 
ATOM     10  C   LIG d   1      -5.760  93.888 120.948  0.00  0.00     0.006 C 
ENDBRANCH   8   9
BRANCH   8  11
ATOM     11  C   LIG d   1      -7.239  95.706 118.630  0.00  0.00     0.028 C 
ATOM     12  C   LIG d   1      -7.997  95.668 117.294  0.00  0.00     0.006 C 
ENDBRANCH   8  11
ENDBRANCH   7   8
ENDBRANCH   1   7
BRANCH   6  13
ATOM     13  N   LIG d   1      -3.450  92.287 118.578  0.00  0.00    -0.311 N 
ATOM     14  C   LIG d   1      -2.951  91.793 119.710  0.00  0.00     0.210 C 
ATOM     15  C   LIG d   1      -1.761  92.568 120.285  0.00  0.00     0.109 C 
ATOM     16  O   LIG d   1      -3.361  90.768 120.275  0.00  0.00    -0.276 OA
ATOM     17  H   LIG d   1      -3.035  93.104 118.172  0.00  0.00     0.149 HD
ENDBRANCH   6  13
BRANCH   5  18
ATOM     18  N   LIG d   1      -3.474  89.532 117.259  0.00  0.00     0.381 N 
ATOM     19  H   LIG d   1      -3.612  89.451 118.246  0.00  0.00    -0.090 HD
ATOM     20  H   LIG d   1      -2.491  89.646 117.086  0.00  0.00    -0.090 HD
ATOM     21  H   LIG d   1      -3.806  88.712 116.801  0.00  0.00    -0.090 HD
ENDBRANCH   5  18
BRANCH   3  22
ATOM     22  C   LIG d   1      -7.037  91.070 114.452  0.00  0.00     0.382 C 
ATOM     23  O   LIG d   1      -7.718  92.014 113.982  0.00  0.00    -0.241 OA
ATOM     24  O   LIG d   1      -7.087  89.949 113.911  0.00  0.00    -0.241 OA
ENDBRANCH   3  22
TORSDOF 7
ENDMDL
MODEL 7
REMARK VINA RESULT:      -5.1     16.240     17.995
REMARK  7 active torsions:
REMARK  status: ('A' for Active; 'I' for Inactive)
REMARK    1  A    between atoms: C_2  and  C_3 
REMARK    2  A    between atoms: C_3  and  O_6 
REMARK    3  A    between atoms: C_3  and  C_4 
REMARK    4  A    between atoms: C_7  and  O_6 
REMARK    5  A    between atoms: C_9  and  C_10 
REMARK    6  A    between atoms: N_15  and  C_14 
REMARK    7  A    between atoms: N_20  and  C_19 
REMARK       I    between atoms: C_22  and  N_20 
ROOT
ATOM      1  C   LIG d   1      -3.495  75.896 116.099  0.00  0.00     0.161 C 
ATOM      2  C   LIG d   1      -3.278  75.333 117.367  0.00  0.00     0.016 C 
ATOM      3  C   LIG d   1      -2.012  75.291 117.994  0.00  0.00     0.038 C 
ATOM      4  C   LIG d   1      -0.896  75.949 117.456  0.00  0.00     0.028 C 
ATOM      5  C   LIG d   1      -0.952  76.096 115.939  0.00  0.00    -0.047 C 
ATOM      6  C   LIG d   1      -2.311  76.718 115.546  0.00  0.00     0.091 C 
ENDROOT
BRANCH   1   7
ATOM      7  O   LIG d   1      -4.694  76.695 116.117  0.00  0.00    -0.368 OA
BRANCH   7   8
ATOM      8  C   LIG d   1      -5.798  76.205 115.317  0.00  0.00     0.119 C 
BRANCH   8   9
ATOM      9  C   LIG d   1      -7.023  76.084 116.245  0.00  0.00     0.028 C 
ATOM     10  C   LIG d   1      -6.847  76.867 117.556  0.00  0.00     0.006 C 
ENDBRANCH   8   9
BRANCH   8  11
ATOM     11  C   LIG d   1      -5.532  74.785 114.809  0.00  0.00     0.028 C 
ATOM     12  C   LIG d   1      -6.261  73.711 115.633  0.00  0.00     0.006 C 
ENDBRANCH   8  11
ENDBRANCH   7   8
ENDBRANCH   1   7
BRANCH   6  13
ATOM     13  N   LIG d   1      -2.483  76.818 114.073  0.00  0.00    -0.311 N 
ATOM     14  C   LIG d   1      -2.836  77.942 113.451  0.00  0.00     0.210 C 
ATOM     15  C   LIG d   1      -2.977  77.823 111.930  0.00  0.00     0.109 C 
ATOM     16  O   LIG d   1      -3.015  79.034 114.011  0.00  0.00    -0.276 OA
ATOM     17  H   LIG d   1      -2.328  75.987 113.538  0.00  0.00     0.149 HD
ENDBRANCH   6  13
BRANCH   5  18
ATOM     18  N   LIG d   1       0.201  76.918 115.528  0.00  0.00     0.381 N 
ATOM     19  H   LIG d   1      -0.118  77.803 115.187  0.00  0.00    -0.090 HD
ATOM     20  H   LIG d   1       0.685  76.450 114.783  0.00  0.00    -0.090 HD
ATOM     21  H   LIG d   1       0.816  77.054 116.300  0.00  0.00    -0.090 HD
ENDBRANCH   5  18
BRANCH   3  22
ATOM     22  C   LIG d   1      -1.843  74.550 119.154  0.00  0.00     0.382 C 
ATOM     23  O   LIG d   1      -1.571  73.327 119.083  0.00  0.00    -0.241 OA
ATOM     24  O   LIG d   1      -2.003  75.078 120.270  0.00  0.00    -0.241 OA
ENDBRANCH   3  22
TORSDOF 7
ENDMDL
MODEL 8
REMARK VINA RESULT:      -5.0     15.835     17.556
REMARK  7 active torsions:
REMARK  status: ('A' for Active; 'I' for Inactive)
REMARK    1  A    between atoms: C_2  and  C_3 
REMARK    2  A    between atoms: C_3  and  O_6 
REMARK    3  A    between atoms: C_3  and  C_4 
REMARK    4  A    between atoms: C_7  and  O_6 
REMARK    5  A    between atoms: C_9  and  C_10 
REMARK    6  A    between atoms: N_15  and  C_14 
REMARK    7  A    between atoms: N_20  and  C_19 
REMARK       I    between atoms: C_22  and  N_20 
ROOT
ATOM      1  C   LIG d   1      -3.692  74.729 115.884  0.00  0.00     0.161 C 
ATOM      2  C   LIG d   1      -2.916  75.726 115.269  0.00  0.00     0.016 C 
ATOM      3  C   LIG d   1      -3.439  76.661 114.347  0.00  0.00     0.038 C 
ATOM      4  C   LIG d   1      -4.815  76.760 114.090  0.00  0.00     0.028 C 
ATOM      5  C   LIG d   1      -5.565  75.449 114.302  0.00  0.00    -0.047 C 
ATOM      6  C   LIG d   1      -5.215  74.891 115.701  0.00  0.00     0.091 C 
ENDROOT
BRANCH   1   7
ATOM      7  O   LIG d   1      -3.361  74.647 117.284  0.00  0.00    -0.368 OA
BRANCH   7   8
ATOM      8  C   LIG d   1      -2.784  75.838 117.874  0.00  0.00     0.119 C 
BRANCH   8   9
ATOM      9  C   LIG d   1      -1.862  75.385 119.022  0.00  0.00     0.028 C 
ATOM     10  C   LIG d   1      -1.679  73.859 119.062  0.00  0.00     0.006 C 
ENDBRANCH   8   9
BRANCH   8  11
ATOM     11  C   LIG d   1      -3.857  76.708 118.535  0.00  0.00     0.028 C 
ATOM     12  C   LIG d   1      -3.837  78.161 118.036  0.00  0.00     0.006 C 
ENDBRANCH   8  11
ENDBRANCH   7   8
ENDBRANCH   1   7
BRANCH   6  13
ATOM     13  N   LIG d   1      -5.842  73.568 115.956  0.00  0.00    -0.311 N 
ATOM     14  C   LIG d   1      -7.055  73.421 116.485  0.00  0.00     0.210 C 
ATOM     15  C   LIG d   1      -7.504  71.970 116.683  0.00  0.00     0.109 C 
ATOM     16  O   LIG d   1      -7.816  74.355 116.780  0.00  0.00    -0.276 OA
ATOM     17  H   LIG d   1      -5.307  72.756 115.717  0.00  0.00     0.149 HD
ENDBRANCH   6  13
BRANCH   5  18
ATOM     18  N   LIG d   1      -7.004  75.728 114.135  0.00  0.00     0.381 N 
ATOM     19  H   LIG d   1      -7.132  76.665 113.809  0.00  0.00    -0.090 HD
ATOM     20  H   LIG d   1      -7.459  75.639 115.026  0.00  0.00    -0.090 HD
ATOM     21  H   LIG d   1      -7.402  75.086 113.485  0.00  0.00    -0.090 HD
ENDBRANCH   5  18
BRANCH   3  22
ATOM     22  C   LIG d   1      -2.577  77.486 113.640  0.00  0.00     0.382 C 
ATOM     23  O   LIG d   1      -1.350  77.227 113.605  0.00  0.00    -0.241 OA
ATOM     24  O   LIG d   1      -3.004  78.510 113.075  0.00  0.00    -0.241 OA
ENDBRANCH   3  22
TORSDOF 7
ENDMDL
MODEL 9
REMARK VINA RESULT:      -4.9     28.677     30.123
REMARK  7 active torsions:
REMARK  status: ('A' for Active; 'I' for Inactive)
REMARK    1  A    between atoms: C_2  and  C_3 
REMARK    2  A    between atoms: C_3  and  O_6 
REMARK    3  A    between atoms: C_3  and  C_4 
REMARK    4  A    between atoms: C_7  and  O_6 
REMARK    5  A    between atoms: C_9  and  C_10 
REMARK    6  A    between atoms: N_15  and  C_14 
REMARK    7  A    between atoms: N_20  and  C_19 
REMARK       I    between atoms: C_22  and  N_20 
ROOT
ATOM      1  C   LIG d   1       2.641  88.025 116.199  0.00  0.00     0.161 C 
ATOM      2  C   LIG d   1       2.937  88.838 117.306  0.00  0.00     0.016 C 
ATOM      3  C   LIG d   1       3.880  89.891 117.268  0.00  0.00     0.038 C 
ATOM      4  C   LIG d   1       4.484  90.302 116.071  0.00  0.00     0.028 C 
ATOM      5  C   LIG d   1       4.595  89.189 115.035  0.00  0.00    -0.047 C 
ATOM      6  C   LIG d   1       3.209  88.530 114.856  0.00  0.00     0.091 C 
ENDROOT
BRANCH   1   7
ATOM      7  O   LIG d   1       1.216  87.833 116.101  0.00  0.00    -0.368 OA
BRANCH   7   8
ATOM      8  C   LIG d   1       0.528  87.519 117.337  0.00  0.00     0.119 C 
BRANCH   8   9
ATOM      9  C   LIG d   1       0.410  85.985 117.423  0.00  0.00     0.028 C 
ATOM     10  C   LIG d   1      -0.604  85.534 118.488  0.00  0.00     0.006 C 
ENDBRANCH   8   9
BRANCH   8  11
ATOM     11  C   LIG d   1      -0.913  88.037 117.319  0.00  0.00     0.028 C 
ATOM     12  C   LIG d   1      -1.013  89.532 117.662  0.00  0.00     0.006 C 
ENDBRANCH   8  11
ENDBRANCH   7   8
ENDBRANCH   1   7
BRANCH   6  13
ATOM     13  N   LIG d   1       3.247  87.375 113.921  0.00  0.00    -0.311 N 
ATOM     14  C   LIG d   1       2.590  87.347 112.763  0.00  0.00     0.210 C 
ATOM     15  C   LIG d   1       2.749  86.052 111.960  0.00  0.00     0.109 C 
ATOM     16  O   LIG d   1       1.917  88.285 112.309  0.00  0.00    -0.276 OA
ATOM     17  H   LIG d   1       3.794  86.583 114.197  0.00  0.00     0.149 HD
ENDBRANCH   6  13
BRANCH   5  18
ATOM     18  N   LIG d   1       5.116  89.788 113.791  0.00  0.00     0.381 N 
ATOM     19  H   LIG d   1       5.941  89.303 113.501  0.00  0.00    -0.090 HD
ATOM     20  H   LIG d   1       5.359  90.746 113.969  0.00  0.00    -0.090 HD
ATOM     21  H   LIG d   1       4.425  89.740 113.075  0.00  0.00    -0.090 HD
ENDBRANCH   5  18
BRANCH   3  22
ATOM     22  C   LIG d   1       4.256  90.519 118.446  0.00  0.00     0.382 C 
ATOM     23  O   LIG d   1       3.382  90.996 119.209  0.00  0.00    -0.241 OA
ATOM     24  O   LIG d   1       5.461  90.654 118.732  0.00  0.00    -0.241 OA
ENDBRANCH   3  22
TORSDOF 7
ENDMDL
