MODEL 1
REMARK VINA RESULT:      -5.6      0.000      0.000
REMARK  7 active torsions:
REMARK  status: ('A' for Active; 'I' for Inactive)
REMARK    1  A    between atoms: C_2  and  C_3 
REMARK    2  A    between atoms: C_3  and  O_6 
REMARK    3  A    between atoms: C_3  and  C_4 
REMARK    4  A    between atoms: C_7  and  O_6 
REMARK    5  A    between atoms: C_9  and  C_10 
REMARK    6  A    between atoms: N_15  and  C_14 
REMARK    7  A    between atoms: N_20  and  C_19 
REMARK       I    between atoms: C_22  and  N_20 
ROOT
ATOM      1  C   LIG d   1       0.176  58.661 118.051  0.00  0.00     0.161 C 
ATOM      2  C   LIG d   1       0.110  59.193 116.752  0.00  0.00     0.016 C 
ATOM      3  C   LIG d   1       0.063  58.395 115.586  0.00  0.00     0.038 C 
ATOM      4  C   LIG d   1      -0.074  57.000 115.647  0.00  0.00     0.028 C 
ATOM      5  C   LIG d   1       0.497  56.391 116.923  0.00  0.00    -0.047 C 
ATOM      6  C   LIG d   1      -0.084  57.143 118.142  0.00  0.00     0.091 C 
ENDROOT
BRANCH   1   7
ATOM      7  O   LIG d   1      -0.724  59.377 118.919  0.00  0.00    -0.368 OA
BRANCH   7   8
ATOM      8  C   LIG d   1      -2.011  58.755 119.156  0.00  0.00     0.119 C 
BRANCH   8   9
ATOM      9  C   LIG d   1      -3.022  59.397 118.185  0.00  0.00     0.028 C 
ATOM     10  C   LIG d   1      -3.636  58.373 117.215  0.00  0.00     0.006 C 
ENDBRANCH   8   9
BRANCH   8  11
ATOM     11  C   LIG d   1      -2.536  59.075 120.558  0.00  0.00     0.028 C 
ATOM     12  C   LIG d   1      -3.088  57.839 121.285  0.00  0.00     0.006 C 
ENDBRANCH   8  11
ENDBRANCH   7   8
ENDBRANCH   1   7
BRANCH   6  13
ATOM     13  N   LIG d   1       0.487  56.665 119.428  0.00  0.00    -0.311 N 
ATOM     14  C   LIG d   1      -0.092  55.736 120.187  0.00  0.00     0.210 C 
ATOM     15  C   LIG d   1       0.654  55.403 121.483  0.00  0.00     0.109 C 
ATOM     16  O   LIG d   1      -1.135  55.133 119.895  0.00  0.00    -0.276 OA
ATOM     17  H   LIG d   1       1.349  57.079 119.726  0.00  0.00     0.149 HD
ENDBRANCH   6  13
BRANCH   5  18
ATOM     18  N   LIG d   1       0.164  54.954 116.918  0.00  0.00     0.381 N 
ATOM     19  H   LIG d   1      -0.269  54.709 116.050  0.00  0.00    -0.090 HD
ATOM     20  H   LIG d   1      -0.488  54.769 117.660  0.00  0.00    -0.090 HD
ATOM     21  H   LIG d   1       0.990  54.412 117.050  0.00  0.00    -0.090 HD
ENDBRANCH   5  18
BRANCH   3  22
ATOM     22  C   LIG d   1       0.193  58.990 114.341  0.00  0.00     0.382 C 
ATOM     23  O   LIG d   1      -0.825  59.399 113.731  0.00  0.00    -0.241 OA
ATOM     24  O   LIG d   1       1.311  59.084 113.799  0.00  0.00    -0.241 OA
ENDBRANCH   3  22
TORSDOF 7
ENDMDL
MODEL 2
REMARK VINA RESULT:      -5.4     16.589     17.447
REMARK  7 active torsions:
REMARK  status: ('A' for Active; 'I' for Inactive)
REMARK    1  A    between atoms: C_2  and  C_3 
REMARK    2  A    between atoms: C_3  and  O_6 
REMARK    3  A    between atoms: C_3  and  C_4 
REMARK    4  A    between atoms: C_7  and  O_6 
REMARK    5  A    between atoms: C_9  and  C_10 
REMARK    6  A    between atoms: N_15  and  C_14 
REMARK    7  A    between atoms: N_20  and  C_19 
REMARK       I    between atoms: C_22  and  N_20 
ROOT
ATOM      1  C   LIG d   1     -15.003  66.533 116.050  0.00  0.00     0.161 C 
ATOM      2  C   LIG d   1     -14.718  67.680 115.290  0.00  0.00     0.016 C 
ATOM      3  C   LIG d   1     -14.975  67.778 113.903  0.00  0.00     0.038 C 
ATOM      4  C   LIG d   1     -15.679  66.784 113.208  0.00  0.00     0.028 C 
ATOM      5  C   LIG d   1     -15.536  65.396 113.825  0.00  0.00    -0.047 C 
ATOM      6  C   LIG d   1     -15.872  65.480 115.331  0.00  0.00     0.091 C 
ENDROOT
BRANCH   1   7
ATOM      7  O   LIG d   1     -15.609  66.914 117.301  0.00  0.00    -0.368 OA
BRANCH   7   8
ATOM      8  C   LIG d   1     -14.733  66.933 118.455  0.00  0.00     0.119 C 
BRANCH   8   9
ATOM      9  C   LIG d   1     -14.776  65.530 119.091  0.00  0.00     0.028 C 
ATOM     10  C   LIG d   1     -16.192  65.133 119.544  0.00  0.00     0.006 C 
ENDBRANCH   8   9
BRANCH   8  11
ATOM     11  C   LIG d   1     -15.255  67.884 119.536  0.00  0.00     0.028 C 
ATOM     12  C   LIG d   1     -16.343  68.837 119.015  0.00  0.00     0.006 C 
ENDBRANCH   8  11
ENDBRANCH   7   8
ENDBRANCH   1   7
BRANCH   6  13
ATOM     13  N   LIG d   1     -15.676  64.183 116.029  0.00  0.00    -0.311 N 
ATOM     14  C   LIG d   1     -16.666  63.329 116.280  0.00  0.00     0.210 C 
ATOM     15  C   LIG d   1     -16.250  62.058 117.028  0.00  0.00     0.109 C 
ATOM     16  O   LIG d   1     -17.844  63.488 115.926  0.00  0.00    -0.276 OA
ATOM     17  H   LIG d   1     -14.746  63.959 116.323  0.00  0.00     0.149 HD
ENDBRANCH   6  13
BRANCH   5  18
ATOM     18  N   LIG d   1     -16.428  64.485 113.083  0.00  0.00     0.381 N 
ATOM     19  H   LIG d   1     -16.399  64.703 112.107  0.00  0.00    -0.090 HD
ATOM     20  H   LIG d   1     -17.370  64.616 113.408  0.00  0.00    -0.090 HD
ATOM     21  H   LIG d   1     -16.147  63.540 113.228  0.00  0.00    -0.090 HD
ENDBRANCH   5  18
BRANCH   3  22
ATOM     22  C   LIG d   1     -14.491  68.864 113.190  0.00  0.00     0.382 C 
ATOM     23  O   LIG d   1     -13.556  69.557 113.660  0.00  0.00    -0.241 OA
ATOM     24  O   LIG d   1     -15.006  69.186 112.103  0.00  0.00    -0.241 OA
ENDBRANCH   3  22
TORSDOF 7
ENDMDL
MODEL 3
REMARK VINA RESULT:      -5.4     33.252     34.857
REMARK  7 active torsions:
REMARK  status: ('A' for Active; 'I' for Inactive)
REMARK    1  A    between atoms: C_2  and  C_3 
REMARK    2  A    between atoms: C_3  and  O_6 
REMARK    3  A    between atoms: C_3  and  C_4 
REMARK    4  A    between atoms: C_7  and  O_6 
REMARK    5  A    between atoms: C_9  and  C_10 
REMARK    6  A    between atoms: N_15  and  C_14 
REMARK    7  A    between atoms: N_20  and  C_19 
REMARK       I    between atoms: C_22  and  N_20 
ROOT
ATOM      1  C   LIG d   1      -4.381  91.802 117.164  0.00  0.00     0.161 C 
ATOM      2  C   LIG d   1      -5.225  91.097 116.290  0.00  0.00     0.016 C 
ATOM      3  C   LIG d   1      -6.361  91.671 115.674  0.00  0.00     0.038 C 
ATOM      4  C   LIG d   1      -6.646  93.041 115.772  0.00  0.00     0.028 C 
ATOM      5  C   LIG d   1      -6.109  93.681 117.048  0.00  0.00    -0.047 C 
ATOM      6  C   LIG d   1      -4.612  93.328 117.196  0.00  0.00     0.091 C 
ENDROOT
BRANCH   1   7
ATOM      7  O   LIG d   1      -3.004  91.510 116.855  0.00  0.00    -0.368 OA
BRANCH   7   8
ATOM      8  C   LIG d   1      -2.384  90.462 117.639  0.00  0.00     0.119 C 
BRANCH   8   9
ATOM      9  C   LIG d   1      -2.924  90.578 119.078  0.00  0.00     0.028 C 
ATOM     10  C   LIG d   1      -3.419  89.230 119.630  0.00  0.00     0.006 C 
ENDBRANCH   8   9
BRANCH   8  11
ATOM     11  C   LIG d   1      -0.871  90.674 117.756  0.00  0.00     0.028 C 
ATOM     12  C   LIG d   1      -0.064  89.415 117.401  0.00  0.00     0.006 C 
ENDBRANCH   8  11
ENDBRANCH   7   8
ENDBRANCH   1   7
BRANCH   6  13
ATOM     13  N   LIG d   1      -4.030  93.845 118.462  0.00  0.00    -0.311 N 
ATOM     14  C   LIG d   1      -2.850  94.459 118.530  0.00  0.00     0.210 C 
ATOM     15  C   LIG d   1      -2.428  94.895 119.936  0.00  0.00     0.109 C 
ATOM     16  O   LIG d   1      -2.128  94.713 117.554  0.00  0.00    -0.276 OA
ATOM     17  H   LIG d   1      -4.563  93.709 119.298  0.00  0.00     0.149 HD
ENDBRANCH   6  13
BRANCH   5  18
ATOM     18  N   LIG d   1      -6.355  95.133 116.956  0.00  0.00     0.381 N 
ATOM     19  H   LIG d   1      -5.758  95.534 116.261  0.00  0.00    -0.090 HD
ATOM     20  H   LIG d   1      -6.137  95.556 117.841  0.00  0.00    -0.090 HD
ATOM     21  H   LIG d   1      -7.309  95.303 116.724  0.00  0.00    -0.090 HD
ENDBRANCH   5  18
BRANCH   3  22
ATOM     22  C   LIG d   1      -7.249  90.862 114.981  0.00  0.00     0.382 C 
ATOM     23  O   LIG d   1      -8.483  91.079 115.055  0.00  0.00    -0.241 OA
ATOM     24  O   LIG d   1      -6.835  89.891 114.320  0.00  0.00    -0.241 OA
ENDBRANCH   3  22
TORSDOF 7
ENDMDL
MODEL 4
REMARK VINA RESULT:      -5.4     34.108     35.634
REMARK  7 active torsions:
REMARK  status: ('A' for Active; 'I' for Inactive)
REMARK    1  A    between atoms: C_2  and  C_3 
REMARK    2  A    between atoms: C_3  and  O_6 
REMARK    3  A    between atoms: C_3  and  C_4 
REMARK    4  A    between atoms: C_7  and  O_6 
REMARK    5  A    between atoms: C_9  and  C_10 
REMARK    6  A    between atoms: N_15  and  C_14 
REMARK    7  A    between atoms: N_20  and  C_19 
REMARK       I    between atoms: C_22  and  N_20 
ROOT
ATOM      1  C   LIG d   1      -5.201  93.728 116.941  0.00  0.00     0.161 C 
ATOM      2  C   LIG d   1      -6.371  93.017 116.628  0.00  0.00     0.016 C 
ATOM      3  C   LIG d   1      -6.395  91.623 116.390  0.00  0.00     0.038 C 
ATOM      4  C   LIG d   1      -5.266  90.816 116.599  0.00  0.00     0.028 C 
ATOM      5  C   LIG d   1      -3.948  91.562 116.424  0.00  0.00    -0.047 C 
ATOM      6  C   LIG d   1      -3.980  92.847 117.282  0.00  0.00     0.091 C 
ENDROOT
BRANCH   1   7
ATOM      7  O   LIG d   1      -5.464  94.655 118.012  0.00  0.00    -0.368 OA
BRANCH   7   8
ATOM      8  C   LIG d   1      -6.536  94.295 118.918  0.00  0.00     0.119 C 
BRANCH   8   9
ATOM      9  C   LIG d   1      -7.381  95.561 119.163  0.00  0.00     0.028 C 
ATOM     10  C   LIG d   1      -6.954  96.734 118.264  0.00  0.00     0.006 C 
ENDBRANCH   8   9
BRANCH   8  11
ATOM     11  C   LIG d   1      -5.993  93.898 120.294  0.00  0.00     0.028 C 
ATOM     12  C   LIG d   1      -5.794  92.381 120.441  0.00  0.00     0.006 C 
ENDBRANCH   8  11
ENDBRANCH   7   8
ENDBRANCH   1   7
BRANCH   6  13
ATOM     13  N   LIG d   1      -2.762  93.679 117.103  0.00  0.00    -0.311 N 
ATOM     14  C   LIG d   1      -1.678  93.565 117.869  0.00  0.00     0.210 C 
ATOM     15  C   LIG d   1      -0.541  94.533 117.528  0.00  0.00     0.109 C 
ATOM     16  O   LIG d   1      -1.539  92.733 118.778  0.00  0.00    -0.276 OA
ATOM     17  H   LIG d   1      -2.777  94.359 116.368  0.00  0.00     0.149 HD
ENDBRANCH   6  13
BRANCH   5  18
ATOM     18  N   LIG d   1      -2.861  90.640 116.804  0.00  0.00     0.381 N 
ATOM     19  H   LIG d   1      -2.966  89.772 116.318  0.00  0.00    -0.090 HD
ATOM     20  H   LIG d   1      -2.919  90.458 117.790  0.00  0.00    -0.090 HD
ATOM     21  H   LIG d   1      -1.977  91.046 116.586  0.00  0.00    -0.090 HD
ENDBRANCH   5  18
BRANCH   3  22
ATOM     22  C   LIG d   1      -7.548  91.029 115.900  0.00  0.00     0.382 C 
ATOM     23  O   LIG d   1      -8.542  91.736 115.608  0.00  0.00    -0.241 OA
ATOM     24  O   LIG d   1      -7.622  89.791 115.787  0.00  0.00    -0.241 OA
ENDBRANCH   3  22
TORSDOF 7
ENDMDL
MODEL 5
REMARK VINA RESULT:      -5.2     33.836     35.447
REMARK  7 active torsions:
REMARK  status: ('A' for Active; 'I' for Inactive)
REMARK    1  A    between atoms: C_2  and  C_3 
REMARK    2  A    between atoms: C_3  and  O_6 
REMARK    3  A    between atoms: C_3  and  C_4 
REMARK    4  A    between atoms: C_7  and  O_6 
REMARK    5  A    between atoms: C_9  and  C_10 
REMARK    6  A    between atoms: N_15  and  C_14 
REMARK    7  A    between atoms: N_20  and  C_19 
REMARK       I    between atoms: C_22  and  N_20 
ROOT
ATOM      1  C   LIG d   1      -4.344  92.561 116.850  0.00  0.00     0.161 C 
ATOM      2  C   LIG d   1      -3.413  93.408 117.474  0.00  0.00     0.016 C 
ATOM      3  C   LIG d   1      -3.765  94.626 118.099  0.00  0.00     0.038 C 
ATOM      4  C   LIG d   1      -5.103  95.010 118.275  0.00  0.00     0.028 C 
ATOM      5  C   LIG d   1      -6.042  94.436 117.219  0.00  0.00    -0.047 C 
ATOM      6  C   LIG d   1      -5.822  92.908 117.130  0.00  0.00     0.091 C 
ENDROOT
BRANCH   1   7
ATOM      7  O   LIG d   1      -4.075  91.191 117.207  0.00  0.00    -0.368 OA
BRANCH   7   8
ATOM      8  C   LIG d   1      -3.395  90.983 118.469  0.00  0.00     0.119 C 
BRANCH   8   9
ATOM      9  C   LIG d   1      -2.334  89.888 118.248  0.00  0.00     0.028 C 
ATOM     10  C   LIG d   1      -2.244  88.911 119.433  0.00  0.00     0.006 C 
ENDBRANCH   8   9
BRANCH   8  11
ATOM     11  C   LIG d   1      -4.346  90.419 119.529  0.00  0.00     0.028 C 
ATOM     12  C   LIG d   1      -4.927  91.506 120.447  0.00  0.00     0.006 C 
ENDBRANCH   8  11
ENDBRANCH   7   8
ENDBRANCH   1   7
BRANCH   6  13
ATOM     13  N   LIG d   1      -6.641  92.279 116.061  0.00  0.00    -0.311 N 
ATOM     14  C   LIG d   1      -7.456  91.248 116.274  0.00  0.00     0.210 C 
ATOM     15  C   LIG d   1      -8.194  90.739 115.031  0.00  0.00     0.109 C 
ATOM     16  O   LIG d   1      -7.663  90.726 117.380  0.00  0.00    -0.276 OA
ATOM     17  H   LIG d   1      -6.558  92.660 115.139  0.00  0.00     0.149 HD
ENDBRANCH   6  13
BRANCH   5  18
ATOM     18  N   LIG d   1      -7.419  94.800 117.602  0.00  0.00     0.381 N 
ATOM     19  H   LIG d   1      -7.685  94.300 118.427  0.00  0.00    -0.090 HD
ATOM     20  H   LIG d   1      -8.043  94.538 116.859  0.00  0.00    -0.090 HD
ATOM     21  H   LIG d   1      -7.479  95.781 117.766  0.00  0.00    -0.090 HD
ENDBRANCH   5  18
BRANCH   3  22
ATOM     22  C   LIG d   1      -2.770  95.496 118.519  0.00  0.00     0.382 C 
ATOM     23  O   LIG d   1      -3.017  96.720 118.640  0.00  0.00    -0.241 OA
ATOM     24  O   LIG d   1      -1.617  95.078 118.737  0.00  0.00    -0.241 OA
ENDBRANCH   3  22
TORSDOF 7
ENDMDL
MODEL 6
REMARK VINA RESULT:      -5.1     20.188     22.207
REMARK  7 active torsions:
REMARK  status: ('A' for Active; 'I' for Inactive)
REMARK    1  A    between atoms: C_2  and  C_3 
REMARK    2  A    between atoms: C_3  and  O_6 
REMARK    3  A    between atoms: C_3  and  C_4 
REMARK    4  A    between atoms: C_7  and  O_6 
REMARK    5  A    between atoms: C_9  and  C_10 
REMARK    6  A    between atoms: N_15  and  C_14 
REMARK    7  A    between atoms: N_20  and  C_19 
REMARK       I    between atoms: C_22  and  N_20 
ROOT
ATOM      1  C   LIG d   1      -7.009  77.976 118.335  0.00  0.00     0.161 C 
ATOM      2  C   LIG d   1      -8.370  78.154 118.635  0.00  0.00     0.016 C 
ATOM      3  C   LIG d   1      -8.982  79.424 118.751  0.00  0.00     0.038 C 
ATOM      4  C   LIG d   1      -8.302  80.606 118.423  0.00  0.00     0.028 C 
ATOM      5  C   LIG d   1      -6.791  80.507 118.604  0.00  0.00    -0.047 C 
ATOM      6  C   LIG d   1      -6.278  79.251 117.865  0.00  0.00     0.091 C 
ENDROOT
BRANCH   1   7
ATOM      7  O   LIG d   1      -6.858  76.923 117.362  0.00  0.00    -0.368 OA
BRANCH   7   8
ATOM      8  C   LIG d   1      -7.715  75.768 117.533  0.00  0.00     0.119 C 
BRANCH   8   9
ATOM      9  C   LIG d   1      -6.819  74.583 117.943  0.00  0.00     0.028 C 
ATOM     10  C   LIG d   1      -6.925  73.402 116.964  0.00  0.00     0.006 C 
ENDBRANCH   8   9
BRANCH   8  11
ATOM     11  C   LIG d   1      -8.359  75.351 116.208  0.00  0.00     0.028 C 
ATOM     12  C   LIG d   1      -9.890  75.250 116.295  0.00  0.00     0.006 C 
ENDBRANCH   8  11
ENDBRANCH   7   8
ENDBRANCH   1   7
BRANCH   6  13
ATOM     13  N   LIG d   1      -4.822  79.032 118.062  0.00  0.00    -0.311 N 
ATOM     14  C   LIG d   1      -3.888  79.559 117.271  0.00  0.00     0.210 C 
ATOM     15  C   LIG d   1      -2.447  79.192 117.639  0.00  0.00     0.109 C 
ATOM     16  O   LIG d   1      -4.115  80.322 116.320  0.00  0.00    -0.276 OA
ATOM     17  H   LIG d   1      -4.547  78.451 118.829  0.00  0.00     0.149 HD
ENDBRANCH   6  13
BRANCH   5  18
ATOM     18  N   LIG d   1      -6.199  81.759 118.097  0.00  0.00     0.381 N 
ATOM     19  H   LIG d   1      -5.439  81.549 117.481  0.00  0.00    -0.090 HD
ATOM     20  H   LIG d   1      -5.839  82.286 118.873  0.00  0.00    -0.090 HD
ATOM     21  H   LIG d   1      -6.889  82.292 117.615  0.00  0.00    -0.090 HD
ENDBRANCH   5  18
BRANCH   3  22
ATOM     22  C   LIG d   1     -10.276  79.521 119.238  0.00  0.00     0.382 C 
ATOM     23  O   LIG d   1     -10.609  80.504 119.942  0.00  0.00    -0.241 OA
ATOM     24  O   LIG d   1     -11.104  78.616 119.018  0.00  0.00    -0.241 OA
ENDBRANCH   3  22
TORSDOF 7
ENDMDL
MODEL 7
REMARK VINA RESULT:      -5.1      2.334      3.248
REMARK  7 active torsions:
REMARK  status: ('A' for Active; 'I' for Inactive)
REMARK    1  A    between atoms: C_2  and  C_3 
REMARK    2  A    between atoms: C_3  and  O_6 
REMARK    3  A    between atoms: C_3  and  C_4 
REMARK    4  A    between atoms: C_7  and  O_6 
REMARK    5  A    between atoms: C_9  and  C_10 
REMARK    6  A    between atoms: N_15  and  C_14 
REMARK    7  A    between atoms: N_20  and  C_19 
REMARK       I    between atoms: C_22  and  N_20 
ROOT
ATOM      1  C   LIG d   1      -0.111  58.672 118.522  0.00  0.00     0.161 C 
ATOM      2  C   LIG d   1      -1.433  58.878 118.095  0.00  0.00     0.016 C 
ATOM      3  C   LIG d   1      -2.028  58.161 117.032  0.00  0.00     0.038 C 
ATOM      4  C   LIG d   1      -1.386  57.075 116.419  0.00  0.00     0.028 C 
ATOM      5  C   LIG d   1       0.136  57.159 116.478  0.00  0.00    -0.047 C 
ATOM      6  C   LIG d   1       0.568  57.415 117.939  0.00  0.00     0.091 C 
ENDROOT
BRANCH   1   7
ATOM      7  O   LIG d   1      -0.062  58.645 119.963  0.00  0.00    -0.368 OA
BRANCH   7   8
ATOM      8  C   LIG d   1      -1.057  59.444 120.649  0.00  0.00     0.119 C 
BRANCH   8   9
ATOM      9  C   LIG d   1      -0.314  60.575 121.387  0.00  0.00     0.028 C 
ATOM     10  C   LIG d   1      -1.275  61.543 122.097  0.00  0.00     0.006 C 
ENDBRANCH   8   9
BRANCH   8  11
ATOM     11  C   LIG d   1      -1.759  58.638 121.745  0.00  0.00     0.028 C 
ATOM     12  C   LIG d   1      -3.052  57.966 121.255  0.00  0.00     0.006 C 
ENDBRANCH   8  11
ENDBRANCH   7   8
ENDBRANCH   1   7
BRANCH   6  13
ATOM     13  N   LIG d   1       2.037  57.595 118.073  0.00  0.00    -0.311 N 
ATOM     14  C   LIG d   1       2.866  56.617 118.435  0.00  0.00     0.210 C 
ATOM     15  C   LIG d   1       4.340  57.021 118.531  0.00  0.00     0.109 C 
ATOM     16  O   LIG d   1       2.524  55.445 118.656  0.00  0.00    -0.276 OA
ATOM     17  H   LIG d   1       2.404  58.506 117.882  0.00  0.00     0.149 HD
ENDBRANCH   6  13
BRANCH   5  18
ATOM     18  N   LIG d   1       0.673  55.901 115.927  0.00  0.00     0.381 N 
ATOM     19  H   LIG d   1       0.336  55.126 116.461  0.00  0.00    -0.090 HD
ATOM     20  H   LIG d   1       1.676  55.918 115.995  0.00  0.00    -0.090 HD
ATOM     21  H   LIG d   1       0.400  55.801 114.974  0.00  0.00    -0.090 HD
ENDBRANCH   5  18
BRANCH   3  22
ATOM     22  C   LIG d   1      -3.265  58.554 116.545  0.00  0.00     0.382 C 
ATOM     23  O   LIG d   1      -3.335  59.391 115.612  0.00  0.00    -0.241 OA
ATOM     24  O   LIG d   1      -4.314  58.117 117.056  0.00  0.00    -0.241 OA
ENDBRANCH   3  22
TORSDOF 7
ENDMDL
MODEL 8
REMARK VINA RESULT:      -5.1     33.230     34.752
REMARK  7 active torsions:
REMARK  status: ('A' for Active; 'I' for Inactive)
REMARK    1  A    between atoms: C_2  and  C_3 
REMARK    2  A    between atoms: C_3  and  O_6 
REMARK    3  A    between atoms: C_3  and  C_4 
REMARK    4  A    between atoms: C_7  and  O_6 
REMARK    5  A    between atoms: C_9  and  C_10 
REMARK    6  A    between atoms: N_15  and  C_14 
REMARK    7  A    between atoms: N_20  and  C_19 
REMARK       I    between atoms: C_22  and  N_20 
ROOT
ATOM      1  C   LIG d   1      -4.797  92.540 117.882  0.00  0.00     0.161 C 
ATOM      2  C   LIG d   1      -6.128  92.984 117.809  0.00  0.00     0.016 C 
ATOM      3  C   LIG d   1      -7.053  92.517 116.848  0.00  0.00     0.038 C 
ATOM      4  C   LIG d   1      -6.751  91.454 115.984  0.00  0.00     0.028 C 
ATOM      5  C   LIG d   1      -5.261  91.321 115.685  0.00  0.00    -0.047 C 
ATOM      6  C   LIG d   1      -4.482  91.300 117.020  0.00  0.00     0.091 C 
ENDROOT
BRANCH   1   7
ATOM      7  O   LIG d   1      -4.438  92.298 119.257  0.00  0.00    -0.368 OA
BRANCH   7   8
ATOM      8  C   LIG d   1      -4.715  93.374 120.187  0.00  0.00     0.119 C 
BRANCH   8   9
ATOM      9  C   LIG d   1      -3.406  93.685 120.938  0.00  0.00     0.028 C 
ATOM     10  C   LIG d   1      -2.207  92.900 120.379  0.00  0.00     0.006 C 
ENDBRANCH   8   9
BRANCH   8  11
ATOM     11  C   LIG d   1      -5.708  92.936 121.267  0.00  0.00     0.028 C 
ATOM     12  C   LIG d   1      -5.480  91.489 121.735  0.00  0.00     0.006 C 
ENDBRANCH   8  11
ENDBRANCH   7   8
ENDBRANCH   1   7
BRANCH   6  13
ATOM     13  N   LIG d   1      -3.010  91.257 116.816  0.00  0.00    -0.311 N 
ATOM     14  C   LIG d   1      -2.195  90.473 117.521  0.00  0.00     0.210 C 
ATOM     15  C   LIG d   1      -0.711  90.598 117.164  0.00  0.00     0.109 C 
ATOM     16  O   LIG d   1      -2.564  89.664 118.385  0.00  0.00    -0.276 OA
ATOM     17  H   LIG d   1      -2.629  91.859 116.113  0.00  0.00     0.149 HD
ENDBRANCH   6  13
BRANCH   5  18
ATOM     18  N   LIG d   1      -5.074  90.094 114.887  0.00  0.00     0.381 N 
ATOM     19  H   LIG d   1      -5.463  89.311 115.374  0.00  0.00    -0.090 HD
ATOM     20  H   LIG d   1      -4.090  89.933 114.765  0.00  0.00    -0.090 HD
ATOM     21  H   LIG d   1      -5.515  90.195 113.999  0.00  0.00    -0.090 HD
ENDBRANCH   5  18
BRANCH   3  22
ATOM     22  C   LIG d   1      -8.284  93.142 116.717  0.00  0.00     0.382 C 
ATOM     23  O   LIG d   1      -8.771  93.775 117.685  0.00  0.00    -0.241 OA
ATOM     24  O   LIG d   1      -8.933  93.043 115.659  0.00  0.00    -0.241 OA
ENDBRANCH   3  22
TORSDOF 7
ENDMDL
MODEL 9
REMARK VINA RESULT:      -5.0     19.282     21.281
REMARK  7 active torsions:
REMARK  status: ('A' for Active; 'I' for Inactive)
REMARK    1  A    between atoms: C_2  and  C_3 
REMARK    2  A    between atoms: C_3  and  O_6 
REMARK    3  A    between atoms: C_3  and  C_4 
REMARK    4  A    between atoms: C_7  and  O_6 
REMARK    5  A    between atoms: C_9  and  C_10 
REMARK    6  A    between atoms: N_15  and  C_14 
REMARK    7  A    between atoms: N_20  and  C_19 
REMARK       I    between atoms: C_22  and  N_20 
ROOT
ATOM      1  C   LIG d   1      -7.314  77.074 117.948  0.00  0.00     0.161 C 
ATOM      2  C   LIG d   1      -8.547  77.652 118.290  0.00  0.00     0.016 C 
ATOM      3  C   LIG d   1      -8.712  79.029 118.565  0.00  0.00     0.038 C 
ATOM      4  C   LIG d   1      -7.676  79.953 118.367  0.00  0.00     0.028 C 
ATOM      5  C   LIG d   1      -6.285  79.344 118.510  0.00  0.00    -0.047 C 
ATOM      6  C   LIG d   1      -6.195  78.085 117.618  0.00  0.00     0.091 C 
ENDROOT
BRANCH   1   7
ATOM      7  O   LIG d   1      -7.493  76.151 116.855  0.00  0.00    -0.368 OA
BRANCH   7   8
ATOM      8  C   LIG d   1      -7.415  74.744 117.189  0.00  0.00     0.119 C 
BRANCH   8   9
ATOM      9  C   LIG d   1      -6.268  74.134 116.361  0.00  0.00     0.028 C 
ATOM     10  C   LIG d   1      -6.091  74.830 115.001  0.00  0.00     0.006 C 
ENDBRANCH   8   9
BRANCH   8  11
ATOM     11  C   LIG d   1      -8.677  73.996 116.747  0.00  0.00     0.028 C 
ATOM     12  C   LIG d   1      -9.817  74.941 116.338  0.00  0.00     0.006 C 
ENDBRANCH   8  11
ENDBRANCH   7   8
ENDBRANCH   1   7
BRANCH   6  13
ATOM     13  N   LIG d   1      -4.895  77.380 117.763  0.00  0.00    -0.311 N 
ATOM     14  C   LIG d   1      -4.009  77.266 116.775  0.00  0.00     0.210 C 
ATOM     15  C   LIG d   1      -2.741  76.482 117.130  0.00  0.00     0.109 C 
ATOM     16  O   LIG d   1      -4.138  77.767 115.648  0.00  0.00    -0.276 OA
ATOM     17  H   LIG d   1      -4.695  76.970 118.654  0.00  0.00     0.149 HD
ENDBRANCH   6  13
BRANCH   5  18
ATOM     18  N   LIG d   1      -5.304  80.383 118.143  0.00  0.00     0.381 N 
ATOM     19  H   LIG d   1      -5.577  80.820 117.286  0.00  0.00    -0.090 HD
ATOM     20  H   LIG d   1      -4.408  79.950 118.005  0.00  0.00    -0.090 HD
ATOM     21  H   LIG d   1      -5.243  81.065 118.867  0.00  0.00    -0.090 HD
ENDBRANCH   5  18
BRANCH   3  22
ATOM     22  C   LIG d   1      -9.914  79.487 119.083  0.00  0.00     0.382 C 
ATOM     23  O   LIG d   1     -10.935  78.760 119.035  0.00  0.00    -0.241 OA
ATOM     24  O   LIG d   1     -10.001  80.636 119.556  0.00  0.00    -0.241 OA
ENDBRANCH   3  22
TORSDOF 7
ENDMDL
