MODEL 1
REMARK VINA RESULT:      -6.1      0.000      0.000
REMARK  7 active torsions:
REMARK  status: ('A' for Active; 'I' for Inactive)
REMARK    1  A    between atoms: C_2  and  C_3 
REMARK    2  A    between atoms: C_3  and  O_6 
REMARK    3  A    between atoms: C_3  and  C_4 
REMARK    4  A    between atoms: C_7  and  O_6 
REMARK    5  A    between atoms: C_9  and  C_10 
REMARK    6  A    between atoms: N_15  and  C_14 
REMARK    7  A    between atoms: N_20  and  C_19 
REMARK       I    between atoms: C_22  and  N_20 
ROOT
ATOM      1  C   LIG d   1      -7.671  75.321 116.821  0.00  0.00     0.161 C 
ATOM      2  C   LIG d   1      -6.633  75.062 115.910  0.00  0.00     0.016 C 
ATOM      3  C   LIG d   1      -5.655  76.019 115.553  0.00  0.00     0.038 C 
ATOM      4  C   LIG d   1      -5.559  77.259 116.202  0.00  0.00     0.028 C 
ATOM      5  C   LIG d   1      -6.888  77.752 116.764  0.00  0.00    -0.047 C 
ATOM      6  C   LIG d   1      -7.518  76.631 117.621  0.00  0.00     0.091 C 
ENDROOT
BRANCH   1   7
ATOM      7  O   LIG d   1      -7.826  74.202 117.716  0.00  0.00    -0.368 OA
BRANCH   7   8
ATOM      8  C   LIG d   1      -9.123  73.556 117.710  0.00  0.00     0.119 C 
BRANCH   8   9
ATOM      9  C   LIG d   1      -9.354  72.970 119.116  0.00  0.00     0.028 C 
ATOM     10  C   LIG d   1      -9.534  74.061 120.185  0.00  0.00     0.006 C 
ENDBRANCH   8   9
BRANCH   8  11
ATOM     11  C   LIG d   1      -9.143  72.354 116.761  0.00  0.00     0.028 C 
ATOM     12  C   LIG d   1      -9.662  71.073 117.433  0.00  0.00     0.006 C 
ENDBRANCH   8  11
ENDBRANCH   7   8
ENDBRANCH   1   7
BRANCH   6  13
ATOM     13  N   LIG d   1      -8.860  77.000 118.141  0.00  0.00    -0.311 N 
ATOM     14  C   LIG d   1      -9.057  77.553 119.337  0.00  0.00     0.210 C 
ATOM     15  C   LIG d   1     -10.521  77.836 119.685  0.00  0.00     0.109 C 
ATOM     16  O   LIG d   1      -8.155  77.865 120.129  0.00  0.00    -0.276 OA
ATOM     17  H   LIG d   1      -9.646  76.811 117.550  0.00  0.00     0.149 HD
ENDBRANCH   6  13
BRANCH   5  18
ATOM     18  N   LIG d   1      -6.618  78.983 117.531  0.00  0.00     0.381 N 
ATOM     19  H   LIG d   1      -7.301  79.089 118.254  0.00  0.00    -0.090 HD
ATOM     20  H   LIG d   1      -6.688  79.773 116.913  0.00  0.00    -0.090 HD
ATOM     21  H   LIG d   1      -5.705  78.944 117.929  0.00  0.00    -0.090 HD
ENDBRANCH   5  18
BRANCH   3  22
ATOM     22  C   LIG d   1      -4.783  75.753 114.508  0.00  0.00     0.382 C 
ATOM     23  O   LIG d   1      -3.605  75.394 114.750  0.00  0.00    -0.241 OA
ATOM     24  O   LIG d   1      -5.146  75.910 113.327  0.00  0.00    -0.241 OA
ENDBRANCH   3  22
TORSDOF 7
ENDMDL
MODEL 2
REMARK VINA RESULT:      -6.0     14.797     17.029
REMARK  7 active torsions:
REMARK  status: ('A' for Active; 'I' for Inactive)
REMARK    1  A    between atoms: C_2  and  C_3 
REMARK    2  A    between atoms: C_3  and  O_6 
REMARK    3  A    between atoms: C_3  and  C_4 
REMARK    4  A    between atoms: C_7  and  O_6 
REMARK    5  A    between atoms: C_9  and  C_10 
REMARK    6  A    between atoms: N_15  and  C_14 
REMARK    7  A    between atoms: N_20  and  C_19 
REMARK       I    between atoms: C_22  and  N_20 
ROOT
ATOM      1  C   LIG d   1      -5.199  91.657 117.708  0.00  0.00     0.161 C 
ATOM      2  C   LIG d   1      -5.631  90.963 116.565  0.00  0.00     0.016 C 
ATOM      3  C   LIG d   1      -6.467  91.534 115.577  0.00  0.00     0.038 C 
ATOM      4  C   LIG d   1      -6.806  92.895 115.589  0.00  0.00     0.028 C 
ATOM      5  C   LIG d   1      -6.809  93.506 116.986  0.00  0.00    -0.047 C 
ATOM      6  C   LIG d   1      -5.468  93.176 117.682  0.00  0.00     0.091 C 
ENDROOT
BRANCH   1   7
ATOM      7  O   LIG d   1      -3.800  91.399 117.936  0.00  0.00    -0.368 OA
BRANCH   7   8
ATOM      8  C   LIG d   1      -3.490  90.269 118.788  0.00  0.00     0.119 C 
BRANCH   8   9
ATOM      9  C   LIG d   1      -2.611  90.788 119.943  0.00  0.00     0.028 C 
ATOM     10  C   LIG d   1      -2.110  92.221 119.701  0.00  0.00     0.006 C 
ENDBRANCH   8   9
BRANCH   8  11
ATOM     11  C   LIG d   1      -2.628  89.238 118.054  0.00  0.00     0.028 C 
ATOM     12  C   LIG d   1      -2.363  87.978 118.894  0.00  0.00     0.006 C 
ENDBRANCH   8  11
ENDBRANCH   7   8
ENDBRANCH   1   7
BRANCH   6  13
ATOM     13  N   LIG d   1      -5.421  93.665 119.084  0.00  0.00    -0.311 N 
ATOM     14  C   LIG d   1      -4.870  94.825 119.438  0.00  0.00     0.210 C 
ATOM     15  C   LIG d   1      -4.911  95.129 120.939  0.00  0.00     0.109 C 
ATOM     16  O   LIG d   1      -4.379  95.645 118.648  0.00  0.00    -0.276 OA
ATOM     17  H   LIG d   1      -5.825  93.077 119.786  0.00  0.00     0.149 HD
ENDBRANCH   6  13
BRANCH   5  18
ATOM     18  N   LIG d   1      -7.042  94.955 116.838  0.00  0.00     0.381 N 
ATOM     19  H   LIG d   1      -7.379  95.334 117.701  0.00  0.00    -0.090 HD
ATOM     20  H   LIG d   1      -7.744  95.101 116.135  0.00  0.00    -0.090 HD
ATOM     21  H   LIG d   1      -6.197  95.411 116.575  0.00  0.00    -0.090 HD
ENDBRANCH   5  18
BRANCH   3  22
ATOM     22  C   LIG d   1      -7.005  90.729 114.584  0.00  0.00     0.382 C 
ATOM     23  O   LIG d   1      -7.824  91.209 113.764  0.00  0.00    -0.241 OA
ATOM     24  O   LIG d   1      -6.715  89.519 114.525  0.00  0.00    -0.241 OA
ENDBRANCH   3  22
TORSDOF 7
ENDMDL
MODEL 3
REMARK VINA RESULT:      -5.8      2.200      5.260
REMARK  7 active torsions:
REMARK  status: ('A' for Active; 'I' for Inactive)
REMARK    1  A    between atoms: C_2  and  C_3 
REMARK    2  A    between atoms: C_3  and  O_6 
REMARK    3  A    between atoms: C_3  and  C_4 
REMARK    4  A    between atoms: C_7  and  O_6 
REMARK    5  A    between atoms: C_9  and  C_10 
REMARK    6  A    between atoms: N_15  and  C_14 
REMARK    7  A    between atoms: N_20  and  C_19 
REMARK       I    between atoms: C_22  and  N_20 
ROOT
ATOM      1  C   LIG d   1      -7.718  75.408 116.639  0.00  0.00     0.161 C 
ATOM      2  C   LIG d   1      -7.561  76.802 116.722  0.00  0.00     0.016 C 
ATOM      3  C   LIG d   1      -8.146  77.592 117.737  0.00  0.00     0.038 C 
ATOM      4  C   LIG d   1      -8.809  77.019 118.833  0.00  0.00     0.028 C 
ATOM      5  C   LIG d   1      -9.423  75.658 118.526  0.00  0.00    -0.047 C 
ATOM      6  C   LIG d   1      -8.344  74.753 117.888  0.00  0.00     0.091 C 
ENDROOT
BRANCH   1   7
ATOM      7  O   LIG d   1      -6.452  74.791 116.332  0.00  0.00    -0.368 OA
BRANCH   7   8
ATOM      8  C   LIG d   1      -5.310  75.680 116.263  0.00  0.00     0.119 C 
BRANCH   8   9
ATOM      9  C   LIG d   1      -4.584  75.399 114.932  0.00  0.00     0.028 C 
ATOM     10  C   LIG d   1      -5.479  75.661 113.709  0.00  0.00     0.006 C 
ENDBRANCH   8   9
BRANCH   8  11
ATOM     11  C   LIG d   1      -4.288  75.360 117.357  0.00  0.00     0.028 C 
ATOM     12  C   LIG d   1      -3.960  76.575 118.240  0.00  0.00     0.006 C 
ENDBRANCH   8  11
ENDBRANCH   7   8
ENDBRANCH   1   7
BRANCH   6  13
ATOM     13  N   LIG d   1      -8.883  73.430 117.479  0.00  0.00    -0.311 N 
ATOM     14  C   LIG d   1      -9.024  72.404 118.317  0.00  0.00     0.210 C 
ATOM     15  C   LIG d   1      -9.580  71.124 117.686  0.00  0.00     0.109 C 
ATOM     16  O   LIG d   1      -8.771  72.443 119.531  0.00  0.00    -0.276 OA
ATOM     17  H   LIG d   1      -9.143  73.320 116.518  0.00  0.00     0.149 HD
ENDBRANCH   6  13
BRANCH   5  18
ATOM     18  N   LIG d   1      -9.960  75.116 119.788  0.00  0.00     0.381 N 
ATOM     19  H   LIG d   1      -9.310  74.464 120.180  0.00  0.00    -0.090 HD
ATOM     20  H   LIG d   1     -10.817  74.628 119.594  0.00  0.00    -0.090 HD
ATOM     21  H   LIG d   1     -10.129  75.856 120.433  0.00  0.00    -0.090 HD
ENDBRANCH   5  18
BRANCH   3  22
ATOM     22  C   LIG d   1      -8.106  78.975 117.641  0.00  0.00     0.382 C 
ATOM     23  O   LIG d   1      -7.154  79.534 117.046  0.00  0.00    -0.241 OA
ATOM     24  O   LIG d   1      -8.987  79.671 118.180  0.00  0.00    -0.241 OA
ENDBRANCH   3  22
TORSDOF 7
ENDMDL
MODEL 4
REMARK VINA RESULT:      -5.7      2.225      4.881
REMARK  7 active torsions:
REMARK  status: ('A' for Active; 'I' for Inactive)
REMARK    1  A    between atoms: C_2  and  C_3 
REMARK    2  A    between atoms: C_3  and  O_6 
REMARK    3  A    between atoms: C_3  and  C_4 
REMARK    4  A    between atoms: C_7  and  O_6 
REMARK    5  A    between atoms: C_9  and  C_10 
REMARK    6  A    between atoms: N_15  and  C_14 
REMARK    7  A    between atoms: N_20  and  C_19 
REMARK       I    between atoms: C_22  and  N_20 
ROOT
ATOM      1  C   LIG d   1      -8.674  77.322 117.907  0.00  0.00     0.161 C 
ATOM      2  C   LIG d   1      -9.577  78.362 118.185  0.00  0.00     0.016 C 
ATOM      3  C   LIG d   1      -9.243  79.732 118.081  0.00  0.00     0.038 C 
ATOM      4  C   LIG d   1      -8.020  80.158 117.542  0.00  0.00     0.028 C 
ATOM      5  C   LIG d   1      -6.893  79.146 117.722  0.00  0.00    -0.047 C 
ATOM      6  C   LIG d   1      -7.370  77.768 117.211  0.00  0.00     0.091 C 
ENDROOT
BRANCH   1   7
ATOM      7  O   LIG d   1      -9.330  76.299 117.133  0.00  0.00    -0.368 OA
BRANCH   7   8
ATOM      8  C   LIG d   1      -9.614  75.059 117.827  0.00  0.00     0.119 C 
BRANCH   8   9
ATOM      9  C   LIG d   1      -9.275  75.273 119.315  0.00  0.00     0.028 C 
ATOM     10  C   LIG d   1      -9.557  74.024 120.167  0.00  0.00     0.006 C 
ENDBRANCH   8   9
BRANCH   8  11
ATOM     11  C   LIG d   1      -8.689  73.933 117.358  0.00  0.00     0.028 C 
ATOM     12  C   LIG d   1      -9.455  72.744 116.755  0.00  0.00     0.006 C 
ENDBRANCH   8  11
ENDBRANCH   7   8
ENDBRANCH   1   7
BRANCH   6  13
ATOM     13  N   LIG d   1      -6.358  76.701 117.428  0.00  0.00    -0.311 N 
ATOM     14  C   LIG d   1      -5.464  76.341 116.508  0.00  0.00     0.210 C 
ATOM     15  C   LIG d   1      -4.525  75.206 116.929  0.00  0.00     0.109 C 
ATOM     16  O   LIG d   1      -5.339  76.875 115.396  0.00  0.00    -0.276 OA
ATOM     17  H   LIG d   1      -6.368  76.236 118.315  0.00  0.00     0.149 HD
ENDBRANCH   6  13
BRANCH   5  18
ATOM     18  N   LIG d   1      -5.715  79.656 116.996  0.00  0.00     0.381 N 
ATOM     19  H   LIG d   1      -5.212  80.298 117.575  0.00  0.00    -0.090 HD
ATOM     20  H   LIG d   1      -6.027  80.148 116.177  0.00  0.00    -0.090 HD
ATOM     21  H   LIG d   1      -5.123  78.900 116.732  0.00  0.00    -0.090 HD
ENDBRANCH   5  18
BRANCH   3  22
ATOM     22  C   LIG d   1     -10.123  80.692 118.557  0.00  0.00     0.382 C 
ATOM     23  O   LIG d   1     -10.712  81.455 117.754  0.00  0.00    -0.241 OA
ATOM     24  O   LIG d   1     -10.303  80.833 119.781  0.00  0.00    -0.241 OA
ENDBRANCH   3  22
TORSDOF 7
ENDMDL
MODEL 5
REMARK VINA RESULT:      -5.6      2.018      4.933
REMARK  7 active torsions:
REMARK  status: ('A' for Active; 'I' for Inactive)
REMARK    1  A    between atoms: C_2  and  C_3 
REMARK    2  A    between atoms: C_3  and  O_6 
REMARK    3  A    between atoms: C_3  and  C_4 
REMARK    4  A    between atoms: C_7  and  O_6 
REMARK    5  A    between atoms: C_9  and  C_10 
REMARK    6  A    between atoms: N_15  and  C_14 
REMARK    7  A    between atoms: N_20  and  C_19 
REMARK       I    between atoms: C_22  and  N_20 
ROOT
ATOM      1  C   LIG d   1      -6.818  75.838 117.235  0.00  0.00     0.161 C 
ATOM      2  C   LIG d   1      -7.203  74.541 116.857  0.00  0.00     0.016 C 
ATOM      3  C   LIG d   1      -8.438  73.959 117.222  0.00  0.00     0.038 C 
ATOM      4  C   LIG d   1      -9.444  74.695 117.866  0.00  0.00     0.028 C 
ATOM      5  C   LIG d   1      -8.905  75.846 118.709  0.00  0.00    -0.047 C 
ATOM      6  C   LIG d   1      -7.947  76.696 117.844  0.00  0.00     0.091 C 
ENDROOT
BRANCH   1   7
ATOM      7  O   LIG d   1      -6.222  76.518 116.112  0.00  0.00    -0.368 OA
BRANCH   7   8
ATOM      8  C   LIG d   1      -4.790  76.726 116.180  0.00  0.00     0.119 C 
BRANCH   8   9
ATOM      9  C   LIG d   1      -4.144  75.864 115.078  0.00  0.00     0.028 C 
ATOM     10  C   LIG d   1      -5.123  75.542 113.936  0.00  0.00     0.006 C 
ENDBRANCH   8   9
BRANCH   8  11
ATOM     11  C   LIG d   1      -4.212  76.200 117.497  0.00  0.00     0.028 C 
ATOM     12  C   LIG d   1      -3.282  74.993 117.299  0.00  0.00     0.006 C 
ENDBRANCH   8  11
ENDBRANCH   7   8
ENDBRANCH   1   7
BRANCH   6  13
ATOM     13  N   LIG d   1      -7.311  77.795 118.615  0.00  0.00    -0.311 N 
ATOM     14  C   LIG d   1      -7.206  79.044 118.163  0.00  0.00     0.210 C 
ATOM     15  C   LIG d   1      -6.497  80.017 119.110  0.00  0.00     0.109 C 
ATOM     16  O   LIG d   1      -7.662  79.445 117.082  0.00  0.00    -0.276 OA
ATOM     17  H   LIG d   1      -6.941  77.565 119.517  0.00  0.00     0.149 HD
ENDBRANCH   6  13
BRANCH   5  18
ATOM     18  N   LIG d   1     -10.063  76.611 119.211  0.00  0.00     0.381 N 
ATOM     19  H   LIG d   1     -10.321  77.311 118.545  0.00  0.00    -0.090 HD
ATOM     20  H   LIG d   1      -9.804  77.069 120.066  0.00  0.00    -0.090 HD
ATOM     21  H   LIG d   1     -10.832  75.998 119.373  0.00  0.00    -0.090 HD
ENDBRANCH   5  18
BRANCH   3  22
ATOM     22  C   LIG d   1      -8.663  72.612 116.976  0.00  0.00     0.382 C 
ATOM     23  O   LIG d   1      -9.774  72.101 117.254  0.00  0.00    -0.241 OA
ATOM     24  O   LIG d   1      -7.753  71.893 116.522  0.00  0.00    -0.241 OA
ENDBRANCH   3  22
TORSDOF 7
ENDMDL
MODEL 6
REMARK VINA RESULT:      -5.5      2.565      4.412
REMARK  7 active torsions:
REMARK  status: ('A' for Active; 'I' for Inactive)
REMARK    1  A    between atoms: C_2  and  C_3 
REMARK    2  A    between atoms: C_3  and  O_6 
REMARK    3  A    between atoms: C_3  and  C_4 
REMARK    4  A    between atoms: C_7  and  O_6 
REMARK    5  A    between atoms: C_9  and  C_10 
REMARK    6  A    between atoms: N_15  and  C_14 
REMARK    7  A    between atoms: N_20  and  C_19 
REMARK       I    between atoms: C_22  and  N_20 
ROOT
ATOM      1  C   LIG d   1      -9.422  75.818 118.440  0.00  0.00     0.161 C 
ATOM      2  C   LIG d   1      -9.382  74.423 118.277  0.00  0.00     0.016 C 
ATOM      3  C   LIG d   1      -8.480  73.766 117.407  0.00  0.00     0.038 C 
ATOM      4  C   LIG d   1      -7.449  74.455 116.751  0.00  0.00     0.028 C 
ATOM      5  C   LIG d   1      -7.769  75.923 116.494  0.00  0.00    -0.047 C 
ATOM      6  C   LIG d   1      -8.231  76.576 117.817  0.00  0.00     0.091 C 
ENDROOT
BRANCH   1   7
ATOM      7  O   LIG d   1      -9.546  76.142 119.839  0.00  0.00    -0.368 OA
BRANCH   7   8
ATOM      8  C   LIG d   1     -10.871  76.515 120.291  0.00  0.00     0.119 C 
BRANCH   8   9
ATOM      9  C   LIG d   1     -10.842  78.020 120.620  0.00  0.00     0.028 C 
ATOM     10  C   LIG d   1      -9.478  78.475 121.166  0.00  0.00     0.006 C 
ENDBRANCH   8   9
BRANCH   8  11
ATOM     11  C   LIG d   1     -11.226  75.819 121.609  0.00  0.00     0.028 C 
ATOM     12  C   LIG d   1     -12.718  75.932 121.960  0.00  0.00     0.006 C 
ENDBRANCH   8  11
ENDBRANCH   7   8
ENDBRANCH   1   7
BRANCH   6  13
ATOM     13  N   LIG d   1      -8.644  77.992 117.637  0.00  0.00    -0.311 N 
ATOM     14  C   LIG d   1      -7.817  79.023 117.798  0.00  0.00     0.210 C 
ATOM     15  C   LIG d   1      -8.451  80.401 117.584  0.00  0.00     0.109 C 
ATOM     16  O   LIG d   1      -6.610  78.926 118.067  0.00  0.00    -0.276 OA
ATOM     17  H   LIG d   1      -9.599  78.160 117.387  0.00  0.00     0.149 HD
ENDBRANCH   6  13
BRANCH   5  18
ATOM     18  N   LIG d   1      -6.559  76.551 115.931  0.00  0.00     0.381 N 
ATOM     19  H   LIG d   1      -6.255  76.040 115.127  0.00  0.00    -0.090 HD
ATOM     20  H   LIG d   1      -5.827  76.521 116.619  0.00  0.00    -0.090 HD
ATOM     21  H   LIG d   1      -6.750  77.496 115.680  0.00  0.00    -0.090 HD
ENDBRANCH   5  18
BRANCH   3  22
ATOM     22  C   LIG d   1      -8.632  72.411 117.156  0.00  0.00     0.382 C 
ATOM     23  O   LIG d   1      -9.646  71.805 117.577  0.00  0.00    -0.241 OA
ATOM     24  O   LIG d   1      -7.745  71.778 116.553  0.00  0.00    -0.241 OA
ENDBRANCH   3  22
TORSDOF 7
ENDMDL
MODEL 7
REMARK VINA RESULT:      -5.5      1.522      2.072
REMARK  7 active torsions:
REMARK  status: ('A' for Active; 'I' for Inactive)
REMARK    1  A    between atoms: C_2  and  C_3 
REMARK    2  A    between atoms: C_3  and  O_6 
REMARK    3  A    between atoms: C_3  and  C_4 
REMARK    4  A    between atoms: C_7  and  O_6 
REMARK    5  A    between atoms: C_9  and  C_10 
REMARK    6  A    between atoms: N_15  and  C_14 
REMARK    7  A    between atoms: N_20  and  C_19 
REMARK       I    between atoms: C_22  and  N_20 
ROOT
ATOM      1  C   LIG d   1      -7.845  76.541 116.593  0.00  0.00     0.161 C 
ATOM      2  C   LIG d   1      -7.073  76.043 115.530  0.00  0.00     0.016 C 
ATOM      3  C   LIG d   1      -5.660  76.022 115.538  0.00  0.00     0.038 C 
ATOM      4  C   LIG d   1      -4.919  76.362 116.680  0.00  0.00     0.028 C 
ATOM      5  C   LIG d   1      -5.637  77.346 117.597  0.00  0.00    -0.047 C 
ATOM      6  C   LIG d   1      -7.057  76.813 117.892  0.00  0.00     0.091 C 
ENDROOT
BRANCH   1   7
ATOM      7  O   LIG d   1      -8.949  75.652 116.854  0.00  0.00    -0.368 OA
BRANCH   7   8
ATOM      8  C   LIG d   1      -8.660  74.502 117.686  0.00  0.00     0.119 C 
BRANCH   8   9
ATOM      9  C   LIG d   1      -9.191  73.255 116.954  0.00  0.00     0.028 C 
ATOM     10  C   LIG d   1      -8.084  72.224 116.672  0.00  0.00     0.006 C 
ENDBRANCH   8   9
BRANCH   8  11
ATOM     11  C   LIG d   1      -9.436  74.559 119.005  0.00  0.00     0.028 C 
ATOM     12  C   LIG d   1      -9.395  73.232 119.779  0.00  0.00     0.006 C 
ENDBRANCH   8  11
ENDBRANCH   7   8
ENDBRANCH   1   7
BRANCH   6  13
ATOM     13  N   LIG d   1      -7.858  77.757 118.714  0.00  0.00    -0.311 N 
ATOM     14  C   LIG d   1      -8.154  78.997 118.327  0.00  0.00     0.210 C 
ATOM     15  C   LIG d   1      -8.973  79.810 119.334  0.00  0.00     0.109 C 
ATOM     16  O   LIG d   1      -7.843  79.489 117.232  0.00  0.00    -0.276 OA
ATOM     17  H   LIG d   1      -8.178  77.429 119.605  0.00  0.00     0.149 HD
ENDBRANCH   6  13
BRANCH   5  18
ATOM     18  N   LIG d   1      -4.815  77.506 118.811  0.00  0.00     0.381 N 
ATOM     19  H   LIG d   1      -4.292  78.357 118.757  0.00  0.00    -0.090 HD
ATOM     20  H   LIG d   1      -4.167  76.740 118.867  0.00  0.00    -0.090 HD
ATOM     21  H   LIG d   1      -5.398  77.517 119.619  0.00  0.00    -0.090 HD
ENDBRANCH   5  18
BRANCH   3  22
ATOM     22  C   LIG d   1      -4.971  75.696 114.379  0.00  0.00     0.382 C 
ATOM     23  O   LIG d   1      -3.788  75.283 114.448  0.00  0.00    -0.241 OA
ATOM     24  O   LIG d   1      -5.502  75.851 113.264  0.00  0.00    -0.241 OA
ENDBRANCH   3  22
TORSDOF 7
ENDMDL
MODEL 8
REMARK VINA RESULT:      -5.4     14.908     16.893
REMARK  7 active torsions:
REMARK  status: ('A' for Active; 'I' for Inactive)
REMARK    1  A    between atoms: C_2  and  C_3 
REMARK    2  A    between atoms: C_3  and  O_6 
REMARK    3  A    between atoms: C_3  and  C_4 
REMARK    4  A    between atoms: C_7  and  O_6 
REMARK    5  A    between atoms: C_9  and  C_10 
REMARK    6  A    between atoms: N_15  and  C_14 
REMARK    7  A    between atoms: N_20  and  C_19 
REMARK       I    between atoms: C_22  and  N_20 
ROOT
ATOM      1  C   LIG d   1      -6.220  91.694 118.378  0.00  0.00     0.161 C 
ATOM      2  C   LIG d   1      -6.310  90.959 117.184  0.00  0.00     0.016 C 
ATOM      3  C   LIG d   1      -6.676  91.531 115.944  0.00  0.00     0.038 C 
ATOM      4  C   LIG d   1      -6.830  92.916 115.783  0.00  0.00     0.028 C 
ATOM      5  C   LIG d   1      -7.243  93.632 117.064  0.00  0.00    -0.047 C 
ATOM      6  C   LIG d   1      -6.277  93.226 118.200  0.00  0.00     0.091 C 
ENDROOT
BRANCH   1   7
ATOM      7  O   LIG d   1      -5.028  91.317 119.095  0.00  0.00    -0.368 OA
BRANCH   7   8
ATOM      8  C   LIG d   1      -3.861  91.029 118.286  0.00  0.00     0.119 C 
BRANCH   8   9
ATOM      9  C   LIG d   1      -3.151  89.814 118.913  0.00  0.00     0.028 C 
ATOM     10  C   LIG d   1      -2.654  88.814 117.855  0.00  0.00     0.006 C 
ENDBRANCH   8   9
BRANCH   8  11
ATOM     11  C   LIG d   1      -2.843  92.171 118.350  0.00  0.00     0.028 C 
ATOM     12  C   LIG d   1      -1.873  92.039 119.535  0.00  0.00     0.006 C 
ENDBRANCH   8  11
ENDBRANCH   7   8
ENDBRANCH   1   7
BRANCH   6  13
ATOM     13  N   LIG d   1      -6.660  93.817 119.509  0.00  0.00    -0.311 N 
ATOM     14  C   LIG d   1      -7.851  93.633 120.075  0.00  0.00     0.210 C 
ATOM     15  C   LIG d   1      -8.047  94.348 121.416  0.00  0.00     0.109 C 
ATOM     16  O   LIG d   1      -8.753  92.921 119.610  0.00  0.00    -0.276 OA
ATOM     17  H   LIG d   1      -5.977  94.384 119.971  0.00  0.00     0.149 HD
ENDBRANCH   6  13
BRANCH   5  18
ATOM     18  N   LIG d   1      -7.234  95.081 116.788  0.00  0.00     0.381 N 
ATOM     19  H   LIG d   1      -6.674  95.553 117.470  0.00  0.00    -0.090 HD
ATOM     20  H   LIG d   1      -8.173  95.431 116.854  0.00  0.00    -0.090 HD
ATOM     21  H   LIG d   1      -6.872  95.252 115.875  0.00  0.00    -0.090 HD
ENDBRANCH   5  18
BRANCH   3  22
ATOM     22  C   LIG d   1      -6.929  90.709 114.856  0.00  0.00     0.382 C 
ATOM     23  O   LIG d   1      -6.398  89.575 114.791  0.00  0.00    -0.241 OA
ATOM     24  O   LIG d   1      -7.647  91.105 113.919  0.00  0.00    -0.241 OA
ENDBRANCH   3  22
TORSDOF 7
ENDMDL
MODEL 9
REMARK VINA RESULT:      -5.4      2.406      4.868
REMARK  7 active torsions:
REMARK  status: ('A' for Active; 'I' for Inactive)
REMARK    1  A    between atoms: C_2  and  C_3 
REMARK    2  A    between atoms: C_3  and  O_6 
REMARK    3  A    between atoms: C_3  and  C_4 
REMARK    4  A    between atoms: C_7  and  O_6 
REMARK    5  A    between atoms: C_9  and  C_10 
REMARK    6  A    between atoms: N_15  and  C_14 
REMARK    7  A    between atoms: N_20  and  C_19 
REMARK       I    between atoms: C_22  and  N_20 
ROOT
ATOM      1  C   LIG d   1      -7.443  77.735 118.462  0.00  0.00     0.161 C 
ATOM      2  C   LIG d   1      -6.455  77.671 117.466  0.00  0.00     0.016 C 
ATOM      3  C   LIG d   1      -6.500  76.764 116.382  0.00  0.00     0.038 C 
ATOM      4  C   LIG d   1      -7.622  75.959 116.136  0.00  0.00     0.028 C 
ATOM      5  C   LIG d   1      -8.419  75.629 117.393  0.00  0.00    -0.047 C 
ATOM      6  C   LIG d   1      -8.729  76.942 118.149  0.00  0.00     0.091 C 
ENDROOT
BRANCH   1   7
ATOM      7  O   LIG d   1      -7.761  79.112 118.745  0.00  0.00    -0.368 OA
BRANCH   7   8
ATOM      8  C   LIG d   1      -8.383  79.858 117.670  0.00  0.00     0.119 C 
BRANCH   8   9
ATOM      9  C   LIG d   1      -7.599  81.174 117.506  0.00  0.00     0.028 C 
ATOM     10  C   LIG d   1      -6.881  81.595 118.799  0.00  0.00     0.006 C 
ENDBRANCH   8   9
BRANCH   8  11
ATOM     11  C   LIG d   1      -9.810  80.278 118.035  0.00  0.00     0.028 C 
ATOM     12  C   LIG d   1     -10.279  81.524 117.267  0.00  0.00     0.006 C 
ENDBRANCH   8  11
ENDBRANCH   7   8
ENDBRANCH   1   7
BRANCH   6  13
ATOM     13  N   LIG d   1      -9.434  76.702 119.436  0.00  0.00    -0.311 N 
ATOM     14  C   LIG d   1     -10.757  76.761 119.568  0.00  0.00     0.210 C 
ATOM     15  C   LIG d   1     -11.277  76.501 120.986  0.00  0.00     0.109 C 
ATOM     16  O   LIG d   1     -11.553  76.972 118.641  0.00  0.00    -0.276 OA
ATOM     17  H   LIG d   1      -8.867  76.493 120.234  0.00  0.00     0.149 HD
ENDBRANCH   6  13
BRANCH   5  18
ATOM     18  N   LIG d   1      -9.632  74.902 116.975  0.00  0.00     0.381 N 
ATOM     19  H   LIG d   1      -9.463  74.431 116.109  0.00  0.00    -0.090 HD
ATOM     20  H   LIG d   1     -10.375  75.564 116.833  0.00  0.00    -0.090 HD
ATOM     21  H   LIG d   1      -9.894  74.244 117.675  0.00  0.00    -0.090 HD
ENDBRANCH   5  18
BRANCH   3  22
ATOM     22  C   LIG d   1      -5.398  76.629 115.552  0.00  0.00     0.382 C 
ATOM     23  O   LIG d   1      -4.477  77.480 115.589  0.00  0.00    -0.241 OA
ATOM     24  O   LIG d   1      -5.333  75.690 114.736  0.00  0.00    -0.241 OA
ENDBRANCH   3  22
TORSDOF 7
ENDMDL
