MODEL 1
REMARK VINA RESULT:      -5.4      0.000      0.000
REMARK  7 active torsions:
REMARK  status: ('A' for Active; 'I' for Inactive)
REMARK    1  A    between atoms: C_2  and  C_3 
REMARK    2  A    between atoms: C_3  and  O_6 
REMARK    3  A    between atoms: C_3  and  C_4 
REMARK    4  A    between atoms: C_7  and  O_6 
REMARK    5  A    between atoms: C_9  and  C_10 
REMARK    6  A    between atoms: N_15  and  C_14 
REMARK    7  A    between atoms: N_20  and  C_19 
REMARK       I    between atoms: C_22  and  N_20 
ROOT
ATOM      1  C   LIG d   1      -3.442  78.353 115.757  0.00  0.00     0.161 C 
ATOM      2  C   LIG d   1      -3.463  79.217 114.650  0.00  0.00     0.016 C 
ATOM      3  C   LIG d   1      -2.438  79.259 113.676  0.00  0.00     0.038 C 
ATOM      4  C   LIG d   1      -1.389  78.327 113.663  0.00  0.00     0.028 C 
ATOM      5  C   LIG d   1      -1.060  77.766 115.043  0.00  0.00    -0.047 C 
ATOM      6  C   LIG d   1      -2.362  77.253 115.700  0.00  0.00     0.091 C 
ENDROOT
BRANCH   1   7
ATOM      7  O   LIG d   1      -4.745  77.766 115.944  0.00  0.00    -0.368 OA
BRANCH   7   8
ATOM      8  C   LIG d   1      -5.224  77.696 117.309  0.00  0.00     0.119 C 
BRANCH   8   9
ATOM      9  C   LIG d   1      -5.757  76.269 117.541  0.00  0.00     0.028 C 
ATOM     10  C   LIG d   1      -5.561  75.363 116.313  0.00  0.00     0.006 C 
ENDBRANCH   8   9
BRANCH   8  11
ATOM     11  C   LIG d   1      -6.426  78.619 117.527  0.00  0.00     0.028 C 
ATOM     12  C   LIG d   1      -6.036  80.105 117.580  0.00  0.00     0.006 C 
ENDBRANCH   8  11
ENDBRANCH   7   8
ENDBRANCH   1   7
BRANCH   6  13
ATOM     13  N   LIG d   1      -2.143  76.764 117.086  0.00  0.00    -0.311 N 
ATOM     14  C   LIG d   1      -2.009  75.476 117.397  0.00  0.00     0.210 C 
ATOM     15  C   LIG d   1      -1.811  75.188 118.888  0.00  0.00     0.109 C 
ATOM     16  O   LIG d   1      -2.003  74.547 116.575  0.00  0.00    -0.276 OA
ATOM     17  H   LIG d   1      -2.103  77.453 117.811  0.00  0.00     0.149 HD
ENDBRANCH   6  13
BRANCH   5  18
ATOM     18  N   LIG d   1      -0.047  76.709 114.864  0.00  0.00     0.381 N 
ATOM     19  H   LIG d   1      -0.428  75.825 115.135  0.00  0.00    -0.090 HD
ATOM     20  H   LIG d   1       0.739  76.909 115.457  0.00  0.00    -0.090 HD
ATOM     21  H   LIG d   1       0.246  76.675 113.912  0.00  0.00    -0.090 HD
ENDBRANCH   5  18
BRANCH   3  22
ATOM     22  C   LIG d   1      -2.435  80.267 112.724  0.00  0.00     0.382 C 
ATOM     23  O   LIG d   1      -1.470  80.376 111.930  0.00  0.00    -0.241 OA
ATOM     24  O   LIG d   1      -3.364  81.095 112.679  0.00  0.00    -0.241 OA
ENDBRANCH   3  22
TORSDOF 7
ENDMDL
MODEL 2
REMARK VINA RESULT:      -5.3     13.325     15.854
REMARK  7 active torsions:
REMARK  status: ('A' for Active; 'I' for Inactive)
REMARK    1  A    between atoms: C_2  and  C_3 
REMARK    2  A    between atoms: C_3  and  O_6 
REMARK    3  A    between atoms: C_3  and  C_4 
REMARK    4  A    between atoms: C_7  and  O_6 
REMARK    5  A    between atoms: C_9  and  C_10 
REMARK    6  A    between atoms: N_15  and  C_14 
REMARK    7  A    between atoms: N_20  and  C_19 
REMARK       I    between atoms: C_22  and  N_20 
ROOT
ATOM      1  C   LIG d   1      -4.725  92.037 117.981  0.00  0.00     0.161 C 
ATOM      2  C   LIG d   1      -4.940  91.263 116.828  0.00  0.00     0.016 C 
ATOM      3  C   LIG d   1      -6.110  91.352 116.039  0.00  0.00     0.038 C 
ATOM      4  C   LIG d   1      -7.084  92.335 116.265  0.00  0.00     0.028 C 
ATOM      5  C   LIG d   1      -7.149  92.802 117.715  0.00  0.00    -0.047 C 
ATOM      6  C   LIG d   1      -5.727  93.193 118.180  0.00  0.00     0.091 C 
ENDROOT
BRANCH   1   7
ATOM      7  O   LIG d   1      -3.374  92.538 117.988  0.00  0.00    -0.368 OA
BRANCH   7   8
ATOM      8  C   LIG d   1      -2.486  91.965 118.979  0.00  0.00     0.119 C 
BRANCH   8   9
ATOM      9  C   LIG d   1      -2.034  93.106 119.910  0.00  0.00     0.028 C 
ATOM     10  C   LIG d   1      -2.140  94.486 119.241  0.00  0.00     0.006 C 
ENDBRANCH   8   9
BRANCH   8  11
ATOM     11  C   LIG d   1      -1.202  91.432 118.336  0.00  0.00     0.028 C 
ATOM     12  C   LIG d   1      -1.425  90.132 117.547  0.00  0.00     0.006 C 
ENDBRANCH   8  11
ENDBRANCH   7   8
ENDBRANCH   1   7
BRANCH   6  13
ATOM     13  N   LIG d   1      -5.687  93.582 119.614  0.00  0.00    -0.311 N 
ATOM     14  C   LIG d   1      -5.742  94.845 120.033  0.00  0.00     0.210 C 
ATOM     15  C   LIG d   1      -5.665  95.026 121.552  0.00  0.00     0.109 C 
ATOM     16  O   LIG d   1      -5.881  95.830 119.293  0.00  0.00    -0.276 OA
ATOM     17  H   LIG d   1      -5.606  92.843 120.285  0.00  0.00     0.149 HD
ENDBRANCH   6  13
BRANCH   5  18
ATOM     18  N   LIG d   1      -8.107  93.922 117.781  0.00  0.00     0.381 N 
ATOM     19  H   LIG d   1      -8.395  94.175 116.857  0.00  0.00    -0.090 HD
ATOM     20  H   LIG d   1      -7.652  94.715 118.198  0.00  0.00    -0.090 HD
ATOM     21  H   LIG d   1      -8.900  93.660 118.324  0.00  0.00    -0.090 HD
ENDBRANCH   5  18
BRANCH   3  22
ATOM     22  C   LIG d   1      -6.332  90.423 115.033  0.00  0.00     0.382 C 
ATOM     23  O   LIG d   1      -5.570  89.434 114.914  0.00  0.00    -0.241 OA
ATOM     24  O   LIG d   1      -7.258  90.586 114.216  0.00  0.00    -0.241 OA
ENDBRANCH   3  22
TORSDOF 7
ENDMDL
MODEL 3
REMARK VINA RESULT:      -5.3      1.430      1.928
REMARK  7 active torsions:
REMARK  status: ('A' for Active; 'I' for Inactive)
REMARK    1  A    between atoms: C_2  and  C_3 
REMARK    2  A    between atoms: C_3  and  O_6 
REMARK    3  A    between atoms: C_3  and  C_4 
REMARK    4  A    between atoms: C_7  and  O_6 
REMARK    5  A    between atoms: C_9  and  C_10 
REMARK    6  A    between atoms: N_15  and  C_14 
REMARK    7  A    between atoms: N_20  and  C_19 
REMARK       I    between atoms: C_22  and  N_20 
ROOT
ATOM      1  C   LIG d   1      -3.338  77.517 115.840  0.00  0.00     0.161 C 
ATOM      2  C   LIG d   1      -3.484  78.269 114.662  0.00  0.00     0.016 C 
ATOM      3  C   LIG d   1      -2.395  78.845 113.968  0.00  0.00     0.038 C 
ATOM      4  C   LIG d   1      -1.065  78.579 114.323  0.00  0.00     0.028 C 
ATOM      5  C   LIG d   1      -0.888  78.241 115.800  0.00  0.00    -0.047 C 
ATOM      6  C   LIG d   1      -1.886  77.124 116.181  0.00  0.00     0.091 C 
ENDROOT
BRANCH   1   7
ATOM      7  O   LIG d   1      -4.173  76.344 115.778  0.00  0.00    -0.368 OA
BRANCH   7   8
ATOM      8  C   LIG d   1      -5.601  76.572 115.880  0.00  0.00     0.119 C 
BRANCH   8   9
ATOM      9  C   LIG d   1      -6.081  75.916 117.189  0.00  0.00     0.028 C 
ATOM     10  C   LIG d   1      -7.038  74.738 116.939  0.00  0.00     0.006 C 
ENDBRANCH   8   9
BRANCH   8  11
ATOM     11  C   LIG d   1      -6.361  75.852 114.763  0.00  0.00     0.028 C 
ATOM     12  C   LIG d   1      -5.431  75.111 113.790  0.00  0.00     0.006 C 
ENDBRANCH   8  11
ENDBRANCH   7   8
ENDBRANCH   1   7
BRANCH   6  13
ATOM     13  N   LIG d   1      -1.838  76.791 117.629  0.00  0.00    -0.311 N 
ATOM     14  C   LIG d   1      -1.881  75.545 118.097  0.00  0.00     0.210 C 
ATOM     15  C   LIG d   1      -1.839  75.426 119.623  0.00  0.00     0.109 C 
ATOM     16  O   LIG d   1      -1.918  74.526 117.391  0.00  0.00    -0.276 OA
ATOM     17  H   LIG d   1      -1.776  77.557 118.271  0.00  0.00     0.149 HD
ENDBRANCH   6  13
BRANCH   5  18
ATOM     18  N   LIG d   1       0.520  77.853 116.002  0.00  0.00     0.381 N 
ATOM     19  H   LIG d   1       1.025  77.949 115.144  0.00  0.00    -0.090 HD
ATOM     20  H   LIG d   1       0.555  76.888 116.282  0.00  0.00    -0.090 HD
ATOM     21  H   LIG d   1       0.934  78.425 116.705  0.00  0.00    -0.090 HD
ENDBRANCH   5  18
BRANCH   3  22
ATOM     22  C   LIG d   1      -2.635  79.730 112.927  0.00  0.00     0.382 C 
ATOM     23  O   LIG d   1      -1.873  79.748 111.931  0.00  0.00    -0.241 OA
ATOM     24  O   LIG d   1      -3.578  80.541 112.993  0.00  0.00    -0.241 OA
ENDBRANCH   3  22
TORSDOF 7
ENDMDL
MODEL 4
REMARK VINA RESULT:      -5.2      2.719      4.069
REMARK  7 active torsions:
REMARK  status: ('A' for Active; 'I' for Inactive)
REMARK    1  A    between atoms: C_2  and  C_3 
REMARK    2  A    between atoms: C_3  and  O_6 
REMARK    3  A    between atoms: C_3  and  C_4 
REMARK    4  A    between atoms: C_7  and  O_6 
REMARK    5  A    between atoms: C_9  and  C_10 
REMARK    6  A    between atoms: N_15  and  C_14 
REMARK    7  A    between atoms: N_20  and  C_19 
REMARK       I    between atoms: C_22  and  N_20 
ROOT
ATOM      1  C   LIG d   1      -3.490  75.321 116.229  0.00  0.00     0.161 C 
ATOM      2  C   LIG d   1      -2.543  76.125 115.573  0.00  0.00     0.016 C 
ATOM      3  C   LIG d   1      -2.774  76.734 114.318  0.00  0.00     0.038 C 
ATOM      4  C   LIG d   1      -4.033  76.702 113.699  0.00  0.00     0.028 C 
ATOM      5  C   LIG d   1      -4.865  75.482 114.081  0.00  0.00    -0.047 C 
ATOM      6  C   LIG d   1      -4.908  75.366 115.622  0.00  0.00     0.091 C 
ENDROOT
BRANCH   1   7
ATOM      7  O   LIG d   1      -3.533  75.661 117.629  0.00  0.00    -0.368 OA
BRANCH   7   8
ATOM      8  C   LIG d   1      -3.110  77.003 117.973  0.00  0.00     0.119 C 
BRANCH   8   9
ATOM      9  C   LIG d   1      -2.343  76.919 119.307  0.00  0.00     0.028 C 
ATOM     10  C   LIG d   1      -1.677  75.548 119.516  0.00  0.00     0.006 C 
ENDBRANCH   8   9
BRANCH   8  11
ATOM     11  C   LIG d   1      -4.310  77.912 118.252  0.00  0.00     0.028 C 
ATOM     12  C   LIG d   1      -4.663  78.815 117.059  0.00  0.00     0.006 C 
ENDBRANCH   8  11
ENDBRANCH   7   8
ENDBRANCH   1   7
BRANCH   6  13
ATOM     13  N   LIG d   1      -5.632  74.152 116.079  0.00  0.00    -0.311 N 
ATOM     14  C   LIG d   1      -6.912  74.156 116.445  0.00  0.00     0.210 C 
ATOM     15  C   LIG d   1      -7.458  72.799 116.902  0.00  0.00     0.109 C 
ATOM     16  O   LIG d   1      -7.657  75.147 116.404  0.00  0.00    -0.276 OA
ATOM     17  H   LIG d   1      -5.112  73.297 116.113  0.00  0.00     0.149 HD
ENDBRANCH   6  13
BRANCH   5  18
ATOM     18  N   LIG d   1      -6.200  75.646 113.476  0.00  0.00     0.381 N 
ATOM     19  H   LIG d   1      -6.809  74.919 113.796  0.00  0.00    -0.090 HD
ATOM     20  H   LIG d   1      -6.116  75.570 112.478  0.00  0.00    -0.090 HD
ATOM     21  H   LIG d   1      -6.577  76.536 113.718  0.00  0.00    -0.090 HD
ENDBRANCH   5  18
BRANCH   3  22
ATOM     22  C   LIG d   1      -1.727  77.349 113.649  0.00  0.00     0.382 C 
ATOM     23  O   LIG d   1      -1.481  77.047 112.456  0.00  0.00    -0.241 OA
ATOM     24  O   LIG d   1      -0.999  78.171 114.237  0.00  0.00    -0.241 OA
ENDBRANCH   3  22
TORSDOF 7
ENDMDL
MODEL 5
REMARK VINA RESULT:      -5.1      2.390      5.065
REMARK  7 active torsions:
REMARK  status: ('A' for Active; 'I' for Inactive)
REMARK    1  A    between atoms: C_2  and  C_3 
REMARK    2  A    between atoms: C_3  and  O_6 
REMARK    3  A    between atoms: C_3  and  C_4 
REMARK    4  A    between atoms: C_7  and  O_6 
REMARK    5  A    between atoms: C_9  and  C_10 
REMARK    6  A    between atoms: N_15  and  C_14 
REMARK    7  A    between atoms: N_20  and  C_19 
REMARK       I    between atoms: C_22  and  N_20 
ROOT
ATOM      1  C   LIG d   1      -4.746  77.401 115.453  0.00  0.00     0.161 C 
ATOM      2  C   LIG d   1      -5.792  76.581 115.908  0.00  0.00     0.016 C 
ATOM      3  C   LIG d   1      -5.644  75.198 116.158  0.00  0.00     0.038 C 
ATOM      4  C   LIG d   1      -4.392  74.566 116.115  0.00  0.00     0.028 C 
ATOM      5  C   LIG d   1      -3.403  75.245 115.173  0.00  0.00    -0.047 C 
ATOM      6  C   LIG d   1      -3.346  76.753 115.507  0.00  0.00     0.091 C 
ENDROOT
BRANCH   1   7
ATOM      7  O   LIG d   1      -4.750  78.646 116.179  0.00  0.00    -0.368 OA
BRANCH   7   8
ATOM      8  C   LIG d   1      -5.342  78.611 117.501  0.00  0.00     0.119 C 
BRANCH   8   9
ATOM      9  C   LIG d   1      -6.243  79.854 117.638  0.00  0.00     0.028 C 
ATOM     10  C   LIG d   1      -7.642  79.509 118.176  0.00  0.00     0.006 C 
ENDBRANCH   8   9
BRANCH   8  11
ATOM     11  C   LIG d   1      -4.279  78.759 118.593  0.00  0.00     0.028 C 
ATOM     12  C   LIG d   1      -3.857  77.412 119.201  0.00  0.00     0.006 C 
ENDBRANCH   8  11
ENDBRANCH   7   8
ENDBRANCH   1   7
BRANCH   6  13
ATOM     13  N   LIG d   1      -2.466  77.507 114.576  0.00  0.00    -0.311 N 
ATOM     14  C   LIG d   1      -2.698  77.610 113.269  0.00  0.00     0.210 C 
ATOM     15  C   LIG d   1      -1.655  78.416 112.489  0.00  0.00     0.109 C 
ATOM     16  O   LIG d   1      -3.686  77.138 112.687  0.00  0.00    -0.276 OA
ATOM     17  H   LIG d   1      -1.658  77.948 114.970  0.00  0.00     0.149 HD
ENDBRANCH   6  13
BRANCH   5  18
ATOM     18  N   LIG d   1      -2.102  74.569 115.329  0.00  0.00     0.381 N 
ATOM     19  H   LIG d   1      -1.582  74.633 114.477  0.00  0.00    -0.090 HD
ATOM     20  H   LIG d   1      -2.262  73.597 115.528  0.00  0.00    -0.090 HD
ATOM     21  H   LIG d   1      -1.587  74.987 116.073  0.00  0.00    -0.090 HD
ENDBRANCH   5  18
BRANCH   3  22
ATOM     22  C   LIG d   1      -6.764  74.422 116.418  0.00  0.00     0.382 C 
ATOM     23  O   LIG d   1      -7.846  74.971 116.736  0.00  0.00    -0.241 OA
ATOM     24  O   LIG d   1      -6.694  73.179 116.381  0.00  0.00    -0.241 OA
ENDBRANCH   3  22
TORSDOF 7
ENDMDL
MODEL 6
REMARK VINA RESULT:      -5.0      2.420      4.626
REMARK  7 active torsions:
REMARK  status: ('A' for Active; 'I' for Inactive)
REMARK    1  A    between atoms: C_2  and  C_3 
REMARK    2  A    between atoms: C_3  and  O_6 
REMARK    3  A    between atoms: C_3  and  C_4 
REMARK    4  A    between atoms: C_7  and  O_6 
REMARK    5  A    between atoms: C_9  and  C_10 
REMARK    6  A    between atoms: N_15  and  C_14 
REMARK    7  A    between atoms: N_20  and  C_19 
REMARK       I    between atoms: C_22  and  N_20 
ROOT
ATOM      1  C   LIG d   1      -3.949  75.898 116.817  0.00  0.00     0.161 C 
ATOM      2  C   LIG d   1      -5.030  76.490 117.494  0.00  0.00     0.016 C 
ATOM      3  C   LIG d   1      -5.330  77.869 117.424  0.00  0.00     0.038 C 
ATOM      4  C   LIG d   1      -4.657  78.731 116.546  0.00  0.00     0.028 C 
ATOM      5  C   LIG d   1      -3.236  78.279 116.224  0.00  0.00    -0.047 C 
ATOM      6  C   LIG d   1      -3.271  76.803 115.767  0.00  0.00     0.091 C 
ENDROOT
BRANCH   1   7
ATOM      7  O   LIG d   1      -4.370  74.659 116.214  0.00  0.00    -0.368 OA
BRANCH   7   8
ATOM      8  C   LIG d   1      -5.684  74.661 115.604  0.00  0.00     0.119 C 
BRANCH   8   9
ATOM      9  C   LIG d   1      -6.341  73.302 115.916  0.00  0.00     0.028 C 
ATOM     10  C   LIG d   1      -7.525  73.432 116.890  0.00  0.00     0.006 C 
ENDBRANCH   8   9
BRANCH   8  11
ATOM     11  C   LIG d   1      -5.590  74.724 114.077  0.00  0.00     0.028 C 
ATOM     12  C   LIG d   1      -6.472  75.827 113.471  0.00  0.00     0.006 C 
ENDBRANCH   8  11
ENDBRANCH   7   8
ENDBRANCH   1   7
BRANCH   6  13
ATOM     13  N   LIG d   1      -1.912  76.256 115.514  0.00  0.00    -0.311 N 
ATOM     14  C   LIG d   1      -1.350  76.220 114.307  0.00  0.00     0.210 C 
ATOM     15  C   LIG d   1       0.048  75.597 114.263  0.00  0.00     0.109 C 
ATOM     16  O   LIG d   1      -1.864  76.674 113.273  0.00  0.00    -0.276 OA
ATOM     17  H   LIG d   1      -1.411  75.895 116.302  0.00  0.00     0.149 HD
ENDBRANCH   6  13
BRANCH   5  18
ATOM     18  N   LIG d   1      -2.701  79.191 115.195  0.00  0.00     0.381 N 
ATOM     19  H   LIG d   1      -1.836  78.832 114.842  0.00  0.00    -0.090 HD
ATOM     20  H   LIG d   1      -2.523  80.086 115.614  0.00  0.00    -0.090 HD
ATOM     21  H   LIG d   1      -3.357  79.288 114.451  0.00  0.00    -0.090 HD
ENDBRANCH   5  18
BRANCH   3  22
ATOM     22  C   LIG d   1      -6.290  78.407 118.268  0.00  0.00     0.382 C 
ATOM     23  O   LIG d   1      -6.109  79.537 118.783  0.00  0.00    -0.241 OA
ATOM     24  O   LIG d   1      -7.313  77.758 118.556  0.00  0.00    -0.241 OA
ENDBRANCH   3  22
TORSDOF 7
ENDMDL
MODEL 7
REMARK VINA RESULT:      -5.0      2.056      5.248
REMARK  7 active torsions:
REMARK  status: ('A' for Active; 'I' for Inactive)
REMARK    1  A    between atoms: C_2  and  C_3 
REMARK    2  A    between atoms: C_3  and  O_6 
REMARK    3  A    between atoms: C_3  and  C_4 
REMARK    4  A    between atoms: C_7  and  O_6 
REMARK    5  A    between atoms: C_9  and  C_10 
REMARK    6  A    between atoms: N_15  and  C_14 
REMARK    7  A    between atoms: N_20  and  C_19 
REMARK       I    between atoms: C_22  and  N_20 
ROOT
ATOM      1  C   LIG d   1      -2.003  75.427 116.015  0.00  0.00     0.161 C 
ATOM      2  C   LIG d   1      -1.790  75.162 117.378  0.00  0.00     0.016 C 
ATOM      3  C   LIG d   1      -1.428  76.155 118.317  0.00  0.00     0.038 C 
ATOM      4  C   LIG d   1      -1.402  77.518 117.982  0.00  0.00     0.028 C 
ATOM      5  C   LIG d   1      -1.117  77.773 116.506  0.00  0.00    -0.047 C 
ATOM      6  C   LIG d   1      -2.087  76.925 115.653  0.00  0.00     0.091 C 
ENDROOT
BRANCH   1   7
ATOM      7  O   LIG d   1      -3.182  74.735 115.561  0.00  0.00    -0.368 OA
BRANCH   7   8
ATOM      8  C   LIG d   1      -4.360  75.552 115.352  0.00  0.00     0.119 C 
BRANCH   8   9
ATOM      9  C   LIG d   1      -5.319  75.291 116.530  0.00  0.00     0.028 C 
ATOM     10  C   LIG d   1      -5.335  76.449 117.541  0.00  0.00     0.006 C 
ENDBRANCH   8   9
BRANCH   8  11
ATOM     11  C   LIG d   1      -5.127  75.114 114.100  0.00  0.00     0.028 C 
ATOM     12  C   LIG d   1      -6.567  75.651 114.066  0.00  0.00     0.006 C 
ENDBRANCH   8  11
ENDBRANCH   7   8
ENDBRANCH   1   7
BRANCH   6  13
ATOM     13  N   LIG d   1      -1.821  77.052 114.196  0.00  0.00    -0.311 N 
ATOM     14  C   LIG d   1      -2.448  77.925 113.410  0.00  0.00     0.210 C 
ATOM     15  C   LIG d   1      -2.037  77.876 111.934  0.00  0.00     0.109 C 
ATOM     16  O   LIG d   1      -3.281  78.756 113.799  0.00  0.00    -0.276 OA
ATOM     17  H   LIG d   1      -1.136  76.436 113.803  0.00  0.00     0.149 HD
ENDBRANCH   6  13
BRANCH   5  18
ATOM     18  N   LIG d   1      -1.255  79.223 116.270  0.00  0.00     0.381 N 
ATOM     19  H   LIG d   1      -2.136  79.413 115.835  0.00  0.00    -0.090 HD
ATOM     20  H   LIG d   1      -0.525  79.522 115.647  0.00  0.00    -0.090 HD
ATOM     21  H   LIG d   1      -1.189  79.717 117.133  0.00  0.00    -0.090 HD
ENDBRANCH   5  18
BRANCH   3  22
ATOM     22  C   LIG d   1      -1.048  75.785 119.598  0.00  0.00     0.382 C 
ATOM     23  O   LIG d   1       0.023  76.219 120.084  0.00  0.00    -0.241 OA
ATOM     24  O   LIG d   1      -1.741  74.986 120.256  0.00  0.00    -0.241 OA
ENDBRANCH   3  22
TORSDOF 7
ENDMDL
MODEL 8
REMARK VINA RESULT:      -4.8     14.027     16.381
REMARK  7 active torsions:
REMARK  status: ('A' for Active; 'I' for Inactive)
REMARK    1  A    between atoms: C_2  and  C_3 
REMARK    2  A    between atoms: C_3  and  O_6 
REMARK    3  A    between atoms: C_3  and  C_4 
REMARK    4  A    between atoms: C_7  and  O_6 
REMARK    5  A    between atoms: C_9  and  C_10 
REMARK    6  A    between atoms: N_15  and  C_14 
REMARK    7  A    between atoms: N_20  and  C_19 
REMARK       I    between atoms: C_22  and  N_20 
ROOT
ATOM      1  C   LIG d   1      -5.119  92.898 118.479  0.00  0.00     0.161 C 
ATOM      2  C   LIG d   1      -6.463  93.303 118.419  0.00  0.00     0.016 C 
ATOM      3  C   LIG d   1      -6.940  94.504 118.993  0.00  0.00     0.038 C 
ATOM      4  C   LIG d   1      -6.071  95.461 119.538  0.00  0.00     0.028 C 
ATOM      5  C   LIG d   1      -4.772  94.867 120.070  0.00  0.00    -0.047 C 
ATOM      6  C   LIG d   1      -4.138  93.982 118.973  0.00  0.00     0.091 C 
ENDROOT
BRANCH   1   7
ATOM      7  O   LIG d   1      -4.703  92.393 117.195  0.00  0.00    -0.368 OA
BRANCH   7   8
ATOM      8  C   LIG d   1      -5.281  91.128 116.790  0.00  0.00     0.119 C 
BRANCH   8   9
ATOM      9  C   LIG d   1      -4.118  90.172 116.462  0.00  0.00     0.028 C 
ATOM     10  C   LIG d   1      -3.054  90.141 117.572  0.00  0.00     0.006 C 
ENDBRANCH   8   9
BRANCH   8  11
ATOM     11  C   LIG d   1      -6.070  91.268 115.484  0.00  0.00     0.028 C 
ATOM     12  C   LIG d   1      -7.391  90.482 115.499  0.00  0.00     0.006 C 
ENDBRANCH   8  11
ENDBRANCH   7   8
ENDBRANCH   1   7
BRANCH   6  13
ATOM     13  N   LIG d   1      -2.906  93.295 119.440  0.00  0.00    -0.311 N 
ATOM     14  C   LIG d   1      -1.740  93.364 118.799  0.00  0.00     0.210 C 
ATOM     15  C   LIG d   1      -0.602  92.565 119.440  0.00  0.00     0.109 C 
ATOM     16  O   LIG d   1      -1.533  94.038 117.779  0.00  0.00    -0.276 OA
ATOM     17  H   LIG d   1      -2.977  92.751 120.277  0.00  0.00     0.149 HD
ENDBRANCH   6  13
BRANCH   5  18
ATOM     18  N   LIG d   1      -3.905  95.987 120.482  0.00  0.00     0.381 N 
ATOM     19  H   LIG d   1      -4.257  96.396 121.325  0.00  0.00    -0.090 HD
ATOM     20  H   LIG d   1      -3.917  96.689 119.763  0.00  0.00    -0.090 HD
ATOM     21  H   LIG d   1      -2.974  95.663 120.625  0.00  0.00    -0.090 HD
ENDBRANCH   5  18
BRANCH   3  22
ATOM     22  C   LIG d   1      -8.305  94.739 119.061  0.00  0.00     0.382 C 
ATOM     23  O   LIG d   1      -8.796  95.295 120.072  0.00  0.00    -0.241 OA
ATOM     24  O   LIG d   1      -9.057  94.361 118.142  0.00  0.00    -0.241 OA
ENDBRANCH   3  22
TORSDOF 7
ENDMDL
MODEL 9
REMARK VINA RESULT:      -4.7      9.926     11.974
REMARK  7 active torsions:
REMARK  status: ('A' for Active; 'I' for Inactive)
REMARK    1  A    between atoms: C_2  and  C_3 
REMARK    2  A    between atoms: C_3  and  O_6 
REMARK    3  A    between atoms: C_3  and  C_4 
REMARK    4  A    between atoms: C_7  and  O_6 
REMARK    5  A    between atoms: C_9  and  C_10 
REMARK    6  A    between atoms: N_15  and  C_14 
REMARK    7  A    between atoms: N_20  and  C_19 
REMARK       I    between atoms: C_22  and  N_20 
ROOT
ATOM      1  C   LIG d   1       3.952  86.356 115.089  0.00  0.00     0.161 C 
ATOM      2  C   LIG d   1       3.599  87.311 114.121  0.00  0.00     0.016 C 
ATOM      3  C   LIG d   1       4.347  88.485 113.877  0.00  0.00     0.038 C 
ATOM      4  C   LIG d   1       5.591  88.712 114.485  0.00  0.00     0.028 C 
ATOM      5  C   LIG d   1       5.738  88.024 115.837  0.00  0.00    -0.047 C 
ATOM      6  C   LIG d   1       5.365  86.531 115.684  0.00  0.00     0.091 C 
ENDROOT
BRANCH   1   7
ATOM      7  O   LIG d   1       3.798  85.030 114.547  0.00  0.00    -0.368 OA
BRANCH   7   8
ATOM      8  C   LIG d   1       2.958  84.915 113.372  0.00  0.00     0.119 C 
BRANCH   8   9
ATOM      9  C   LIG d   1       1.674  84.174 113.791  0.00  0.00     0.028 C 
ATOM     10  C   LIG d   1       0.510  84.420 112.817  0.00  0.00     0.006 C 
ENDBRANCH   8   9
BRANCH   8  11
ATOM     11  C   LIG d   1       3.609  84.029 112.306  0.00  0.00     0.028 C 
ATOM     12  C   LIG d   1       5.010  83.543 112.710  0.00  0.00     0.006 C 
ENDBRANCH   8  11
ENDBRANCH   7   8
ENDBRANCH   1   7
BRANCH   6  13
ATOM     13  N   LIG d   1       5.401  85.802 116.979  0.00  0.00    -0.311 N 
ATOM     14  C   LIG d   1       6.446  85.085 117.388  0.00  0.00     0.210 C 
ATOM     15  C   LIG d   1       6.268  84.397 118.745  0.00  0.00     0.109 C 
ATOM     16  O   LIG d   1       7.516  84.978 116.769  0.00  0.00    -0.276 OA
ATOM     17  H   LIG d   1       4.586  85.860 117.558  0.00  0.00     0.149 HD
ENDBRANCH   6  13
BRANCH   5  18
ATOM     18  N   LIG d   1       7.126  88.229 116.293  0.00  0.00     0.381 N 
ATOM     19  H   LIG d   1       7.600  88.848 115.666  0.00  0.00    -0.090 HD
ATOM     20  H   LIG d   1       7.605  87.345 116.285  0.00  0.00    -0.090 HD
ATOM     21  H   LIG d   1       7.130  88.609 117.214  0.00  0.00    -0.090 HD
ENDBRANCH   5  18
BRANCH   3  22
ATOM     22  C   LIG d   1       3.832  89.468 113.045  0.00  0.00     0.382 C 
ATOM     23  O   LIG d   1       4.403  90.582 112.963  0.00  0.00    -0.241 OA
ATOM     24  O   LIG d   1       2.779  89.269 112.409  0.00  0.00    -0.241 OA
ENDBRANCH   3  22
TORSDOF 7
ENDMDL
