MODEL 1
REMARK VINA RESULT:      -5.9      0.000      0.000
REMARK  7 active torsions:
REMARK  status: ('A' for Active; 'I' for Inactive)
REMARK    1  A    between atoms: C_2  and  C_3 
REMARK    2  A    between atoms: C_3  and  O_6 
REMARK    3  A    between atoms: C_3  and  C_4 
REMARK    4  A    between atoms: C_7  and  O_6 
REMARK    5  A    between atoms: C_9  and  C_10 
REMARK    6  A    between atoms: N_15  and  C_14 
REMARK    7  A    between atoms: N_20  and  C_19 
REMARK       I    between atoms: C_22  and  N_20 
ROOT
ATOM      1  C   LIG d   1      -7.397  74.473 117.658  0.00  0.00     0.161 C 
ATOM      2  C   LIG d   1      -8.579  75.186 117.921  0.00  0.00     0.016 C 
ATOM      3  C   LIG d   1      -8.658  76.598 117.893  0.00  0.00     0.038 C 
ATOM      4  C   LIG d   1      -7.591  77.392 117.448  0.00  0.00     0.028 C 
ATOM      5  C   LIG d   1      -6.226  76.744 117.657  0.00  0.00    -0.047 C 
ATOM      6  C   LIG d   1      -6.251  75.318 117.062  0.00  0.00     0.091 C 
ENDROOT
BRANCH   1   7
ATOM      7  O   LIG d   1      -7.686  73.348 116.804  0.00  0.00    -0.368 OA
BRANCH   7   8
ATOM      8  C   LIG d   1      -7.887  72.077 117.471  0.00  0.00     0.119 C 
BRANCH   8   9
ATOM      9  C   LIG d   1      -6.960  71.048 116.796  0.00  0.00     0.028 C 
ATOM     10  C   LIG d   1      -6.220  71.634 115.581  0.00  0.00     0.006 C 
ENDBRANCH   8   9
BRANCH   8  11
ATOM     11  C   LIG d   1      -9.307  71.550 117.249  0.00  0.00     0.028 C 
ATOM     12  C   LIG d   1      -9.378  70.015 117.234  0.00  0.00     0.006 C 
ENDBRANCH   8  11
ENDBRANCH   7   8
ENDBRANCH   1   7
BRANCH   6  13
ATOM     13  N   LIG d   1      -4.981  74.583 117.298  0.00  0.00    -0.311 N 
ATOM     14  C   LIG d   1      -4.005  74.498 116.396  0.00  0.00     0.210 C 
ATOM     15  C   LIG d   1      -2.789  73.676 116.835  0.00  0.00     0.109 C 
ATOM     16  O   LIG d   1      -4.016  75.054 115.287  0.00  0.00    -0.276 OA
ATOM     17  H   LIG d   1      -4.875  74.129 118.184  0.00  0.00     0.149 HD
ENDBRANCH   6  13
BRANCH   5  18
ATOM     18  N   LIG d   1      -5.218  77.616 117.026  0.00  0.00     0.381 N 
ATOM     19  H   LIG d   1      -4.397  77.086 116.812  0.00  0.00    -0.090 HD
ATOM     20  H   LIG d   1      -4.965  78.342 117.673  0.00  0.00    -0.090 HD
ATOM     21  H   LIG d   1      -5.589  78.019 116.193  0.00  0.00    -0.090 HD
ENDBRANCH   5  18
BRANCH   3  22
ATOM     22  C   LIG d   1      -9.804  77.230 118.351  0.00  0.00     0.382 C 
ATOM     23  O   LIG d   1      -9.724  78.363 118.885  0.00  0.00    -0.241 OA
ATOM     24  O   LIG d   1     -10.911  76.664 118.279  0.00  0.00    -0.241 OA
ENDBRANCH   3  22
TORSDOF 7
ENDMDL
MODEL 2
REMARK VINA RESULT:      -5.6      1.908      5.044
REMARK  7 active torsions:
REMARK  status: ('A' for Active; 'I' for Inactive)
REMARK    1  A    between atoms: C_2  and  C_3 
REMARK    2  A    between atoms: C_3  and  O_6 
REMARK    3  A    between atoms: C_3  and  C_4 
REMARK    4  A    between atoms: C_7  and  O_6 
REMARK    5  A    between atoms: C_9  and  C_10 
REMARK    6  A    between atoms: N_15  and  C_14 
REMARK    7  A    between atoms: N_20  and  C_19 
REMARK       I    between atoms: C_22  and  N_20 
ROOT
ATOM      1  C   LIG d   1      -6.174  74.178 117.344  0.00  0.00     0.161 C 
ATOM      2  C   LIG d   1      -4.929  73.655 116.955  0.00  0.00     0.016 C 
ATOM      3  C   LIG d   1      -3.694  74.253 117.294  0.00  0.00     0.038 C 
ATOM      4  C   LIG d   1      -3.614  75.339 118.179  0.00  0.00     0.028 C 
ATOM      5  C   LIG d   1      -4.869  76.205 118.191  0.00  0.00    -0.047 C 
ATOM      6  C   LIG d   1      -6.102  75.298 118.403  0.00  0.00     0.091 C 
ENDROOT
BRANCH   1   7
ATOM      7  O   LIG d   1      -7.030  73.112 117.800  0.00  0.00    -0.368 OA
BRANCH   7   8
ATOM      8  C   LIG d   1      -7.896  72.519 116.801  0.00  0.00     0.119 C 
BRANCH   8   9
ATOM      9  C   LIG d   1      -9.350  72.728 117.266  0.00  0.00     0.028 C 
ATOM     10  C   LIG d   1      -9.853  74.156 116.996  0.00  0.00     0.006 C 
ENDBRANCH   8   9
BRANCH   8  11
ATOM     11  C   LIG d   1      -7.707  71.001 116.730  0.00  0.00     0.028 C 
ATOM     12  C   LIG d   1      -8.968  70.224 117.142  0.00  0.00     0.006 C 
ENDBRANCH   8  11
ENDBRANCH   7   8
ENDBRANCH   1   7
BRANCH   6  13
ATOM     13  N   LIG d   1      -7.380  76.056 118.343  0.00  0.00    -0.311 N 
ATOM     14  C   LIG d   1      -8.043  76.460 119.425  0.00  0.00     0.210 C 
ATOM     15  C   LIG d   1      -9.349  77.209 119.140  0.00  0.00     0.109 C 
ATOM     16  O   LIG d   1      -7.658  76.299 120.593  0.00  0.00    -0.276 OA
ATOM     17  H   LIG d   1      -7.748  76.257 117.435  0.00  0.00     0.149 HD
ENDBRANCH   6  13
BRANCH   5  18
ATOM     18  N   LIG d   1      -4.703  77.215 119.253  0.00  0.00     0.381 N 
ATOM     19  H   LIG d   1      -4.264  76.799 120.050  0.00  0.00    -0.090 HD
ATOM     20  H   LIG d   1      -5.611  77.546 119.531  0.00  0.00    -0.090 HD
ATOM     21  H   LIG d   1      -4.152  77.974 118.919  0.00  0.00    -0.090 HD
ENDBRANCH   5  18
BRANCH   3  22
ATOM     22  C   LIG d   1      -2.523  73.789 116.713  0.00  0.00     0.382 C 
ATOM     23  O   LIG d   1      -1.845  72.906 117.289  0.00  0.00    -0.241 OA
ATOM     24  O   LIG d   1      -2.114  74.275 115.641  0.00  0.00    -0.241 OA
ENDBRANCH   3  22
TORSDOF 7
ENDMDL
MODEL 3
REMARK VINA RESULT:      -5.3      1.799      5.010
REMARK  7 active torsions:
REMARK  status: ('A' for Active; 'I' for Inactive)
REMARK    1  A    between atoms: C_2  and  C_3 
REMARK    2  A    between atoms: C_3  and  O_6 
REMARK    3  A    between atoms: C_3  and  C_4 
REMARK    4  A    between atoms: C_7  and  O_6 
REMARK    5  A    between atoms: C_9  and  C_10 
REMARK    6  A    between atoms: N_15  and  C_14 
REMARK    7  A    between atoms: N_20  and  C_19 
REMARK       I    between atoms: C_22  and  N_20 
ROOT
ATOM      1  C   LIG d   1      -5.669  74.852 116.411  0.00  0.00     0.161 C 
ATOM      2  C   LIG d   1      -4.424  74.249 116.167  0.00  0.00     0.016 C 
ATOM      3  C   LIG d   1      -3.307  74.398 117.021  0.00  0.00     0.038 C 
ATOM      4  C   LIG d   1      -3.403  75.042 118.263  0.00  0.00     0.028 C 
ATOM      5  C   LIG d   1      -4.504  76.096 118.315  0.00  0.00    -0.047 C 
ATOM      6  C   LIG d   1      -5.825  75.467 117.817  0.00  0.00     0.091 C 
ENDROOT
BRANCH   1   7
ATOM      7  O   LIG d   1      -6.728  73.908 116.156  0.00  0.00    -0.368 OA
BRANCH   7   8
ATOM      8  C   LIG d   1      -7.241  73.200 117.311  0.00  0.00     0.119 C 
BRANCH   8   9
ATOM      9  C   LIG d   1      -6.905  71.707 117.125  0.00  0.00     0.028 C 
ATOM     10  C   LIG d   1      -6.299  71.410 115.743  0.00  0.00     0.006 C 
ENDBRANCH   8   9
BRANCH   8  11
ATOM     11  C   LIG d   1      -8.770  73.266 117.371  0.00  0.00     0.028 C 
ATOM     12  C   LIG d   1      -9.430  71.880 117.301  0.00  0.00     0.006 C 
ENDBRANCH   8  11
ENDBRANCH   7   8
ENDBRANCH   1   7
BRANCH   6  13
ATOM     13  N   LIG d   1      -6.935  76.454 117.756  0.00  0.00    -0.311 N 
ATOM     14  C   LIG d   1      -7.826  76.617 118.732  0.00  0.00     0.210 C 
ATOM     15  C   LIG d   1      -8.900  77.675 118.458  0.00  0.00     0.109 C 
ATOM     16  O   LIG d   1      -7.809  76.010 119.813  0.00  0.00    -0.276 OA
ATOM     17  H   LIG d   1      -7.004  77.011 116.927  0.00  0.00     0.149 HD
ENDBRANCH   6  13
BRANCH   5  18
ATOM     18  N   LIG d   1      -4.584  76.589 119.702  0.00  0.00     0.381 N 
ATOM     19  H   LIG d   1      -5.533  76.814 119.928  0.00  0.00    -0.090 HD
ATOM     20  H   LIG d   1      -4.035  77.427 119.782  0.00  0.00    -0.090 HD
ATOM     21  H   LIG d   1      -4.241  75.897 120.331  0.00  0.00    -0.090 HD
ENDBRANCH   5  18
BRANCH   3  22
ATOM     22  C   LIG d   1      -2.065  73.933 116.615  0.00  0.00     0.382 C 
ATOM     23  O   LIG d   1      -1.515  74.418 115.597  0.00  0.00    -0.241 OA
ATOM     24  O   LIG d   1      -1.507  73.003 117.228  0.00  0.00    -0.241 OA
ENDBRANCH   3  22
TORSDOF 7
ENDMDL
MODEL 4
REMARK VINA RESULT:      -5.3      3.534      5.110
REMARK  7 active torsions:
REMARK  status: ('A' for Active; 'I' for Inactive)
REMARK    1  A    between atoms: C_2  and  C_3 
REMARK    2  A    between atoms: C_3  and  O_6 
REMARK    3  A    between atoms: C_3  and  C_4 
REMARK    4  A    between atoms: C_7  and  O_6 
REMARK    5  A    between atoms: C_9  and  C_10 
REMARK    6  A    between atoms: N_15  and  C_14 
REMARK    7  A    between atoms: N_20  and  C_19 
REMARK       I    between atoms: C_22  and  N_20 
ROOT
ATOM      1  C   LIG d   1      -3.362  74.635 116.768  0.00  0.00     0.161 C 
ATOM      2  C   LIG d   1      -3.919  75.559 115.869  0.00  0.00     0.016 C 
ATOM      3  C   LIG d   1      -3.144  76.437 115.076  0.00  0.00     0.038 C 
ATOM      4  C   LIG d   1      -1.745  76.345 115.019  0.00  0.00     0.028 C 
ATOM      5  C   LIG d   1      -1.123  75.769 116.287  0.00  0.00    -0.047 C 
ATOM      6  C   LIG d   1      -1.837  74.443 116.638  0.00  0.00     0.091 C 
ENDROOT
BRANCH   1   7
ATOM      7  O   LIG d   1      -4.039  73.368 116.648  0.00  0.00    -0.368 OA
BRANCH   7   8
ATOM      8  C   LIG d   1      -5.477  73.426 116.484  0.00  0.00     0.119 C 
BRANCH   8   9
ATOM      9  C   LIG d   1      -6.111  73.164 117.864  0.00  0.00     0.028 C 
ATOM     10  C   LIG d   1      -6.848  74.396 118.415  0.00  0.00     0.006 C 
ENDBRANCH   8   9
BRANCH   8  11
ATOM     11  C   LIG d   1      -5.982  72.295 115.584  0.00  0.00     0.028 C 
ATOM     12  C   LIG d   1      -6.924  71.326 116.316  0.00  0.00     0.006 C 
ENDBRANCH   8  11
ENDBRANCH   7   8
ENDBRANCH   1   7
BRANCH   6  13
ATOM     13  N   LIG d   1      -1.346  73.856 117.912  0.00  0.00    -0.311 N 
ATOM     14  C   LIG d   1      -0.397  72.923 117.972  0.00  0.00     0.210 C 
ATOM     15  C   LIG d   1      -0.055  72.439 119.384  0.00  0.00     0.109 C 
ATOM     16  O   LIG d   1       0.216  72.474 116.992  0.00  0.00    -0.276 OA
ATOM     17  H   LIG d   1      -1.767  74.186 118.758  0.00  0.00     0.149 HD
ENDBRANCH   6  13
BRANCH   5  18
ATOM     18  N   LIG d   1       0.321  75.601 116.038  0.00  0.00     0.381 N 
ATOM     19  H   LIG d   1       0.810  75.545 116.909  0.00  0.00    -0.090 HD
ATOM     20  H   LIG d   1       0.660  76.402 115.536  0.00  0.00    -0.090 HD
ATOM     21  H   LIG d   1       0.481  74.774 115.506  0.00  0.00    -0.090 HD
ENDBRANCH   5  18
BRANCH   3  22
ATOM     22  C   LIG d   1      -3.767  77.448 114.360  0.00  0.00     0.382 C 
ATOM     23  O   LIG d   1      -3.500  78.648 114.608  0.00  0.00    -0.241 OA
ATOM     24  O   LIG d   1      -4.626  77.175 113.500  0.00  0.00    -0.241 OA
ENDBRANCH   3  22
TORSDOF 7
ENDMDL
MODEL 5
REMARK VINA RESULT:      -5.2      1.842      2.752
REMARK  7 active torsions:
REMARK  status: ('A' for Active; 'I' for Inactive)
REMARK    1  A    between atoms: C_2  and  C_3 
REMARK    2  A    between atoms: C_3  and  O_6 
REMARK    3  A    between atoms: C_3  and  C_4 
REMARK    4  A    between atoms: C_7  and  O_6 
REMARK    5  A    between atoms: C_9  and  C_10 
REMARK    6  A    between atoms: N_15  and  C_14 
REMARK    7  A    between atoms: N_20  and  C_19 
REMARK       I    between atoms: C_22  and  N_20 
ROOT
ATOM      1  C   LIG d   1      -6.551  74.311 118.393  0.00  0.00     0.161 C 
ATOM      2  C   LIG d   1      -7.889  74.449 117.987  0.00  0.00     0.016 C 
ATOM      3  C   LIG d   1      -8.508  75.700 117.759  0.00  0.00     0.038 C 
ATOM      4  C   LIG d   1      -7.782  76.900 117.775  0.00  0.00     0.028 C 
ATOM      5  C   LIG d   1      -6.550  76.851 118.672  0.00  0.00    -0.047 C 
ATOM      6  C   LIG d   1      -5.713  75.604 118.307  0.00  0.00     0.091 C 
ENDROOT
BRANCH   1   7
ATOM      7  O   LIG d   1      -5.920  73.254 117.643  0.00  0.00    -0.368 OA
BRANCH   7   8
ATOM      8  C   LIG d   1      -6.312  73.137 116.253  0.00  0.00     0.119 C 
BRANCH   8   9
ATOM      9  C   LIG d   1      -6.509  71.638 115.952  0.00  0.00     0.028 C 
ATOM     10  C   LIG d   1      -7.711  71.042 116.704  0.00  0.00     0.006 C 
ENDBRANCH   8   9
BRANCH   8  11
ATOM     11  C   LIG d   1      -5.189  73.594 115.317  0.00  0.00     0.028 C 
ATOM     12  C   LIG d   1      -5.371  75.040 114.830  0.00  0.00     0.006 C 
ENDBRANCH   8  11
ENDBRANCH   7   8
ENDBRANCH   1   7
BRANCH   6  13
ATOM     13  N   LIG d   1      -4.533  75.434 119.194  0.00  0.00    -0.311 N 
ATOM     14  C   LIG d   1      -3.317  75.888 118.893  0.00  0.00     0.210 C 
ATOM     15  C   LIG d   1      -2.238  75.589 119.937  0.00  0.00     0.109 C 
ATOM     16  O   LIG d   1      -3.038  76.539 117.875  0.00  0.00    -0.276 OA
ATOM     17  H   LIG d   1      -4.676  74.944 120.056  0.00  0.00     0.149 HD
ENDBRANCH   6  13
BRANCH   5  18
ATOM     18  N   LIG d   1      -5.813  78.116 118.487  0.00  0.00     0.381 N 
ATOM     19  H   LIG d   1      -6.455  78.883 118.476  0.00  0.00    -0.090 HD
ATOM     20  H   LIG d   1      -5.338  78.089 117.602  0.00  0.00    -0.090 HD
ATOM     21  H   LIG d   1      -5.153  78.236 119.223  0.00  0.00    -0.090 HD
ENDBRANCH   5  18
BRANCH   3  22
ATOM     22  C   LIG d   1      -9.877  75.761 117.550  0.00  0.00     0.382 C 
ATOM     23  O   LIG d   1     -10.427  74.958 116.758  0.00  0.00    -0.241 OA
ATOM     24  O   LIG d   1     -10.563  76.637 118.110  0.00  0.00    -0.241 OA
ENDBRANCH   3  22
TORSDOF 7
ENDMDL
MODEL 6
REMARK VINA RESULT:      -5.2      1.696      2.096
REMARK  7 active torsions:
REMARK  status: ('A' for Active; 'I' for Inactive)
REMARK    1  A    between atoms: C_2  and  C_3 
REMARK    2  A    between atoms: C_3  and  O_6 
REMARK    3  A    between atoms: C_3  and  C_4 
REMARK    4  A    between atoms: C_7  and  O_6 
REMARK    5  A    between atoms: C_9  and  C_10 
REMARK    6  A    between atoms: N_15  and  C_14 
REMARK    7  A    between atoms: N_20  and  C_19 
REMARK       I    between atoms: C_22  and  N_20 
ROOT
ATOM      1  C   LIG d   1      -7.829  76.059 118.144  0.00  0.00     0.161 C 
ATOM      2  C   LIG d   1      -9.119  76.413 118.572  0.00  0.00     0.016 C 
ATOM      3  C   LIG d   1      -9.512  77.745 118.841  0.00  0.00     0.038 C 
ATOM      4  C   LIG d   1      -8.678  78.836 118.553  0.00  0.00     0.028 C 
ATOM      5  C   LIG d   1      -7.193  78.492 118.597  0.00  0.00    -0.047 C 
ATOM      6  C   LIG d   1      -6.940  77.246 117.718  0.00  0.00     0.091 C 
ENDROOT
BRANCH   1   7
ATOM      7  O   LIG d   1      -7.916  75.091 117.080  0.00  0.00    -0.368 OA
BRANCH   7   8
ATOM      8  C   LIG d   1      -7.909  73.699 117.482  0.00  0.00     0.119 C 
BRANCH   8   9
ATOM      9  C   LIG d   1      -6.890  72.965 116.590  0.00  0.00     0.028 C 
ATOM     10  C   LIG d   1      -5.436  73.245 117.007  0.00  0.00     0.006 C 
ENDBRANCH   8   9
BRANCH   8  11
ATOM     11  C   LIG d   1      -9.256  73.029 117.194  0.00  0.00     0.028 C 
ATOM     12  C   LIG d   1      -9.106  71.598 116.653  0.00  0.00     0.006 C 
ENDBRANCH   8  11
ENDBRANCH   7   8
ENDBRANCH   1   7
BRANCH   6  13
ATOM     13  N   LIG d   1      -5.526  76.792 117.771  0.00  0.00    -0.311 N 
ATOM     14  C   LIG d   1      -4.606  77.151 116.878  0.00  0.00     0.210 C 
ATOM     15  C   LIG d   1      -3.214  76.554 117.107  0.00  0.00     0.109 C 
ATOM     16  O   LIG d   1      -4.803  77.933 115.936  0.00  0.00    -0.276 OA
ATOM     17  H   LIG d   1      -5.272  76.179 118.522  0.00  0.00     0.149 HD
ENDBRANCH   6  13
BRANCH   5  18
ATOM     18  N   LIG d   1      -6.447  79.681 118.144  0.00  0.00     0.381 N 
ATOM     19  H   LIG d   1      -5.468  79.545 118.297  0.00  0.00    -0.090 HD
ATOM     20  H   LIG d   1      -6.743  80.476 118.682  0.00  0.00    -0.090 HD
ATOM     21  H   LIG d   1      -6.619  79.843 117.176  0.00  0.00    -0.090 HD
ENDBRANCH   5  18
BRANCH   3  22
ATOM     22  C   LIG d   1     -10.736  77.992 119.443  0.00  0.00     0.382 C 
ATOM     23  O   LIG d   1     -10.864  78.960 120.231  0.00  0.00    -0.241 OA
ATOM     24  O   LIG d   1     -11.703  77.233 119.242  0.00  0.00    -0.241 OA
ENDBRANCH   3  22
TORSDOF 7
ENDMDL
MODEL 7
REMARK VINA RESULT:      -5.1      2.225      4.749
REMARK  7 active torsions:
REMARK  status: ('A' for Active; 'I' for Inactive)
REMARK    1  A    between atoms: C_2  and  C_3 
REMARK    2  A    between atoms: C_3  and  O_6 
REMARK    3  A    between atoms: C_3  and  C_4 
REMARK    4  A    between atoms: C_7  and  O_6 
REMARK    5  A    between atoms: C_9  and  C_10 
REMARK    6  A    between atoms: N_15  and  C_14 
REMARK    7  A    between atoms: N_20  and  C_19 
REMARK       I    between atoms: C_22  and  N_20 
ROOT
ATOM      1  C   LIG d   1      -7.821  76.436 117.252  0.00  0.00     0.161 C 
ATOM      2  C   LIG d   1      -7.089  76.021 116.127  0.00  0.00     0.016 C 
ATOM      3  C   LIG d   1      -5.778  76.469 115.843  0.00  0.00     0.038 C 
ATOM      4  C   LIG d   1      -5.049  77.250 116.750  0.00  0.00     0.028 C 
ATOM      5  C   LIG d   1      -5.928  78.104 117.658  0.00  0.00    -0.047 C 
ATOM      6  C   LIG d   1      -7.000  77.201 118.311  0.00  0.00     0.091 C 
ENDROOT
BRANCH   1   7
ATOM      7  O   LIG d   1      -8.479  75.303 117.852  0.00  0.00    -0.368 OA
BRANCH   7   8
ATOM      8  C   LIG d   1      -8.135  74.004 117.309  0.00  0.00     0.119 C 
BRANCH   8   9
ATOM      9  C   LIG d   1      -9.440  73.196 117.179  0.00  0.00     0.028 C 
ATOM     10  C   LIG d   1      -9.187  71.734 116.774  0.00  0.00     0.006 C 
ENDBRANCH   8   9
BRANCH   8  11
ATOM     11  C   LIG d   1      -7.260  73.208 118.281  0.00  0.00     0.028 C 
ATOM     12  C   LIG d   1      -5.806  73.074 117.802  0.00  0.00     0.006 C 
ENDBRANCH   8  11
ENDBRANCH   7   8
ENDBRANCH   1   7
BRANCH   6  13
ATOM     13  N   LIG d   1      -7.955  77.971 119.150  0.00  0.00    -0.311 N 
ATOM     14  C   LIG d   1      -8.330  77.592 120.370  0.00  0.00     0.210 C 
ATOM     15  C   LIG d   1      -9.338  78.520 121.055  0.00  0.00     0.109 C 
ATOM     16  O   LIG d   1      -7.898  76.593 120.964  0.00  0.00    -0.276 OA
ATOM     17  H   LIG d   1      -8.330  78.813 118.758  0.00  0.00     0.149 HD
ENDBRANCH   6  13
BRANCH   5  18
ATOM     18  N   LIG d   1      -5.047  78.760 118.643  0.00  0.00     0.381 N 
ATOM     19  H   LIG d   1      -4.094  78.523 118.456  0.00  0.00    -0.090 HD
ATOM     20  H   LIG d   1      -5.281  78.426 119.561  0.00  0.00    -0.090 HD
ATOM     21  H   LIG d   1      -5.165  79.748 118.600  0.00  0.00    -0.090 HD
ENDBRANCH   5  18
BRANCH   3  22
ATOM     22  C   LIG d   1      -5.199  76.166 114.619  0.00  0.00     0.382 C 
ATOM     23  O   LIG d   1      -4.792  75.002 114.389  0.00  0.00    -0.241 OA
ATOM     24  O   LIG d   1      -5.038  77.054 113.760  0.00  0.00    -0.241 OA
ENDBRANCH   3  22
TORSDOF 7
ENDMDL
MODEL 8
REMARK VINA RESULT:      -5.1      2.229      4.877
REMARK  7 active torsions:
REMARK  status: ('A' for Active; 'I' for Inactive)
REMARK    1  A    between atoms: C_2  and  C_3 
REMARK    2  A    between atoms: C_3  and  O_6 
REMARK    3  A    between atoms: C_3  and  C_4 
REMARK    4  A    between atoms: C_7  and  O_6 
REMARK    5  A    between atoms: C_9  and  C_10 
REMARK    6  A    between atoms: N_15  and  C_14 
REMARK    7  A    between atoms: N_20  and  C_19 
REMARK       I    between atoms: C_22  and  N_20 
ROOT
ATOM      1  C   LIG d   1      -6.462  74.589 118.028  0.00  0.00     0.161 C 
ATOM      2  C   LIG d   1      -6.865  73.309 117.611  0.00  0.00     0.016 C 
ATOM      3  C   LIG d   1      -8.198  72.987 117.267  0.00  0.00     0.038 C 
ATOM      4  C   LIG d   1      -9.197  73.968 117.170  0.00  0.00     0.028 C 
ATOM      5  C   LIG d   1      -8.949  75.176 118.068  0.00  0.00    -0.047 C 
ATOM      6  C   LIG d   1      -7.515  75.698 117.822  0.00  0.00     0.091 C 
ENDROOT
BRANCH   1   7
ATOM      7  O   LIG d   1      -5.225  74.946 117.381  0.00  0.00    -0.368 OA
BRANCH   7   8
ATOM      8  C   LIG d   1      -4.812  74.097 116.281  0.00  0.00     0.119 C 
BRANCH   8   9
ATOM      9  C   LIG d   1      -3.272  74.083 116.259  0.00  0.00     0.028 C 
ATOM     10  C   LIG d   1      -2.661  74.651 117.552  0.00  0.00     0.006 C 
ENDBRANCH   8   9
BRANCH   8  11
ATOM     11  C   LIG d   1      -5.232  74.688 114.933  0.00  0.00     0.028 C 
ATOM     12  C   LIG d   1      -4.766  76.142 114.749  0.00  0.00     0.006 C 
ENDBRANCH   8  11
ENDBRANCH   7   8
ENDBRANCH   1   7
BRANCH   6  13
ATOM     13  N   LIG d   1      -7.160  76.827 118.721  0.00  0.00    -0.311 N 
ATOM     14  C   LIG d   1      -6.645  77.976 118.287  0.00  0.00     0.210 C 
ATOM     15  C   LIG d   1      -6.334  79.000 119.383  0.00  0.00     0.109 C 
ATOM     16  O   LIG d   1      -6.446  78.256 117.095  0.00  0.00    -0.276 OA
ATOM     17  H   LIG d   1      -7.318  76.696 119.701  0.00  0.00     0.149 HD
ENDBRANCH   6  13
BRANCH   5  18
ATOM     18  N   LIG d   1      -9.988  76.177 117.765  0.00  0.00     0.381 N 
ATOM     19  H   LIG d   1      -9.574  76.973 117.323  0.00  0.00    -0.090 HD
ATOM     20  H   LIG d   1     -10.409  76.479 118.626  0.00  0.00    -0.090 HD
ATOM     21  H   LIG d   1     -10.681  75.780 117.170  0.00  0.00    -0.090 HD
ENDBRANCH   5  18
BRANCH   3  22
ATOM     22  C   LIG d   1      -8.553  71.664 117.054  0.00  0.00     0.382 C 
ATOM     23  O   LIG d   1      -7.840  70.934 116.323  0.00  0.00    -0.241 OA
ATOM     24  O   LIG d   1      -9.599  71.203 117.546  0.00  0.00    -0.241 OA
ENDBRANCH   3  22
TORSDOF 7
ENDMDL
MODEL 9
REMARK VINA RESULT:      -5.1      1.948      4.625
REMARK  7 active torsions:
REMARK  status: ('A' for Active; 'I' for Inactive)
REMARK    1  A    between atoms: C_2  and  C_3 
REMARK    2  A    between atoms: C_3  and  O_6 
REMARK    3  A    between atoms: C_3  and  C_4 
REMARK    4  A    between atoms: C_7  and  O_6 
REMARK    5  A    between atoms: C_9  and  C_10 
REMARK    6  A    between atoms: N_15  and  C_14 
REMARK    7  A    between atoms: N_20  and  C_19 
REMARK       I    between atoms: C_22  and  N_20 
ROOT
ATOM      1  C   LIG d   1      -6.761  75.362 116.902  0.00  0.00     0.161 C 
ATOM      2  C   LIG d   1      -7.710  74.331 117.000  0.00  0.00     0.016 C 
ATOM      3  C   LIG d   1      -7.368  72.960 117.039  0.00  0.00     0.038 C 
ATOM      4  C   LIG d   1      -6.036  72.531 117.135  0.00  0.00     0.028 C 
ATOM      5  C   LIG d   1      -5.038  73.513 116.531  0.00  0.00    -0.047 C 
ATOM      6  C   LIG d   1      -5.299  74.918 117.118  0.00  0.00     0.091 C 
ENDROOT
BRANCH   1   7
ATOM      7  O   LIG d   1      -7.101  76.427 117.812  0.00  0.00    -0.368 OA
BRANCH   7   8
ATOM      8  C   LIG d   1      -7.912  76.055 118.954  0.00  0.00     0.119 C 
BRANCH   8   9
ATOM      9  C   LIG d   1      -8.962  77.165 119.158  0.00  0.00     0.028 C 
ATOM     10  C   LIG d   1     -10.313  76.819 118.510  0.00  0.00     0.006 C 
ENDBRANCH   8   9
BRANCH   8  11
ATOM     11  C   LIG d   1      -7.084  76.039 120.243  0.00  0.00     0.028 C 
ATOM     12  C   LIG d   1      -6.629  74.626 120.640  0.00  0.00     0.006 C 
ENDBRANCH   8  11
ENDBRANCH   7   8
ENDBRANCH   1   7
BRANCH   6  13
ATOM     13  N   LIG d   1      -4.421  75.956 116.517  0.00  0.00    -0.311 N 
ATOM     14  C   LIG d   1      -4.273  76.120 115.204  0.00  0.00     0.210 C 
ATOM     15  C   LIG d   1      -3.304  77.235 114.797  0.00  0.00     0.109 C 
ATOM     16  O   LIG d   1      -4.877  75.470 114.337  0.00  0.00    -0.276 OA
ATOM     17  H   LIG d   1      -3.918  76.548 117.148  0.00  0.00     0.149 HD
ENDBRANCH   6  13
BRANCH   5  18
ATOM     18  N   LIG d   1      -3.683  73.007 116.823  0.00  0.00     0.381 N 
ATOM     19  H   LIG d   1      -3.422  72.324 116.140  0.00  0.00    -0.090 HD
ATOM     20  H   LIG d   1      -3.689  72.564 117.725  0.00  0.00    -0.090 HD
ATOM     21  H   LIG d   1      -3.030  73.759 116.818  0.00  0.00    -0.090 HD
ENDBRANCH   5  18
BRANCH   3  22
ATOM     22  C   LIG d   1      -8.364  72.000 116.941  0.00  0.00     0.382 C 
ATOM     23  O   LIG d   1      -9.512  72.240 117.388  0.00  0.00    -0.241 OA
ATOM     24  O   LIG d   1      -8.117  70.881 116.452  0.00  0.00    -0.241 OA
ENDBRANCH   3  22
TORSDOF 7
ENDMDL
