MODEL 1
REMARK VINA RESULT:      -5.7      0.000      0.000
REMARK  7 active torsions:
REMARK  status: ('A' for Active; 'I' for Inactive)
REMARK    1  A    between atoms: C_2  and  C_3 
REMARK    2  A    between atoms: C_3  and  O_6 
REMARK    3  A    between atoms: C_3  and  C_4 
REMARK    4  A    between atoms: C_7  and  O_6 
REMARK    5  A    between atoms: C_9  and  C_10 
REMARK    6  A    between atoms: N_15  and  C_14 
REMARK    7  A    between atoms: N_20  and  C_19 
REMARK       I    between atoms: C_22  and  N_20 
ROOT
ATOM      1  C   LIG d   1       0.379  59.087 119.164  0.00  0.00     0.161 C 
ATOM      2  C   LIG d   1      -0.977  58.736 119.054  0.00  0.00     0.016 C 
ATOM      3  C   LIG d   1      -1.690  58.759 117.834  0.00  0.00     0.038 C 
ATOM      4  C   LIG d   1      -1.053  58.991 116.606  0.00  0.00     0.028 C 
ATOM      5  C   LIG d   1       0.206  59.844 116.729  0.00  0.00    -0.047 C 
ATOM      6  C   LIG d   1       1.119  59.236 117.818  0.00  0.00     0.091 C 
ENDROOT
BRANCH   1   7
ATOM      7  O   LIG d   1       1.062  58.141 120.009  0.00  0.00    -0.368 OA
BRANCH   7   8
ATOM      8  C   LIG d   1       0.544  56.788 120.000  0.00  0.00     0.119 C 
BRANCH   8   9
ATOM      9  C   LIG d   1       0.688  56.227 121.428  0.00  0.00     0.028 C 
ATOM     10  C   LIG d   1       0.297  54.742 121.517  0.00  0.00     0.006 C 
ENDBRANCH   8   9
BRANCH   8  11
ATOM     11  C   LIG d   1       1.397  55.871 119.117  0.00  0.00     0.028 C 
ATOM     12  C   LIG d   1       0.726  55.547 117.772  0.00  0.00     0.006 C 
ENDBRANCH   8  11
ENDBRANCH   7   8
ENDBRANCH   1   7
BRANCH   6  13
ATOM     13  N   LIG d   1       2.335  60.056 118.061  0.00  0.00    -0.311 N 
ATOM     14  C   LIG d   1       3.550  59.535 118.225  0.00  0.00     0.210 C 
ATOM     15  C   LIG d   1       4.661  60.557 118.484  0.00  0.00     0.109 C 
ATOM     16  O   LIG d   1       3.818  58.327 118.148  0.00  0.00    -0.276 OA
ATOM     17  H   LIG d   1       2.213  61.049 118.107  0.00  0.00     0.149 HD
ENDBRANCH   6  13
BRANCH   5  18
ATOM     18  N   LIG d   1       0.844  59.891 115.400  0.00  0.00     0.381 N 
ATOM     19  H   LIG d   1       1.392  59.066 115.257  0.00  0.00    -0.090 HD
ATOM     20  H   LIG d   1       1.456  60.687 115.361  0.00  0.00    -0.090 HD
ATOM     21  H   LIG d   1       0.148  59.963 114.690  0.00  0.00    -0.090 HD
ENDBRANCH   5  18
BRANCH   3  22
ATOM     22  C   LIG d   1      -3.066  58.588 117.839  0.00  0.00     0.382 C 
ATOM     23  O   LIG d   1      -3.814  59.500 117.412  0.00  0.00    -0.241 OA
ATOM     24  O   LIG d   1      -3.571  57.550 118.307  0.00  0.00    -0.241 OA
ENDBRANCH   3  22
TORSDOF 7
ENDMDL
MODEL 2
REMARK VINA RESULT:      -5.7     32.755     34.324
REMARK  7 active torsions:
REMARK  status: ('A' for Active; 'I' for Inactive)
REMARK    1  A    between atoms: C_2  and  C_3 
REMARK    2  A    between atoms: C_3  and  O_6 
REMARK    3  A    between atoms: C_3  and  C_4 
REMARK    4  A    between atoms: C_7  and  O_6 
REMARK    5  A    between atoms: C_9  and  C_10 
REMARK    6  A    between atoms: N_15  and  C_14 
REMARK    7  A    between atoms: N_20  and  C_19 
REMARK       I    between atoms: C_22  and  N_20 
ROOT
ATOM      1  C   LIG d   1      -5.510  91.377 117.622  0.00  0.00     0.161 C 
ATOM      2  C   LIG d   1      -5.978  90.827 116.417  0.00  0.00     0.016 C 
ATOM      3  C   LIG d   1      -6.815  91.525 115.516  0.00  0.00     0.038 C 
ATOM      4  C   LIG d   1      -7.120  92.883 115.688  0.00  0.00     0.028 C 
ATOM      5  C   LIG d   1      -7.085  93.332 117.145  0.00  0.00    -0.047 C 
ATOM      6  C   LIG d   1      -5.741  92.895 117.773  0.00  0.00     0.091 C 
ENDROOT
BRANCH   1   7
ATOM      7  O   LIG d   1      -4.114  91.063 117.793  0.00  0.00    -0.368 OA
BRANCH   7   8
ATOM      8  C   LIG d   1      -3.764  90.351 119.005  0.00  0.00     0.119 C 
BRANCH   8   9
ATOM      9  C   LIG d   1      -2.729  91.205 119.762  0.00  0.00     0.028 C 
ATOM     10  C   LIG d   1      -2.084  92.276 118.866  0.00  0.00     0.006 C 
ENDBRANCH   8   9
BRANCH   8  11
ATOM     11  C   LIG d   1      -3.050  89.033 118.690  0.00  0.00     0.028 C 
ATOM     12  C   LIG d   1      -2.852  88.808 117.182  0.00  0.00     0.006 C 
ENDBRANCH   8  11
ENDBRANCH   7   8
ENDBRANCH   1   7
BRANCH   6  13
ATOM     13  N   LIG d   1      -5.659  93.221 119.220  0.00  0.00    -0.311 N 
ATOM     14  C   LIG d   1      -5.116  94.343 119.689  0.00  0.00     0.210 C 
ATOM     15  C   LIG d   1      -5.115  94.472 121.216  0.00  0.00     0.109 C 
ATOM     16  O   LIG d   1      -4.664  95.258 118.985  0.00  0.00    -0.276 OA
ATOM     17  H   LIG d   1      -6.031  92.548 119.861  0.00  0.00     0.149 HD
ENDBRANCH   6  13
BRANCH   5  18
ATOM     18  N   LIG d   1      -7.284  94.794 117.166  0.00  0.00     0.381 N 
ATOM     19  H   LIG d   1      -8.192  95.006 117.528  0.00  0.00    -0.090 HD
ATOM     20  H   LIG d   1      -7.230  95.143 116.225  0.00  0.00    -0.090 HD
ATOM     21  H   LIG d   1      -6.585  95.225 117.729  0.00  0.00    -0.090 HD
ENDBRANCH   5  18
BRANCH   3  22
ATOM     22  C   LIG d   1      -7.389  90.851 114.449  0.00  0.00     0.382 C 
ATOM     23  O   LIG d   1      -8.231  91.431 113.722  0.00  0.00    -0.241 OA
ATOM     24  O   LIG d   1      -7.109  89.657 114.232  0.00  0.00    -0.241 OA
ENDBRANCH   3  22
TORSDOF 7
ENDMDL
MODEL 3
REMARK VINA RESULT:      -5.5      2.660      4.529
REMARK  7 active torsions:
REMARK  status: ('A' for Active; 'I' for Inactive)
REMARK    1  A    between atoms: C_2  and  C_3 
REMARK    2  A    between atoms: C_3  and  O_6 
REMARK    3  A    between atoms: C_3  and  C_4 
REMARK    4  A    between atoms: C_7  and  O_6 
REMARK    5  A    between atoms: C_9  and  C_10 
REMARK    6  A    between atoms: N_15  and  C_14 
REMARK    7  A    between atoms: N_20  and  C_19 
REMARK       I    between atoms: C_22  and  N_20 
ROOT
ATOM      1  C   LIG d   1       1.360  58.924 118.983  0.00  0.00     0.161 C 
ATOM      2  C   LIG d   1       0.935  59.628 117.844  0.00  0.00     0.016 C 
ATOM      3  C   LIG d   1       0.063  59.084 116.873  0.00  0.00     0.038 C 
ATOM      4  C   LIG d   1      -0.568  57.845 117.054  0.00  0.00     0.028 C 
ATOM      5  C   LIG d   1       0.222  56.887 117.941  0.00  0.00    -0.047 C 
ATOM      6  C   LIG d   1       0.594  57.612 119.255  0.00  0.00     0.091 C 
ENDROOT
BRANCH   1   7
ATOM      7  O   LIG d   1       1.305  59.785 120.138  0.00  0.00    -0.368 OA
BRANCH   7   8
ATOM      8  C   LIG d   1       0.293  60.822 120.112  0.00  0.00     0.119 C 
BRANCH   8   9
ATOM      9  C   LIG d   1       0.754  61.942 121.065  0.00  0.00     0.028 C 
ATOM     10  C   LIG d   1       2.182  61.715 121.590  0.00  0.00     0.006 C 
ENDBRANCH   8   9
BRANCH   8  11
ATOM     11  C   LIG d   1      -1.034  60.321 120.688  0.00  0.00     0.028 C 
ATOM     12  C   LIG d   1      -2.183  60.371 119.669  0.00  0.00     0.006 C 
ENDBRANCH   8  11
ENDBRANCH   7   8
ENDBRANCH   1   7
BRANCH   6  13
ATOM     13  N   LIG d   1       1.440  56.774 120.144  0.00  0.00    -0.311 N 
ATOM     14  C   LIG d   1       0.946  55.994 121.103  0.00  0.00     0.210 C 
ATOM     15  C   LIG d   1       1.994  55.229 121.918  0.00  0.00     0.109 C 
ATOM     16  O   LIG d   1      -0.262  55.838 121.336  0.00  0.00    -0.276 OA
ATOM     17  H   LIG d   1       2.431  56.816 120.004  0.00  0.00     0.149 HD
ENDBRANCH   6  13
BRANCH   5  18
ATOM     18  N   LIG d   1      -0.613  55.690 118.158  0.00  0.00     0.381 N 
ATOM     19  H   LIG d   1      -1.572  55.908 117.975  0.00  0.00    -0.090 HD
ATOM     20  H   LIG d   1      -0.531  55.407 119.119  0.00  0.00    -0.090 HD
ATOM     21  H   LIG d   1      -0.312  54.952 117.560  0.00  0.00    -0.090 HD
ENDBRANCH   5  18
BRANCH   3  22
ATOM     22  C   LIG d   1      -0.154  59.766 115.685  0.00  0.00     0.382 C 
ATOM     23  O   LIG d   1       0.757  59.835 114.826  0.00  0.00    -0.241 OA
ATOM     24  O   LIG d   1      -1.235  60.351 115.482  0.00  0.00    -0.241 OA
ENDBRANCH   3  22
TORSDOF 7
ENDMDL
MODEL 4
REMARK VINA RESULT:      -5.5     33.339     35.001
REMARK  7 active torsions:
REMARK  status: ('A' for Active; 'I' for Inactive)
REMARK    1  A    between atoms: C_2  and  C_3 
REMARK    2  A    between atoms: C_3  and  O_6 
REMARK    3  A    between atoms: C_3  and  C_4 
REMARK    4  A    between atoms: C_7  and  O_6 
REMARK    5  A    between atoms: C_9  and  C_10 
REMARK    6  A    between atoms: N_15  and  C_14 
REMARK    7  A    between atoms: N_20  and  C_19 
REMARK       I    between atoms: C_22  and  N_20 
ROOT
ATOM      1  C   LIG d   1      -5.787  91.667 118.522  0.00  0.00     0.161 C 
ATOM      2  C   LIG d   1      -5.623  90.762 117.460  0.00  0.00     0.016 C 
ATOM      3  C   LIG d   1      -6.109  90.998 116.154  0.00  0.00     0.038 C 
ATOM      4  C   LIG d   1      -6.664  92.232 115.782  0.00  0.00     0.028 C 
ATOM      5  C   LIG d   1      -7.305  92.983 116.943  0.00  0.00    -0.047 C 
ATOM      6  C   LIG d   1      -6.292  93.065 118.108  0.00  0.00     0.091 C 
ENDROOT
BRANCH   1   7
ATOM      7  O   LIG d   1      -4.556  91.778 119.264  0.00  0.00    -0.368 OA
BRANCH   7   8
ATOM      8  C   LIG d   1      -3.620  92.782 118.799  0.00  0.00     0.119 C 
BRANCH   8   9
ATOM      9  C   LIG d   1      -2.369  92.044 118.285  0.00  0.00     0.028 C 
ATOM     10  C   LIG d   1      -1.079  92.533 118.965  0.00  0.00     0.006 C 
ENDBRANCH   8   9
BRANCH   8  11
ATOM     11  C   LIG d   1      -3.128  93.661 119.952  0.00  0.00     0.028 C 
ATOM     12  C   LIG d   1      -3.822  93.340 121.285  0.00  0.00     0.006 C 
ENDBRANCH   8  11
ENDBRANCH   7   8
ENDBRANCH   1   7
BRANCH   6  13
ATOM     13  N   LIG d   1      -6.867  93.711 119.316  0.00  0.00    -0.311 N 
ATOM     14  C   LIG d   1      -6.717  95.005 119.598  0.00  0.00     0.210 C 
ATOM     15  C   LIG d   1      -7.375  95.463 120.903  0.00  0.00     0.109 C 
ATOM     16  O   LIG d   1      -6.129  95.822 118.874  0.00  0.00    -0.276 OA
ATOM     17  H   LIG d   1      -7.387  93.128 119.942  0.00  0.00     0.149 HD
ENDBRANCH   6  13
BRANCH   5  18
ATOM     18  N   LIG d   1      -7.719  94.308 116.443  0.00  0.00     0.381 N 
ATOM     19  H   LIG d   1      -7.155  94.565 115.658  0.00  0.00    -0.090 HD
ATOM     20  H   LIG d   1      -7.578  94.988 117.169  0.00  0.00    -0.090 HD
ATOM     21  H   LIG d   1      -8.680  94.288 116.180  0.00  0.00    -0.090 HD
ENDBRANCH   5  18
BRANCH   3  22
ATOM     22  C   LIG d   1      -6.079  89.979 115.214  0.00  0.00     0.382 C 
ATOM     23  O   LIG d   1      -7.045  89.820 114.430  0.00  0.00    -0.241 OA
ATOM     24  O   LIG d   1      -5.117  89.189 115.170  0.00  0.00    -0.241 OA
ENDBRANCH   3  22
TORSDOF 7
ENDMDL
MODEL 5
REMARK VINA RESULT:      -5.3      1.288      1.643
REMARK  7 active torsions:
REMARK  status: ('A' for Active; 'I' for Inactive)
REMARK    1  A    between atoms: C_2  and  C_3 
REMARK    2  A    between atoms: C_3  and  O_6 
REMARK    3  A    between atoms: C_3  and  C_4 
REMARK    4  A    between atoms: C_7  and  O_6 
REMARK    5  A    between atoms: C_9  and  C_10 
REMARK    6  A    between atoms: N_15  and  C_14 
REMARK    7  A    between atoms: N_20  and  C_19 
REMARK       I    between atoms: C_22  and  N_20 
ROOT
ATOM      1  C   LIG d   1       0.116  60.166 119.174  0.00  0.00     0.161 C 
ATOM      2  C   LIG d   1      -1.248  59.897 118.969  0.00  0.00     0.016 C 
ATOM      3  C   LIG d   1      -1.798  59.584 117.705  0.00  0.00     0.038 C 
ATOM      4  C   LIG d   1      -0.990  59.368 116.578  0.00  0.00     0.028 C 
ATOM      5  C   LIG d   1       0.334  60.121 116.628  0.00  0.00    -0.047 C 
ATOM      6  C   LIG d   1       1.029  59.825 117.977  0.00  0.00     0.091 C 
ENDROOT
BRANCH   1   7
ATOM      7  O   LIG d   1       0.574  59.489 120.361  0.00  0.00    -0.368 OA
BRANCH   7   8
ATOM      8  C   LIG d   1      -0.077  58.232 120.670  0.00  0.00     0.119 C 
BRANCH   8   9
ATOM      9  C   LIG d   1      -0.420  58.244 122.172  0.00  0.00     0.028 C 
ATOM     10  C   LIG d   1      -1.936  58.222 122.429  0.00  0.00     0.006 C 
ENDBRANCH   8   9
BRANCH   8  11
ATOM     11  C   LIG d   1       0.878  57.049 120.481  0.00  0.00     0.028 C 
ATOM     12  C   LIG d   1       0.346  56.007 119.485  0.00  0.00     0.006 C 
ENDBRANCH   8  11
ENDBRANCH   7   8
ENDBRANCH   1   7
BRANCH   6  13
ATOM     13  N   LIG d   1       2.292  60.590 118.144  0.00  0.00    -0.311 N 
ATOM     14  C   LIG d   1       3.428  60.044 118.576  0.00  0.00     0.210 C 
ATOM     15  C   LIG d   1       4.607  61.014 118.695  0.00  0.00     0.109 C 
ATOM     16  O   LIG d   1       3.579  58.842 118.842  0.00  0.00    -0.276 OA
ATOM     17  H   LIG d   1       2.268  61.566 117.921  0.00  0.00     0.149 HD
ENDBRANCH   6  13
BRANCH   5  18
ATOM     18  N   LIG d   1       1.132  59.698 115.462  0.00  0.00     0.381 N 
ATOM     19  H   LIG d   1       0.620  59.026 114.927  0.00  0.00    -0.090 HD
ATOM     20  H   LIG d   1       1.978  59.264 115.787  0.00  0.00    -0.090 HD
ATOM     21  H   LIG d   1       1.352  60.487 114.895  0.00  0.00    -0.090 HD
ENDBRANCH   5  18
BRANCH   3  22
ATOM     22  C   LIG d   1      -3.174  59.523 117.550  0.00  0.00     0.382 C 
ATOM     23  O   LIG d   1      -3.798  58.487 117.886  0.00  0.00    -0.241 OA
ATOM     24  O   LIG d   1      -3.795  60.474 117.038  0.00  0.00    -0.241 OA
ENDBRANCH   3  22
TORSDOF 7
ENDMDL
MODEL 6
REMARK VINA RESULT:      -5.2     16.975     18.790
REMARK  7 active torsions:
REMARK  status: ('A' for Active; 'I' for Inactive)
REMARK    1  A    between atoms: C_2  and  C_3 
REMARK    2  A    between atoms: C_3  and  O_6 
REMARK    3  A    between atoms: C_3  and  C_4 
REMARK    4  A    between atoms: C_7  and  O_6 
REMARK    5  A    between atoms: C_9  and  C_10 
REMARK    6  A    between atoms: N_15  and  C_14 
REMARK    7  A    between atoms: N_20  and  C_19 
REMARK       I    between atoms: C_22  and  N_20 
ROOT
ATOM      1  C   LIG d   1      -3.128  76.812 116.790  0.00  0.00     0.161 C 
ATOM      2  C   LIG d   1      -3.283  77.440 115.543  0.00  0.00     0.016 C 
ATOM      3  C   LIG d   1      -2.366  77.293 114.478  0.00  0.00     0.038 C 
ATOM      4  C   LIG d   1      -1.302  76.380 114.536  0.00  0.00     0.028 C 
ATOM      5  C   LIG d   1      -0.819  76.104 115.956  0.00  0.00    -0.047 C 
ATOM      6  C   LIG d   1      -2.033  75.726 116.834  0.00  0.00     0.091 C 
ENDROOT
BRANCH   1   7
ATOM      7  O   LIG d   1      -4.390  76.269 117.225  0.00  0.00    -0.368 OA
BRANCH   7   8
ATOM      8  C   LIG d   1      -5.485  76.367 116.281  0.00  0.00     0.119 C 
BRANCH   8   9
ATOM      9  C   LIG d   1      -6.760  76.693 117.083  0.00  0.00     0.028 C 
ATOM     10  C   LIG d   1      -7.991  75.932 116.561  0.00  0.00     0.006 C 
ENDBRANCH   8   9
BRANCH   8  11
ATOM     11  C   LIG d   1      -5.762  75.020 115.607  0.00  0.00     0.028 C 
ATOM     12  C   LIG d   1      -5.302  74.981 114.141  0.00  0.00     0.006 C 
ENDBRANCH   8  11
ENDBRANCH   7   8
ENDBRANCH   1   7
BRANCH   6  13
ATOM     13  N   LIG d   1      -1.660  75.521 118.258  0.00  0.00    -0.311 N 
ATOM     14  C   LIG d   1      -1.311  74.338 118.762  0.00  0.00     0.210 C 
ATOM     15  C   LIG d   1      -0.984  74.344 120.258  0.00  0.00     0.109 C 
ATOM     16  O   LIG d   1      -1.210  73.291 118.104  0.00  0.00    -0.276 OA
ATOM     17  H   LIG d   1      -1.685  76.323 118.856  0.00  0.00     0.149 HD
ENDBRANCH   6  13
BRANCH   5  18
ATOM     18  N   LIG d   1       0.196  75.036 115.881  0.00  0.00     0.381 N 
ATOM     19  H   LIG d   1       0.943  75.233 116.516  0.00  0.00    -0.090 HD
ATOM     20  H   LIG d   1       0.573  75.010 114.949  0.00  0.00    -0.090 HD
ATOM     21  H   LIG d   1      -0.217  74.157 116.104  0.00  0.00    -0.090 HD
ENDBRANCH   5  18
BRANCH   3  22
ATOM     22  C   LIG d   1      -2.486  78.094 113.352  0.00  0.00     0.382 C 
ATOM     23  O   LIG d   1      -2.285  77.608 112.213  0.00  0.00    -0.241 OA
ATOM     24  O   LIG d   1      -2.748  79.306 113.464  0.00  0.00    -0.241 OA
ENDBRANCH   3  22
TORSDOF 7
ENDMDL
MODEL 7
REMARK VINA RESULT:      -5.1     20.125     22.258
REMARK  7 active torsions:
REMARK  status: ('A' for Active; 'I' for Inactive)
REMARK    1  A    between atoms: C_2  and  C_3 
REMARK    2  A    between atoms: C_3  and  O_6 
REMARK    3  A    between atoms: C_3  and  C_4 
REMARK    4  A    between atoms: C_7  and  O_6 
REMARK    5  A    between atoms: C_9  and  C_10 
REMARK    6  A    between atoms: N_15  and  C_14 
REMARK    7  A    between atoms: N_20  and  C_19 
REMARK       I    between atoms: C_22  and  N_20 
ROOT
ATOM      1  C   LIG d   1      -7.259  78.308 117.780  0.00  0.00     0.161 C 
ATOM      2  C   LIG d   1      -6.189  78.251 116.872  0.00  0.00     0.016 C 
ATOM      3  C   LIG d   1      -5.842  77.086 116.150  0.00  0.00     0.038 C 
ATOM      4  C   LIG d   1      -6.641  75.933 116.175  0.00  0.00     0.028 C 
ATOM      5  C   LIG d   1      -7.443  75.779 117.463  0.00  0.00    -0.047 C 
ATOM      6  C   LIG d   1      -8.209  77.093 117.736  0.00  0.00     0.091 C 
ENDROOT
BRANCH   1   7
ATOM      7  O   LIG d   1      -7.999  79.530 117.587  0.00  0.00    -0.368 OA
BRANCH   7   8
ATOM      8  C   LIG d   1      -7.983  80.466 118.694  0.00  0.00     0.119 C 
BRANCH   8   9
ATOM      9  C   LIG d   1      -9.429  80.953 118.908  0.00  0.00     0.028 C 
ATOM     10  C   LIG d   1     -10.133  81.302 117.587  0.00  0.00     0.006 C 
ENDBRANCH   8   9
BRANCH   8  11
ATOM     11  C   LIG d   1      -7.179  81.723 118.349  0.00  0.00     0.028 C 
ATOM     12  C   LIG d   1      -6.797  82.545 119.590  0.00  0.00     0.006 C 
ENDBRANCH   8  11
ENDBRANCH   7   8
ENDBRANCH   1   7
BRANCH   6  13
ATOM     13  N   LIG d   1      -8.954  77.058 119.023  0.00  0.00    -0.311 N 
ATOM     14  C   LIG d   1     -10.229  77.423 119.142  0.00  0.00     0.210 C 
ATOM     15  C   LIG d   1     -10.798  77.329 120.561  0.00  0.00     0.109 C 
ATOM     16  O   LIG d   1     -10.952  77.786 118.202  0.00  0.00    -0.276 OA
ATOM     17  H   LIG d   1      -8.452  76.747 119.831  0.00  0.00     0.149 HD
ENDBRANCH   6  13
BRANCH   5  18
ATOM     18  N   LIG d   1      -8.332  74.614 117.297  0.00  0.00     0.381 N 
ATOM     19  H   LIG d   1      -7.933  73.816 117.750  0.00  0.00    -0.090 HD
ATOM     20  H   LIG d   1      -8.421  74.410 116.317  0.00  0.00    -0.090 HD
ATOM     21  H   LIG d   1      -9.229  74.812 117.685  0.00  0.00    -0.090 HD
ENDBRANCH   5  18
BRANCH   3  22
ATOM     22  C   LIG d   1      -4.661  77.054 115.424  0.00  0.00     0.382 C 
ATOM     23  O   LIG d   1      -4.313  75.999 114.840  0.00  0.00    -0.241 OA
ATOM     24  O   LIG d   1      -3.918  78.052 115.381  0.00  0.00    -0.241 OA
ENDBRANCH   3  22
TORSDOF 7
ENDMDL
MODEL 8
REMARK VINA RESULT:      -5.0     19.409     21.269
REMARK  7 active torsions:
REMARK  status: ('A' for Active; 'I' for Inactive)
REMARK    1  A    between atoms: C_2  and  C_3 
REMARK    2  A    between atoms: C_3  and  O_6 
REMARK    3  A    between atoms: C_3  and  C_4 
REMARK    4  A    between atoms: C_7  and  O_6 
REMARK    5  A    between atoms: C_9  and  C_10 
REMARK    6  A    between atoms: N_15  and  C_14 
REMARK    7  A    between atoms: N_20  and  C_19 
REMARK       I    between atoms: C_22  and  N_20 
ROOT
ATOM      1  C   LIG d   1      -6.321  77.805 117.295  0.00  0.00     0.161 C 
ATOM      2  C   LIG d   1      -6.408  76.451 116.932  0.00  0.00     0.016 C 
ATOM      3  C   LIG d   1      -7.601  75.698 117.017  0.00  0.00     0.038 C 
ATOM      4  C   LIG d   1      -8.833  76.293 117.330  0.00  0.00     0.028 C 
ATOM      5  C   LIG d   1      -8.699  77.544 118.191  0.00  0.00    -0.047 C 
ATOM      6  C   LIG d   1      -7.678  78.500 117.532  0.00  0.00     0.091 C 
ENDROOT
BRANCH   1   7
ATOM      7  O   LIG d   1      -5.555  78.526 116.309  0.00  0.00    -0.368 OA
BRANCH   7   8
ATOM      8  C   LIG d   1      -4.240  78.971 116.725  0.00  0.00     0.119 C 
BRANCH   8   9
ATOM      9  C   LIG d   1      -3.204  78.068 116.027  0.00  0.00     0.028 C 
ATOM     10  C   LIG d   1      -2.650  76.980 116.963  0.00  0.00     0.006 C 
ENDBRANCH   8   9
BRANCH   8  11
ATOM     11  C   LIG d   1      -4.025  78.751 118.225  0.00  0.00     0.028 C 
ATOM     12  C   LIG d   1      -3.830  80.064 118.998  0.00  0.00     0.006 C 
ENDBRANCH   8  11
ENDBRANCH   7   8
ENDBRANCH   1   7
BRANCH   6  13
ATOM     13  N   LIG d   1      -7.425  79.712 118.353  0.00  0.00    -0.311 N 
ATOM     14  C   LIG d   1      -7.493  80.952 117.871  0.00  0.00     0.210 C 
ATOM     15  C   LIG d   1      -7.176  82.058 118.883  0.00  0.00     0.109 C 
ATOM     16  O   LIG d   1      -7.817  81.242 116.709  0.00  0.00    -0.276 OA
ATOM     17  H   LIG d   1      -7.186  79.570 119.315  0.00  0.00     0.149 HD
ENDBRANCH   6  13
BRANCH   5  18
ATOM     18  N   LIG d   1     -10.043  78.138 118.325  0.00  0.00     0.381 N 
ATOM     19  H   LIG d   1     -10.626  77.831 117.572  0.00  0.00    -0.090 HD
ATOM     20  H   LIG d   1      -9.963  79.138 118.274  0.00  0.00    -0.090 HD
ATOM     21  H   LIG d   1     -10.447  77.874 119.197  0.00  0.00    -0.090 HD
ENDBRANCH   5  18
BRANCH   3  22
ATOM     22  C   LIG d   1      -7.563  74.325 116.826  0.00  0.00     0.382 C 
ATOM     23  O   LIG d   1      -6.628  73.810 116.167  0.00  0.00    -0.241 OA
ATOM     24  O   LIG d   1      -8.475  73.600 117.266  0.00  0.00    -0.241 OA
ENDBRANCH   3  22
TORSDOF 7
ENDMDL
MODEL 9
REMARK VINA RESULT:      -4.9      2.607      4.481
REMARK  7 active torsions:
REMARK  status: ('A' for Active; 'I' for Inactive)
REMARK    1  A    between atoms: C_2  and  C_3 
REMARK    2  A    between atoms: C_3  and  O_6 
REMARK    3  A    between atoms: C_3  and  C_4 
REMARK    4  A    between atoms: C_7  and  O_6 
REMARK    5  A    between atoms: C_9  and  C_10 
REMARK    6  A    between atoms: N_15  and  C_14 
REMARK    7  A    between atoms: N_20  and  C_19 
REMARK       I    between atoms: C_22  and  N_20 
ROOT
ATOM      1  C   LIG d   1       1.939  58.485 118.630  0.00  0.00     0.161 C 
ATOM      2  C   LIG d   1       1.437  59.316 117.614  0.00  0.00     0.016 C 
ATOM      3  C   LIG d   1       0.309  58.988 116.828  0.00  0.00     0.038 C 
ATOM      4  C   LIG d   1      -0.490  57.869 117.106  0.00  0.00     0.028 C 
ATOM      5  C   LIG d   1       0.269  56.740 117.796  0.00  0.00    -0.047 C 
ATOM      6  C   LIG d   1       1.015  57.313 119.023  0.00  0.00     0.091 C 
ENDROOT
BRANCH   1   7
ATOM      7  O   LIG d   1       2.266  59.276 119.790  0.00  0.00    -0.368 OA
BRANCH   7   8
ATOM      8  C   LIG d   1       2.235  60.713 119.612  0.00  0.00     0.119 C 
BRANCH   8   9
ATOM      9  C   LIG d   1       3.631  61.255 119.979  0.00  0.00     0.028 C 
ATOM     10  C   LIG d   1       4.619  61.174 118.804  0.00  0.00     0.006 C 
ENDBRANCH   8   9
BRANCH   8  11
ATOM     11  C   LIG d   1       1.270  61.377 120.598  0.00  0.00     0.028 C 
ATOM     12  C   LIG d   1      -0.203  61.219 120.188  0.00  0.00     0.006 C 
ENDBRANCH   8  11
ENDBRANCH   7   8
ENDBRANCH   1   7
BRANCH   6  13
ATOM     13  N   LIG d   1       1.850  56.292 119.707  0.00  0.00    -0.311 N 
ATOM     14  C   LIG d   1       2.795  55.585 119.089  0.00  0.00     0.210 C 
ATOM     15  C   LIG d   1       3.526  54.570 119.974  0.00  0.00     0.109 C 
ATOM     16  O   LIG d   1       3.121  55.725 117.901  0.00  0.00    -0.276 OA
ATOM     17  H   LIG d   1       1.674  56.136 120.680  0.00  0.00     0.149 HD
ENDBRANCH   6  13
BRANCH   5  18
ATOM     18  N   LIG d   1      -0.711  55.697 118.151  0.00  0.00     0.381 N 
ATOM     19  H   LIG d   1      -1.538  56.121 118.523  0.00  0.00    -0.090 HD
ATOM     20  H   LIG d   1      -0.314  55.106 118.860  0.00  0.00    -0.090 HD
ATOM     21  H   LIG d   1      -0.940  55.155 117.347  0.00  0.00    -0.090 HD
ENDBRANCH   5  18
BRANCH   3  22
ATOM     22  C   LIG d   1      -0.007  59.764 115.722  0.00  0.00     0.382 C 
ATOM     23  O   LIG d   1      -1.111  60.357 115.668  0.00  0.00    -0.241 OA
ATOM     24  O   LIG d   1       0.780  59.842 114.760  0.00  0.00    -0.241 OA
ENDBRANCH   3  22
TORSDOF 7
ENDMDL
