MODEL 1
REMARK VINA RESULT:      -5.5      0.000      0.000
REMARK  7 active torsions:
REMARK  status: ('A' for Active; 'I' for Inactive)
REMARK    1  A    between atoms: C_2  and  C_3 
REMARK    2  A    between atoms: C_3  and  O_6 
REMARK    3  A    between atoms: C_3  and  C_4 
REMARK    4  A    between atoms: C_7  and  O_6 
REMARK    5  A    between atoms: C_9  and  C_10 
REMARK    6  A    between atoms: N_15  and  C_14 
REMARK    7  A    between atoms: N_20  and  C_19 
REMARK       I    between atoms: C_22  and  N_20 
ROOT
ATOM      1  C   LIG d   1      -7.515  75.643 117.776  0.00  0.00     0.161 C 
ATOM      2  C   LIG d   1      -8.851  75.898 118.127  0.00  0.00     0.016 C 
ATOM      3  C   LIG d   1      -9.338  77.186 118.449  0.00  0.00     0.038 C 
ATOM      4  C   LIG d   1      -8.551  78.337 118.292  0.00  0.00     0.028 C 
ATOM      5  C   LIG d   1      -7.056  78.071 118.425  0.00  0.00    -0.047 C 
ATOM      6  C   LIG d   1      -6.669  76.901 117.491  0.00  0.00     0.091 C 
ENDROOT
BRANCH   1   7
ATOM      7  O   LIG d   1      -7.470  74.744 116.650  0.00  0.00    -0.368 OA
BRANCH   7   8
ATOM      8  C   LIG d   1      -7.181  73.357 116.953  0.00  0.00     0.119 C 
BRANCH   8   9
ATOM      9  C   LIG d   1      -6.312  72.804 115.806  0.00  0.00     0.028 C 
ATOM     10  C   LIG d   1      -5.556  73.913 115.056  0.00  0.00     0.006 C 
ENDBRANCH   8   9
BRANCH   8  11
ATOM     11  C   LIG d   1      -8.455  72.507 116.942  0.00  0.00     0.028 C 
ATOM     12  C   LIG d   1      -8.165  70.999 116.862  0.00  0.00     0.006 C 
ENDBRANCH   8  11
ENDBRANCH   7   8
ENDBRANCH   1   7
BRANCH   6  13
ATOM     13  N   LIG d   1      -5.239  76.520 117.622  0.00  0.00    -0.311 N 
ATOM     14  C   LIG d   1      -4.279  76.988 116.826  0.00  0.00     0.210 C 
ATOM     15  C   LIG d   1      -2.875  76.452 117.121  0.00  0.00     0.109 C 
ATOM     16  O   LIG d   1      -4.453  77.822 115.924  0.00  0.00    -0.276 OA
ATOM     17  H   LIG d   1      -5.004  75.872 118.348  0.00  0.00     0.149 HD
ENDBRANCH   6  13
BRANCH   5  18
ATOM     18  N   LIG d   1      -6.349  79.325 118.103  0.00  0.00     0.381 N 
ATOM     19  H   LIG d   1      -6.223  79.398 117.114  0.00  0.00    -0.090 HD
ATOM     20  H   LIG d   1      -5.443  79.308 118.537  0.00  0.00    -0.090 HD
ATOM     21  H   LIG d   1      -6.871  80.105 118.437  0.00  0.00    -0.090 HD
ENDBRANCH   5  18
BRANCH   3  22
ATOM     22  C   LIG d   1     -10.615  77.328 118.971  0.00  0.00     0.382 C 
ATOM     23  O   LIG d   1     -11.572  76.691 118.468  0.00  0.00    -0.241 OA
ATOM     24  O   LIG d   1     -10.829  78.117 119.910  0.00  0.00    -0.241 OA
ENDBRANCH   3  22
TORSDOF 7
ENDMDL
MODEL 2
REMARK VINA RESULT:      -5.4     15.339     17.994
REMARK  7 active torsions:
REMARK  status: ('A' for Active; 'I' for Inactive)
REMARK    1  A    between atoms: C_2  and  C_3 
REMARK    2  A    between atoms: C_3  and  O_6 
REMARK    3  A    between atoms: C_3  and  C_4 
REMARK    4  A    between atoms: C_7  and  O_6 
REMARK    5  A    between atoms: C_9  and  C_10 
REMARK    6  A    between atoms: N_15  and  C_14 
REMARK    7  A    between atoms: N_20  and  C_19 
REMARK       I    between atoms: C_22  and  N_20 
ROOT
ATOM      1  C   LIG d   1      -5.875  93.257 118.163  0.00  0.00     0.161 C 
ATOM      2  C   LIG d   1      -6.718  92.481 117.351  0.00  0.00     0.016 C 
ATOM      3  C   LIG d   1      -6.246  91.481 116.469  0.00  0.00     0.038 C 
ATOM      4  C   LIG d   1      -4.901  91.084 116.451  0.00  0.00     0.028 C 
ATOM      5  C   LIG d   1      -3.939  92.185 116.886  0.00  0.00    -0.047 C 
ATOM      6  C   LIG d   1      -4.415  92.762 118.238  0.00  0.00     0.091 C 
ENDROOT
BRANCH   1   7
ATOM      7  O   LIG d   1      -6.435  93.367 119.486  0.00  0.00    -0.368 OA
BRANCH   7   8
ATOM      8  C   LIG d   1      -6.964  94.666 119.848  0.00  0.00     0.119 C 
BRANCH   8   9
ATOM      9  C   LIG d   1      -8.498  94.595 119.717  0.00  0.00     0.028 C 
ATOM     10  C   LIG d   1      -9.032  95.491 118.587  0.00  0.00     0.006 C 
ENDBRANCH   8   9
BRANCH   8  11
ATOM     11  C   LIG d   1      -6.522  95.745 118.854  0.00  0.00     0.028 C 
ATOM     12  C   LIG d   1      -5.658  96.837 119.506  0.00  0.00     0.006 C 
ENDBRANCH   8  11
ENDBRANCH   7   8
ENDBRANCH   1   7
BRANCH   6  13
ATOM     13  N   LIG d   1      -3.577  93.902 118.694  0.00  0.00    -0.311 N 
ATOM     14  C   LIG d   1      -2.548  93.767 119.529  0.00  0.00     0.210 C 
ATOM     15  C   LIG d   1      -1.830  95.072 119.887  0.00  0.00     0.109 C 
ATOM     16  O   LIG d   1      -2.142  92.686 119.982  0.00  0.00    -0.276 OA
ATOM     17  H   LIG d   1      -3.817  94.811 118.350  0.00  0.00     0.149 HD
ENDBRANCH   6  13
BRANCH   5  18
ATOM     18  N   LIG d   1      -2.588  91.595 116.952  0.00  0.00     0.381 N 
ATOM     19  H   LIG d   1      -2.008  91.996 116.243  0.00  0.00    -0.090 HD
ATOM     20  H   LIG d   1      -2.656  90.607 116.783  0.00  0.00    -0.090 HD
ATOM     21  H   LIG d   1      -2.189  91.759 117.850  0.00  0.00    -0.090 HD
ENDBRANCH   5  18
BRANCH   3  22
ATOM     22  C   LIG d   1      -7.118  90.895 115.565  0.00  0.00     0.382 C 
ATOM     23  O   LIG d   1      -7.237  91.371 114.410  0.00  0.00    -0.241 OA
ATOM     24  O   LIG d   1      -7.821  89.924 115.903  0.00  0.00    -0.241 OA
ENDBRANCH   3  22
TORSDOF 7
ENDMDL
MODEL 3
REMARK VINA RESULT:      -5.4      3.888      6.551
REMARK  7 active torsions:
REMARK  status: ('A' for Active; 'I' for Inactive)
REMARK    1  A    between atoms: C_2  and  C_3 
REMARK    2  A    between atoms: C_3  and  O_6 
REMARK    3  A    between atoms: C_3  and  C_4 
REMARK    4  A    between atoms: C_7  and  O_6 
REMARK    5  A    between atoms: C_9  and  C_10 
REMARK    6  A    between atoms: N_15  and  C_14 
REMARK    7  A    between atoms: N_20  and  C_19 
REMARK       I    between atoms: C_22  and  N_20 
ROOT
ATOM      1  C   LIG d   1      -2.904  75.930 116.120  0.00  0.00     0.161 C 
ATOM      2  C   LIG d   1      -3.313  76.717 115.030  0.00  0.00     0.016 C 
ATOM      3  C   LIG d   1      -2.442  77.121 113.992  0.00  0.00     0.038 C 
ATOM      4  C   LIG d   1      -1.130  76.634 113.893  0.00  0.00     0.028 C 
ATOM      5  C   LIG d   1      -0.526  76.244 115.238  0.00  0.00    -0.047 C 
ATOM      6  C   LIG d   1      -1.504  75.298 115.972  0.00  0.00     0.091 C 
ENDROOT
BRANCH   1   7
ATOM      7  O   LIG d   1      -3.889  74.911 116.383  0.00  0.00    -0.368 OA
BRANCH   7   8
ATOM      8  C   LIG d   1      -5.143  75.037 115.669  0.00  0.00     0.119 C 
BRANCH   8   9
ATOM      9  C   LIG d   1      -6.248  75.285 116.714  0.00  0.00     0.028 C 
ATOM     10  C   LIG d   1      -6.613  76.773 116.840  0.00  0.00     0.006 C 
ENDBRANCH   8   9
BRANCH   8  11
ATOM     11  C   LIG d   1      -5.525  73.725 114.978  0.00  0.00     0.028 C 
ATOM     12  C   LIG d   1      -6.370  72.804 115.873  0.00  0.00     0.006 C 
ENDBRANCH   8  11
ENDBRANCH   7   8
ENDBRANCH   1   7
BRANCH   6  13
ATOM     13  N   LIG d   1      -1.028  74.935 117.332  0.00  0.00    -0.311 N 
ATOM     14  C   LIG d   1      -0.646  73.705 117.671  0.00  0.00     0.210 C 
ATOM     15  C   LIG d   1      -0.210  73.543 119.131  0.00  0.00     0.109 C 
ATOM     16  O   LIG d   1      -0.596  72.741 116.894  0.00  0.00    -0.276 OA
ATOM     17  H   LIG d   1      -1.007  75.665 118.018  0.00  0.00     0.149 HD
ENDBRANCH   6  13
BRANCH   5  18
ATOM     18  N   LIG d   1       0.787  75.627 114.975  0.00  0.00     0.381 N 
ATOM     19  H   LIG d   1       0.661  74.706 114.605  0.00  0.00    -0.090 HD
ATOM     20  H   LIG d   1       1.291  75.553 115.841  0.00  0.00    -0.090 HD
ATOM     21  H   LIG d   1       1.303  76.184 114.329  0.00  0.00    -0.090 HD
ENDBRANCH   5  18
BRANCH   3  22
ATOM     22  C   LIG d   1      -2.871  78.052 113.058  0.00  0.00     0.382 C 
ATOM     23  O   LIG d   1      -3.937  77.859 112.424  0.00  0.00    -0.241 OA
ATOM     24  O   LIG d   1      -2.184  79.061 112.811  0.00  0.00    -0.241 OA
ENDBRANCH   3  22
TORSDOF 7
ENDMDL
MODEL 4
REMARK VINA RESULT:      -5.3     12.011     15.237
REMARK  7 active torsions:
REMARK  status: ('A' for Active; 'I' for Inactive)
REMARK    1  A    between atoms: C_2  and  C_3 
REMARK    2  A    between atoms: C_3  and  O_6 
REMARK    3  A    between atoms: C_3  and  C_4 
REMARK    4  A    between atoms: C_7  and  O_6 
REMARK    5  A    between atoms: C_9  and  C_10 
REMARK    6  A    between atoms: N_15  and  C_14 
REMARK    7  A    between atoms: N_20  and  C_19 
REMARK       I    between atoms: C_22  and  N_20 
ROOT
ATOM      1  C   LIG d   1     -16.370  64.625 116.561  0.00  0.00     0.161 C 
ATOM      2  C   LIG d   1     -15.767  65.871 116.802  0.00  0.00     0.016 C 
ATOM      3  C   LIG d   1     -15.355  66.748 115.772  0.00  0.00     0.038 C 
ATOM      4  C   LIG d   1     -15.656  66.502 114.424  0.00  0.00     0.028 C 
ATOM      5  C   LIG d   1     -15.814  65.021 114.099  0.00  0.00    -0.047 C 
ATOM      6  C   LIG d   1     -16.808  64.390 115.100  0.00  0.00     0.091 C 
ENDROOT
BRANCH   1   7
ATOM      7  O   LIG d   1     -17.486  64.442 117.454  0.00  0.00    -0.368 OA
BRANCH   7   8
ATOM      8  C   LIG d   1     -17.720  65.506 118.409  0.00  0.00     0.119 C 
BRANCH   8   9
ATOM      9  C   LIG d   1     -17.701  64.878 119.816  0.00  0.00     0.028 C 
ATOM     10  C   LIG d   1     -16.288  64.841 120.424  0.00  0.00     0.006 C 
ENDBRANCH   8   9
BRANCH   8  11
ATOM     11  C   LIG d   1     -19.122  66.101 118.249  0.00  0.00     0.028 C 
ATOM     12  C   LIG d   1     -19.169  67.251 117.231  0.00  0.00     0.006 C 
ENDBRANCH   8  11
ENDBRANCH   7   8
ENDBRANCH   1   7
BRANCH   6  13
ATOM     13  N   LIG d   1     -16.955  62.924 114.906  0.00  0.00    -0.311 N 
ATOM     14  C   LIG d   1     -17.898  62.377 114.139  0.00  0.00     0.210 C 
ATOM     15  C   LIG d   1     -17.885  60.846 114.092  0.00  0.00     0.109 C 
ATOM     16  O   LIG d   1     -18.722  63.016 113.468  0.00  0.00    -0.276 OA
ATOM     17  H   LIG d   1     -16.308  62.332 115.389  0.00  0.00     0.149 HD
ENDBRANCH   6  13
BRANCH   5  18
ATOM     18  N   LIG d   1     -16.262  64.917 112.697  0.00  0.00     0.381 N 
ATOM     19  H   LIG d   1     -16.728  64.044 112.554  0.00  0.00    -0.090 HD
ATOM     20  H   LIG d   1     -15.457  64.948 112.096  0.00  0.00    -0.090 HD
ATOM     21  H   LIG d   1     -16.877  65.670 112.479  0.00  0.00    -0.090 HD
ENDBRANCH   5  18
BRANCH   3  22
ATOM     22  C   LIG d   1     -14.596  67.866 116.084  0.00  0.00     0.382 C 
ATOM     23  O   LIG d   1     -14.893  68.981 115.593  0.00  0.00    -0.241 OA
ATOM     24  O   LIG d   1     -13.593  67.765 116.815  0.00  0.00    -0.241 OA
ENDBRANCH   3  22
TORSDOF 7
ENDMDL
MODEL 5
REMARK VINA RESULT:      -5.2     15.382     17.411
REMARK  7 active torsions:
REMARK  status: ('A' for Active; 'I' for Inactive)
REMARK    1  A    between atoms: C_2  and  C_3 
REMARK    2  A    between atoms: C_3  and  O_6 
REMARK    3  A    between atoms: C_3  and  C_4 
REMARK    4  A    between atoms: C_7  and  O_6 
REMARK    5  A    between atoms: C_9  and  C_10 
REMARK    6  A    between atoms: N_15  and  C_14 
REMARK    7  A    between atoms: N_20  and  C_19 
REMARK       I    between atoms: C_22  and  N_20 
ROOT
ATOM      1  C   LIG d   1      -3.900  92.132 117.631  0.00  0.00     0.161 C 
ATOM      2  C   LIG d   1      -4.518  91.532 116.522  0.00  0.00     0.016 C 
ATOM      3  C   LIG d   1      -5.887  91.698 116.210  0.00  0.00     0.038 C 
ATOM      4  C   LIG d   1      -6.702  92.604 116.905  0.00  0.00     0.028 C 
ATOM      5  C   LIG d   1      -6.248  92.848 118.341  0.00  0.00    -0.047 C 
ATOM      6  C   LIG d   1      -4.746  93.213 118.337  0.00  0.00     0.091 C 
ENDROOT
BRANCH   1   7
ATOM      7  O   LIG d   1      -2.620  92.672 117.244  0.00  0.00    -0.368 OA
BRANCH   7   8
ATOM      8  C   LIG d   1      -1.469  92.154 117.955  0.00  0.00     0.119 C 
BRANCH   8   9
ATOM      9  C   LIG d   1      -0.487  93.324 118.161  0.00  0.00     0.028 C 
ATOM     10  C   LIG d   1      -0.710  94.461 117.149  0.00  0.00     0.006 C 
ENDBRANCH   8   9
BRANCH   8  11
ATOM     11  C   LIG d   1      -0.707  91.128 117.111  0.00  0.00     0.028 C 
ATOM     12  C   LIG d   1      -0.890  89.688 117.614  0.00  0.00     0.006 C 
ENDBRANCH   8  11
ENDBRANCH   7   8
ENDBRANCH   1   7
BRANCH   6  13
ATOM     13  N   LIG d   1      -4.201  93.385 119.709  0.00  0.00    -0.311 N 
ATOM     14  C   LIG d   1      -3.515  94.459 120.095  0.00  0.00     0.210 C 
ATOM     15  C   LIG d   1      -3.027  94.427 121.547  0.00  0.00     0.109 C 
ATOM     16  O   LIG d   1      -3.293  95.450 119.384  0.00  0.00    -0.276 OA
ATOM     17  H   LIG d   1      -4.363  92.642 120.361  0.00  0.00     0.149 HD
ENDBRANCH   6  13
BRANCH   5  18
ATOM     18  N   LIG d   1      -7.100  93.913 118.903  0.00  0.00     0.381 N 
ATOM     19  H   LIG d   1      -6.542  94.713 119.122  0.00  0.00    -0.090 HD
ATOM     20  H   LIG d   1      -7.520  93.578 119.752  0.00  0.00    -0.090 HD
ATOM     21  H   LIG d   1      -7.809  94.162 118.249  0.00  0.00    -0.090 HD
ENDBRANCH   5  18
BRANCH   3  22
ATOM     22  C   LIG d   1      -6.465  90.922 115.216  0.00  0.00     0.382 C 
ATOM     23  O   LIG d   1      -7.554  91.272 114.701  0.00  0.00    -0.241 OA
ATOM     24  O   LIG d   1      -5.933  89.853 114.860  0.00  0.00    -0.241 OA
ENDBRANCH   3  22
TORSDOF 7
ENDMDL
MODEL 6
REMARK VINA RESULT:      -5.0      2.052      4.983
REMARK  7 active torsions:
REMARK  status: ('A' for Active; 'I' for Inactive)
REMARK    1  A    between atoms: C_2  and  C_3 
REMARK    2  A    between atoms: C_3  and  O_6 
REMARK    3  A    between atoms: C_3  and  C_4 
REMARK    4  A    between atoms: C_7  and  O_6 
REMARK    5  A    between atoms: C_9  and  C_10 
REMARK    6  A    between atoms: N_15  and  C_14 
REMARK    7  A    between atoms: N_20  and  C_19 
REMARK       I    between atoms: C_22  and  N_20 
ROOT
ATOM      1  C   LIG d   1      -7.003  75.643 117.681  0.00  0.00     0.161 C 
ATOM      2  C   LIG d   1      -7.647  74.400 117.565  0.00  0.00     0.016 C 
ATOM      3  C   LIG d   1      -7.179  73.355 116.736  0.00  0.00     0.038 C 
ATOM      4  C   LIG d   1      -5.942  73.428 116.078  0.00  0.00     0.028 C 
ATOM      5  C   LIG d   1      -5.507  74.855 115.765  0.00  0.00    -0.047 C 
ATOM      6  C   LIG d   1      -5.593  75.701 117.056  0.00  0.00     0.091 C 
ENDROOT
BRANCH   1   7
ATOM      7  O   LIG d   1      -6.954  76.041 119.065  0.00  0.00    -0.368 OA
BRANCH   7   8
ATOM      8  C   LIG d   1      -7.798  77.159 119.437  0.00  0.00     0.119 C 
BRANCH   8   9
ATOM      9  C   LIG d   1      -9.109  76.580 120.002  0.00  0.00     0.028 C 
ATOM     10  C   LIG d   1     -10.310  76.833 119.075  0.00  0.00     0.006 C 
ENDBRANCH   8   9
BRANCH   8  11
ATOM     11  C   LIG d   1      -8.211  77.977 118.210  0.00  0.00     0.028 C 
ATOM     12  C   LIG d   1      -7.730  79.435 118.277  0.00  0.00     0.006 C 
ENDBRANCH   8  11
ENDBRANCH   7   8
ENDBRANCH   1   7
BRANCH   6  13
ATOM     13  N   LIG d   1      -5.264  77.131 116.820  0.00  0.00    -0.311 N 
ATOM     14  C   LIG d   1      -4.338  77.794 117.510  0.00  0.00     0.210 C 
ATOM     15  C   LIG d   1      -4.171  79.266 117.121  0.00  0.00     0.109 C 
ATOM     16  O   LIG d   1      -3.616  77.294 118.386  0.00  0.00    -0.276 OA
ATOM     17  H   LIG d   1      -5.781  77.606 116.106  0.00  0.00     0.149 HD
ENDBRANCH   6  13
BRANCH   5  18
ATOM     18  N   LIG d   1      -4.143  74.792 115.205  0.00  0.00     0.381 N 
ATOM     19  H   LIG d   1      -3.526  75.358 115.752  0.00  0.00    -0.090 HD
ATOM     20  H   LIG d   1      -4.159  75.158 114.269  0.00  0.00    -0.090 HD
ATOM     21  H   LIG d   1      -3.822  73.850 115.195  0.00  0.00    -0.090 HD
ENDBRANCH   5  18
BRANCH   3  22
ATOM     22  C   LIG d   1      -7.971  72.235 116.528  0.00  0.00     0.382 C 
ATOM     23  O   LIG d   1      -7.495  71.230 115.947  0.00  0.00    -0.241 OA
ATOM     24  O   LIG d   1      -9.167  72.235 116.874  0.00  0.00    -0.241 OA
ENDBRANCH   3  22
TORSDOF 7
ENDMDL
MODEL 7
REMARK VINA RESULT:      -4.9      3.585      6.492
REMARK  7 active torsions:
REMARK  status: ('A' for Active; 'I' for Inactive)
REMARK    1  A    between atoms: C_2  and  C_3 
REMARK    2  A    between atoms: C_3  and  O_6 
REMARK    3  A    between atoms: C_3  and  C_4 
REMARK    4  A    between atoms: C_7  and  O_6 
REMARK    5  A    between atoms: C_9  and  C_10 
REMARK    6  A    between atoms: N_15  and  C_14 
REMARK    7  A    between atoms: N_20  and  C_19 
REMARK       I    between atoms: C_22  and  N_20 
ROOT
ATOM      1  C   LIG d   1      -3.276  75.096 116.068  0.00  0.00     0.161 C 
ATOM      2  C   LIG d   1      -2.758  74.267 117.077  0.00  0.00     0.016 C 
ATOM      3  C   LIG d   1      -1.392  74.245 117.442  0.00  0.00     0.038 C 
ATOM      4  C   LIG d   1      -0.471  75.166 116.921  0.00  0.00     0.028 C 
ATOM      5  C   LIG d   1      -0.847  75.681 115.535  0.00  0.00    -0.047 C 
ATOM      6  C   LIG d   1      -2.307  76.186 115.566  0.00  0.00     0.091 C 
ENDROOT
BRANCH   1   7
ATOM      7  O   LIG d   1      -4.513  75.689 116.510  0.00  0.00    -0.368 OA
BRANCH   7   8
ATOM      8  C   LIG d   1      -5.697  75.331 115.757  0.00  0.00     0.119 C 
BRANCH   8   9
ATOM      9  C   LIG d   1      -6.826  75.058 116.770  0.00  0.00     0.028 C 
ATOM     10  C   LIG d   1      -6.613  75.802 118.099  0.00  0.00     0.006 C 
ENDBRANCH   8   9
BRANCH   8  11
ATOM     11  C   LIG d   1      -5.501  74.012 115.004  0.00  0.00     0.028 C 
ATOM     12  C   LIG d   1      -6.211  72.828 115.680  0.00  0.00     0.006 C 
ENDBRANCH   8  11
ENDBRANCH   7   8
ENDBRANCH   1   7
BRANCH   6  13
ATOM     13  N   LIG d   1      -2.782  76.629 114.229  0.00  0.00    -0.311 N 
ATOM     14  C   LIG d   1      -2.678  77.884 113.793  0.00  0.00     0.210 C 
ATOM     15  C   LIG d   1      -3.249  78.131 112.393  0.00  0.00     0.109 C 
ATOM     16  O   LIG d   1      -2.139  78.808 114.420  0.00  0.00    -0.276 OA
ATOM     17  H   LIG d   1      -3.204  75.937 113.643  0.00  0.00     0.149 HD
ENDBRANCH   6  13
BRANCH   5  18
ATOM     18  N   LIG d   1       0.122  76.732 115.173  0.00  0.00     0.381 N 
ATOM     19  H   LIG d   1      -0.297  77.633 115.291  0.00  0.00    -0.090 HD
ATOM     20  H   LIG d   1       0.372  76.625 114.206  0.00  0.00    -0.090 HD
ATOM     21  H   LIG d   1       0.935  76.659 115.744  0.00  0.00    -0.090 HD
ENDBRANCH   5  18
BRANCH   3  22
ATOM     22  C   LIG d   1      -0.928  73.267 118.308  0.00  0.00     0.382 C 
ATOM     23  O   LIG d   1      -1.581  72.208 118.466  0.00  0.00    -0.241 OA
ATOM     24  O   LIG d   1       0.114  73.449 118.966  0.00  0.00    -0.241 OA
ENDBRANCH   3  22
TORSDOF 7
ENDMDL
MODEL 8
REMARK VINA RESULT:      -4.9     15.620     17.748
REMARK  7 active torsions:
REMARK  status: ('A' for Active; 'I' for Inactive)
REMARK    1  A    between atoms: C_2  and  C_3 
REMARK    2  A    between atoms: C_3  and  O_6 
REMARK    3  A    between atoms: C_3  and  C_4 
REMARK    4  A    between atoms: C_7  and  O_6 
REMARK    5  A    between atoms: C_9  and  C_10 
REMARK    6  A    between atoms: N_15  and  C_14 
REMARK    7  A    between atoms: N_20  and  C_19 
REMARK       I    between atoms: C_22  and  N_20 
ROOT
ATOM      1  C   LIG d   1      -3.581  92.496 117.828  0.00  0.00     0.161 C 
ATOM      2  C   LIG d   1      -4.339  91.929 116.790  0.00  0.00     0.016 C 
ATOM      3  C   LIG d   1      -5.745  92.049 116.698  0.00  0.00     0.038 C 
ATOM      4  C   LIG d   1      -6.476  92.878 117.561  0.00  0.00     0.028 C 
ATOM      5  C   LIG d   1      -5.819  93.064 118.924  0.00  0.00    -0.047 C 
ATOM      6  C   LIG d   1      -4.349  93.497 118.717  0.00  0.00     0.091 C 
ENDROOT
BRANCH   1   7
ATOM      7  O   LIG d   1      -2.396  93.114 117.287  0.00  0.00    -0.368 OA
BRANCH   7   8
ATOM      8  C   LIG d   1      -1.141  92.453 117.583  0.00  0.00     0.119 C 
BRANCH   8   9
ATOM      9  C   LIG d   1      -1.470  91.155 118.347  0.00  0.00     0.028 C 
ATOM     10  C   LIG d   1      -0.951  89.901 117.623  0.00  0.00     0.006 C 
ENDBRANCH   8   9
BRANCH   8  11
ATOM     11  C   LIG d   1      -0.287  93.284 118.545  0.00  0.00     0.028 C 
ATOM     12  C   LIG d   1      -0.206  94.765 118.142  0.00  0.00     0.006 C 
ENDBRANCH   8  11
ENDBRANCH   7   8
ENDBRANCH   1   7
BRANCH   6  13
ATOM     13  N   LIG d   1      -3.608  93.620 120.000  0.00  0.00    -0.311 N 
ATOM     14  C   LIG d   1      -3.098  94.767 120.445  0.00  0.00     0.210 C 
ATOM     15  C   LIG d   1      -2.355  94.668 121.781  0.00  0.00     0.109 C 
ATOM     16  O   LIG d   1      -3.219  95.862 119.876  0.00  0.00    -0.276 OA
ATOM     17  H   LIG d   1      -3.491  92.785 120.540  0.00  0.00     0.149 HD
ENDBRANCH   6  13
BRANCH   5  18
ATOM     18  N   LIG d   1      -6.614  94.057 119.671  0.00  0.00     0.381 N 
ATOM     19  H   LIG d   1      -7.417  94.320 119.135  0.00  0.00    -0.090 HD
ATOM     20  H   LIG d   1      -6.053  94.877 119.820  0.00  0.00    -0.090 HD
ATOM     21  H   LIG d   1      -6.899  93.677 120.546  0.00  0.00    -0.090 HD
ENDBRANCH   5  18
BRANCH   3  22
ATOM     22  C   LIG d   1      -6.438  91.302 115.757  0.00  0.00     0.382 C 
ATOM     23  O   LIG d   1      -6.144  91.398 114.541  0.00  0.00    -0.241 OA
ATOM     24  O   LIG d   1      -7.382  90.569 116.104  0.00  0.00    -0.241 OA
ENDBRANCH   3  22
TORSDOF 7
ENDMDL
MODEL 9
REMARK VINA RESULT:      -4.7      2.340      6.590
REMARK  7 active torsions:
REMARK  status: ('A' for Active; 'I' for Inactive)
REMARK    1  A    between atoms: C_2  and  C_3 
REMARK    2  A    between atoms: C_3  and  O_6 
REMARK    3  A    between atoms: C_3  and  C_4 
REMARK    4  A    between atoms: C_7  and  O_6 
REMARK    5  A    between atoms: C_9  and  C_10 
REMARK    6  A    between atoms: N_15  and  C_14 
REMARK    7  A    between atoms: N_20  and  C_19 
REMARK       I    between atoms: C_22  and  N_20 
ROOT
ATOM      1  C   LIG d   1      -6.341  77.254 117.475  0.00  0.00     0.161 C 
ATOM      2  C   LIG d   1      -5.360  76.938 116.522  0.00  0.00     0.016 C 
ATOM      3  C   LIG d   1      -5.280  75.684 115.873  0.00  0.00     0.038 C 
ATOM      4  C   LIG d   1      -6.275  74.707 116.025  0.00  0.00     0.028 C 
ATOM      5  C   LIG d   1      -7.008  74.790 117.359  0.00  0.00    -0.047 C 
ATOM      6  C   LIG d   1      -7.500  76.240 117.571  0.00  0.00     0.091 C 
ENDROOT
BRANCH   1   7
ATOM      7  O   LIG d   1      -6.854  78.579 117.228  0.00  0.00    -0.368 OA
BRANCH   7   8
ATOM      8  C   LIG d   1      -6.628  79.555 118.274  0.00  0.00     0.119 C 
BRANCH   8   9
ATOM      9  C   LIG d   1      -7.947  80.323 118.483  0.00  0.00     0.028 C 
ATOM     10  C   LIG d   1      -8.320  80.456 119.969  0.00  0.00     0.006 C 
ENDBRANCH   8   9
BRANCH   8  11
ATOM     11  C   LIG d   1      -5.608  80.612 117.839  0.00  0.00     0.028 C 
ATOM     12  C   LIG d   1      -4.493  80.826 118.875  0.00  0.00     0.006 C 
ENDBRANCH   8  11
ENDBRANCH   7   8
ENDBRANCH   1   7
BRANCH   6  13
ATOM     13  N   LIG d   1      -8.155  76.429 118.892  0.00  0.00    -0.311 N 
ATOM     14  C   LIG d   1      -9.392  76.904 119.035  0.00  0.00     0.210 C 
ATOM     15  C   LIG d   1      -9.868  77.039 120.485  0.00  0.00     0.109 C 
ATOM     16  O   LIG d   1     -10.151  77.195 118.099  0.00  0.00    -0.276 OA
ATOM     17  H   LIG d   1      -7.622  76.188 119.704  0.00  0.00     0.149 HD
ENDBRANCH   6  13
BRANCH   5  18
ATOM     18  N   LIG d   1      -8.106  73.806 117.327  0.00  0.00     0.381 N 
ATOM     19  H   LIG d   1      -8.285  73.467 118.251  0.00  0.00    -0.090 HD
ATOM     20  H   LIG d   1      -7.829  73.028 116.755  0.00  0.00    -0.090 HD
ATOM     21  H   LIG d   1      -8.929  74.225 116.954  0.00  0.00    -0.090 HD
ENDBRANCH   5  18
BRANCH   3  22
ATOM     22  C   LIG d   1      -4.174  75.383 115.093  0.00  0.00     0.382 C 
ATOM     23  O   LIG d   1      -3.854  76.136 114.142  0.00  0.00    -0.241 OA
ATOM     24  O   LIG d   1      -3.519  74.344 115.300  0.00  0.00    -0.241 OA
ENDBRANCH   3  22
TORSDOF 7
ENDMDL
