MODEL 1
REMARK VINA RESULT:      -6.6      0.000      0.000
REMARK  7 active torsions:
REMARK  status: ('A' for Active; 'I' for Inactive)
REMARK    1  A    between atoms: C_2  and  C_3 
REMARK    2  A    between atoms: C_3  and  O_6 
REMARK    3  A    between atoms: C_3  and  C_4 
REMARK    4  A    between atoms: C_7  and  O_6 
REMARK    5  A    between atoms: C_9  and  C_10 
REMARK    6  A    between atoms: N_15  and  C_14 
REMARK    7  A    between atoms: N_20  and  C_19 
REMARK       I    between atoms: C_22  and  N_20 
ROOT
ATOM      1  C   LIG d   1       0.213  82.904 110.651  0.00  0.00     0.161 C 
ATOM      2  C   LIG d   1       0.352  84.234 111.081  0.00  0.00     0.016 C 
ATOM      3  C   LIG d   1       0.848  85.270 110.257  0.00  0.00     0.038 C 
ATOM      4  C   LIG d   1       1.097  85.075 108.890  0.00  0.00     0.028 C 
ATOM      5  C   LIG d   1       1.449  83.634 108.538  0.00  0.00    -0.047 C 
ATOM      6  C   LIG d   1       0.374  82.695 109.131  0.00  0.00     0.091 C 
ENDROOT
BRANCH   1   7
ATOM      7  O   LIG d   1      -1.052  82.376 111.097  0.00  0.00    -0.368 OA
BRANCH   7   8
ATOM      8  C   LIG d   1      -1.120  81.973 112.487  0.00  0.00     0.119 C 
BRANCH   8   9
ATOM      9  C   LIG d   1      -0.010  80.931 112.722  0.00  0.00     0.028 C 
ATOM     10  C   LIG d   1       0.876  81.279 113.931  0.00  0.00     0.006 C 
ENDBRANCH   8   9
BRANCH   8  11
ATOM     11  C   LIG d   1      -2.432  81.244 112.793  0.00  0.00     0.028 C 
ATOM     12  C   LIG d   1      -2.342  79.729 112.548  0.00  0.00     0.006 C 
ENDBRANCH   8  11
ENDBRANCH   7   8
ENDBRANCH   1   7
BRANCH   6  13
ATOM     13  N   LIG d   1       0.688  81.260 108.904  0.00  0.00    -0.311 N 
ATOM     14  C   LIG d   1       1.776  80.663 109.386  0.00  0.00     0.210 C 
ATOM     15  C   LIG d   1       1.918  79.182 109.018  0.00  0.00     0.109 C 
ATOM     16  O   LIG d   1       2.622  81.210 110.109  0.00  0.00    -0.276 OA
ATOM     17  H   LIG d   1       0.039  80.733 108.354  0.00  0.00     0.149 HD
ENDBRANCH   6  13
BRANCH   5  18
ATOM     18  N   LIG d   1       1.548  83.546 107.069  0.00  0.00     0.381 N 
ATOM     19  H   LIG d   1       1.062  84.313 106.650  0.00  0.00    -0.090 HD
ATOM     20  H   LIG d   1       1.112  82.693 106.764  0.00  0.00    -0.090 HD
ATOM     21  H   LIG d   1       2.504  83.556 106.790  0.00  0.00    -0.090 HD
ENDBRANCH   5  18
BRANCH   3  22
ATOM     22  C   LIG d   1       1.137  86.509 110.809  0.00  0.00     0.382 C 
ATOM     23  O   LIG d   1       2.287  86.996 110.688  0.00  0.00    -0.241 OA
ATOM     24  O   LIG d   1       0.275  87.125 111.464  0.00  0.00    -0.241 OA
ENDBRANCH   3  22
TORSDOF 7
ENDMDL
MODEL 2
REMARK VINA RESULT:      -6.5      2.291      4.933
REMARK  7 active torsions:
REMARK  status: ('A' for Active; 'I' for Inactive)
REMARK    1  A    between atoms: C_2  and  C_3 
REMARK    2  A    between atoms: C_3  and  O_6 
REMARK    3  A    between atoms: C_3  and  C_4 
REMARK    4  A    between atoms: C_7  and  O_6 
REMARK    5  A    between atoms: C_9  and  C_10 
REMARK    6  A    between atoms: N_15  and  C_14 
REMARK    7  A    between atoms: N_20  and  C_19 
REMARK       I    between atoms: C_22  and  N_20 
ROOT
ATOM      1  C   LIG d   1       0.294  82.560 111.378  0.00  0.00     0.161 C 
ATOM      2  C   LIG d   1      -0.857  82.303 112.142  0.00  0.00     0.016 C 
ATOM      3  C   LIG d   1      -1.520  81.055 112.154  0.00  0.00     0.038 C 
ATOM      4  C   LIG d   1      -0.986  79.925 111.516  0.00  0.00     0.028 C 
ATOM      5  C   LIG d   1      -0.099  80.266 110.324  0.00  0.00    -0.047 C 
ATOM      6  C   LIG d   1       0.954  81.308 110.764  0.00  0.00     0.091 C 
ENDROOT
BRANCH   1   7
ATOM      7  O   LIG d   1       1.250  83.294 112.168  0.00  0.00    -0.368 OA
BRANCH   7   8
ATOM      8  C   LIG d   1       1.574  84.627 111.701  0.00  0.00     0.119 C 
BRANCH   8   9
ATOM      9  C   LIG d   1       3.058  84.883 112.026  0.00  0.00     0.028 C 
ATOM     10  C   LIG d   1       3.888  85.198 110.770  0.00  0.00     0.006 C 
ENDBRANCH   8   9
BRANCH   8  11
ATOM     11  C   LIG d   1       0.798  85.694 112.479  0.00  0.00     0.028 C 
ATOM     12  C   LIG d   1      -0.214  86.451 111.604  0.00  0.00     0.006 C 
ENDBRANCH   8  11
ENDBRANCH   7   8
ENDBRANCH   1   7
BRANCH   6  13
ATOM     13  N   LIG d   1       1.811  81.759 109.636  0.00  0.00    -0.311 N 
ATOM     14  C   LIG d   1       3.141  81.698 109.655  0.00  0.00     0.210 C 
ATOM     15  C   LIG d   1       3.832  82.234 108.397  0.00  0.00     0.109 C 
ATOM     16  O   LIG d   1       3.814  81.220 110.582  0.00  0.00    -0.276 OA
ATOM     17  H   LIG d   1       1.346  82.132 108.831  0.00  0.00     0.149 HD
ENDBRANCH   6  13
BRANCH   5  18
ATOM     18  N   LIG d   1       0.500  79.007 109.840  0.00  0.00     0.381 N 
ATOM     19  H   LIG d   1       0.169  78.808 108.917  0.00  0.00    -0.090 HD
ATOM     20  H   LIG d   1       0.215  78.258 110.446  0.00  0.00    -0.090 HD
ATOM     21  H   LIG d   1       1.493  79.082 109.836  0.00  0.00    -0.090 HD
ENDBRANCH   5  18
BRANCH   3  22
ATOM     22  C   LIG d   1      -2.754  80.938 112.777  0.00  0.00     0.382 C 
ATOM     23  O   LIG d   1      -3.191  79.806 113.094  0.00  0.00    -0.241 OA
ATOM     24  O   LIG d   1      -3.454  81.947 112.987  0.00  0.00    -0.241 OA
ENDBRANCH   3  22
TORSDOF 7
ENDMDL
MODEL 3
REMARK VINA RESULT:      -6.5      2.388      4.863
REMARK  7 active torsions:
REMARK  status: ('A' for Active; 'I' for Inactive)
REMARK    1  A    between atoms: C_2  and  C_3 
REMARK    2  A    between atoms: C_3  and  O_6 
REMARK    3  A    between atoms: C_3  and  C_4 
REMARK    4  A    between atoms: C_7  and  O_6 
REMARK    5  A    between atoms: C_9  and  C_10 
REMARK    6  A    between atoms: N_15  and  C_14 
REMARK    7  A    between atoms: N_20  and  C_19 
REMARK       I    between atoms: C_22  and  N_20 
ROOT
ATOM      1  C   LIG d   1       0.290  82.894 111.667  0.00  0.00     0.161 C 
ATOM      2  C   LIG d   1       1.218  83.109 110.635  0.00  0.00     0.016 C 
ATOM      3  C   LIG d   1       1.497  82.157 109.627  0.00  0.00     0.038 C 
ATOM      4  C   LIG d   1       0.751  80.976 109.497  0.00  0.00     0.028 C 
ATOM      5  C   LIG d   1       0.152  80.490 110.812  0.00  0.00    -0.047 C 
ATOM      6  C   LIG d   1      -0.613  81.657 111.477  0.00  0.00     0.091 C 
ENDROOT
BRANCH   1   7
ATOM      7  O   LIG d   1      -0.512  84.076 111.858  0.00  0.00    -0.368 OA
BRANCH   7   8
ATOM      8  C   LIG d   1       0.199  85.338 111.846  0.00  0.00     0.119 C 
BRANCH   8   9
ATOM      9  C   LIG d   1       0.030  85.977 113.238  0.00  0.00     0.028 C 
ATOM     10  C   LIG d   1      -0.304  84.940 114.324  0.00  0.00     0.006 C 
ENDBRANCH   8   9
BRANCH   8  11
ATOM     11  C   LIG d   1      -0.437  86.327 110.865  0.00  0.00     0.028 C 
ATOM     12  C   LIG d   1      -0.441  85.812 109.418  0.00  0.00     0.006 C 
ENDBRANCH   8  11
ENDBRANCH   7   8
ENDBRANCH   1   7
BRANCH   6  13
ATOM     13  N   LIG d   1      -1.160  81.291 112.810  0.00  0.00    -0.311 N 
ATOM     14  C   LIG d   1      -2.454  81.358 113.115  0.00  0.00     0.210 C 
ATOM     15  C   LIG d   1      -2.802  80.953 114.551  0.00  0.00     0.109 C 
ATOM     16  O   LIG d   1      -3.351  81.683 112.323  0.00  0.00    -0.276 OA
ATOM     17  H   LIG d   1      -0.505  80.986 113.503  0.00  0.00     0.149 HD
ENDBRANCH   6  13
BRANCH   5  18
ATOM     18  N   LIG d   1      -0.711  79.332 110.508  0.00  0.00     0.381 N 
ATOM     19  H   LIG d   1      -0.593  79.064 109.552  0.00  0.00    -0.090 HD
ATOM     20  H   LIG d   1      -1.670  79.597 110.645  0.00  0.00    -0.090 HD
ATOM     21  H   LIG d   1      -0.481  78.569 111.106  0.00  0.00    -0.090 HD
ENDBRANCH   5  18
BRANCH   3  22
ATOM     22  C   LIG d   1       2.559  82.364 108.761  0.00  0.00     0.382 C 
ATOM     23  O   LIG d   1       2.438  83.163 107.800  0.00  0.00    -0.241 OA
ATOM     24  O   LIG d   1       3.622  81.730 108.901  0.00  0.00    -0.241 OA
ENDBRANCH   3  22
TORSDOF 7
ENDMDL
MODEL 4
REMARK VINA RESULT:      -6.3      2.381      4.739
REMARK  7 active torsions:
REMARK  status: ('A' for Active; 'I' for Inactive)
REMARK    1  A    between atoms: C_2  and  C_3 
REMARK    2  A    between atoms: C_3  and  O_6 
REMARK    3  A    between atoms: C_3  and  C_4 
REMARK    4  A    between atoms: C_7  and  O_6 
REMARK    5  A    between atoms: C_9  and  C_10 
REMARK    6  A    between atoms: N_15  and  C_14 
REMARK    7  A    between atoms: N_20  and  C_19 
REMARK       I    between atoms: C_22  and  N_20 
ROOT
ATOM      1  C   LIG d   1       0.309  83.036 111.438  0.00  0.00     0.161 C 
ATOM      2  C   LIG d   1       1.110  83.363 110.332  0.00  0.00     0.016 C 
ATOM      3  C   LIG d   1       1.352  82.477 109.257  0.00  0.00     0.038 C 
ATOM      4  C   LIG d   1       0.683  81.249 109.144  0.00  0.00     0.028 C 
ATOM      5  C   LIG d   1       0.256  80.666 110.487  0.00  0.00    -0.047 C 
ATOM      6  C   LIG d   1      -0.518  81.744 111.279  0.00  0.00     0.091 C 
ENDROOT
BRANCH   1   7
ATOM      7  O   LIG d   1      -0.552  84.146 111.763  0.00  0.00    -0.368 OA
BRANCH   7   8
ATOM      8  C   LIG d   1      -0.233  84.866 112.979  0.00  0.00     0.119 C 
BRANCH   8   9
ATOM      9  C   LIG d   1       0.259  86.268 112.571  0.00  0.00     0.028 C 
ATOM     10  C   LIG d   1      -0.405  86.769 111.277  0.00  0.00     0.006 C 
ENDBRANCH   8   9
BRANCH   8  11
ATOM     11  C   LIG d   1       0.945  84.222 113.715  0.00  0.00     0.028 C 
ATOM     12  C   LIG d   1       2.102  85.203 113.962  0.00  0.00     0.006 C 
ENDBRANCH   8  11
ENDBRANCH   7   8
ENDBRANCH   1   7
BRANCH   6  13
ATOM     13  N   LIG d   1      -0.900  81.283 112.639  0.00  0.00    -0.311 N 
ATOM     14  C   LIG d   1      -2.152  81.295 113.093  0.00  0.00     0.210 C 
ATOM     15  C   LIG d   1      -2.324  80.796 114.531  0.00  0.00     0.109 C 
ATOM     16  O   LIG d   1      -3.142  81.640 112.429  0.00  0.00    -0.276 OA
ATOM     17  H   LIG d   1      -0.163  80.957 113.233  0.00  0.00     0.149 HD
ENDBRANCH   6  13
BRANCH   5  18
ATOM     18  N   LIG d   1      -0.548  79.460 110.213  0.00  0.00     0.381 N 
ATOM     19  H   LIG d   1      -0.993  79.151 111.055  0.00  0.00    -0.090 HD
ATOM     20  H   LIG d   1       0.061  78.729 109.892  0.00  0.00    -0.090 HD
ATOM     21  H   LIG d   1      -1.236  79.658 109.520  0.00  0.00    -0.090 HD
ENDBRANCH   5  18
BRANCH   3  22
ATOM     22  C   LIG d   1       2.304  82.799 108.302  0.00  0.00     0.382 C 
ATOM     23  O   LIG d   1       3.500  82.460 108.469  0.00  0.00    -0.241 OA
ATOM     24  O   LIG d   1       1.989  83.462 107.296  0.00  0.00    -0.241 OA
ENDBRANCH   3  22
TORSDOF 7
ENDMDL
MODEL 5
REMARK VINA RESULT:      -6.3      2.478      3.833
REMARK  7 active torsions:
REMARK  status: ('A' for Active; 'I' for Inactive)
REMARK    1  A    between atoms: C_2  and  C_3 
REMARK    2  A    between atoms: C_3  and  O_6 
REMARK    3  A    between atoms: C_3  and  C_4 
REMARK    4  A    between atoms: C_7  and  O_6 
REMARK    5  A    between atoms: C_9  and  C_10 
REMARK    6  A    between atoms: N_15  and  C_14 
REMARK    7  A    between atoms: N_20  and  C_19 
REMARK       I    between atoms: C_22  and  N_20 
ROOT
ATOM      1  C   LIG d   1       0.066  83.319 112.534  0.00  0.00     0.161 C 
ATOM      2  C   LIG d   1       0.912  84.348 112.087  0.00  0.00     0.016 C 
ATOM      3  C   LIG d   1       1.382  84.448 110.758  0.00  0.00     0.038 C 
ATOM      4  C   LIG d   1       0.912  83.603 109.741  0.00  0.00     0.028 C 
ATOM      5  C   LIG d   1       0.449  82.242 110.249  0.00  0.00    -0.047 C 
ATOM      6  C   LIG d   1      -0.545  82.453 111.413  0.00  0.00     0.091 C 
ENDROOT
BRANCH   1   7
ATOM      7  O   LIG d   1      -0.974  83.869 113.367  0.00  0.00    -0.368 OA
BRANCH   7   8
ATOM      8  C   LIG d   1      -0.637  84.063 114.762  0.00  0.00     0.119 C 
BRANCH   8   9
ATOM      9  C   LIG d   1      -1.362  82.969 115.570  0.00  0.00     0.028 C 
ATOM     10  C   LIG d   1      -2.884  83.181 115.611  0.00  0.00     0.006 C 
ENDBRANCH   8   9
BRANCH   8  11
ATOM     11  C   LIG d   1      -1.191  85.390 115.290  0.00  0.00     0.028 C 
ATOM     12  C   LIG d   1      -0.087  86.354 115.753  0.00  0.00     0.006 C 
ENDBRANCH   8  11
ENDBRANCH   7   8
ENDBRANCH   1   7
BRANCH   6  13
ATOM     13  N   LIG d   1      -0.983  81.171 112.024  0.00  0.00    -0.311 N 
ATOM     14  C   LIG d   1      -2.233  80.935 112.417  0.00  0.00     0.210 C 
ATOM     15  C   LIG d   1      -2.466  79.555 113.040  0.00  0.00     0.109 C 
ATOM     16  O   LIG d   1      -3.179  81.725 112.279  0.00  0.00    -0.276 OA
ATOM     17  H   LIG d   1      -0.286  80.462 112.145  0.00  0.00     0.149 HD
ENDBRANCH   6  13
BRANCH   5  18
ATOM     18  N   LIG d   1      -0.142  81.517 109.108  0.00  0.00     0.381 N 
ATOM     19  H   LIG d   1      -0.501  80.636 109.416  0.00  0.00    -0.090 HD
ATOM     20  H   LIG d   1       0.576  81.344 108.426  0.00  0.00    -0.090 HD
ATOM     21  H   LIG d   1      -0.872  82.059 108.701  0.00  0.00    -0.090 HD
ENDBRANCH   5  18
BRANCH   3  22
ATOM     22  C   LIG d   1       2.362  85.376 110.442  0.00  0.00     0.382 C 
ATOM     23  O   LIG d   1       3.553  85.006 110.301  0.00  0.00    -0.241 OA
ATOM     24  O   LIG d   1       2.079  86.585 110.342  0.00  0.00    -0.241 OA
ENDBRANCH   3  22
TORSDOF 7
ENDMDL
MODEL 6
REMARK VINA RESULT:      -6.3      2.848      5.784
REMARK  7 active torsions:
REMARK  status: ('A' for Active; 'I' for Inactive)
REMARK    1  A    between atoms: C_2  and  C_3 
REMARK    2  A    between atoms: C_3  and  O_6 
REMARK    3  A    between atoms: C_3  and  C_4 
REMARK    4  A    between atoms: C_7  and  O_6 
REMARK    5  A    between atoms: C_9  and  C_10 
REMARK    6  A    between atoms: N_15  and  C_14 
REMARK    7  A    between atoms: N_20  and  C_19 
REMARK       I    between atoms: C_22  and  N_20 
ROOT
ATOM      1  C   LIG d   1       2.315  83.326 111.519  0.00  0.00     0.161 C 
ATOM      2  C   LIG d   1       1.284  82.373 111.514  0.00  0.00     0.016 C 
ATOM      3  C   LIG d   1       0.059  82.549 112.198  0.00  0.00     0.038 C 
ATOM      4  C   LIG d   1      -0.280  83.763 112.813  0.00  0.00     0.028 C 
ATOM      5  C   LIG d   1       0.932  84.568 113.272  0.00  0.00    -0.047 C 
ATOM      6  C   LIG d   1       1.921  84.703 112.092  0.00  0.00     0.091 C 
ENDROOT
BRANCH   1   7
ATOM      7  O   LIG d   1       2.852  83.472 110.190  0.00  0.00    -0.368 OA
BRANCH   7   8
ATOM      8  C   LIG d   1       2.309  82.584 109.182  0.00  0.00     0.119 C 
BRANCH   8   9
ATOM      9  C   LIG d   1       3.484  81.786 108.586  0.00  0.00     0.028 C 
ATOM     10  C   LIG d   1       4.832  82.505 108.763  0.00  0.00     0.006 C 
ENDBRANCH   8   9
BRANCH   8  11
ATOM     11  C   LIG d   1       1.716  83.370 108.008  0.00  0.00     0.028 C 
ATOM     12  C   LIG d   1       0.931  84.612 108.459  0.00  0.00     0.006 C 
ENDBRANCH   8  11
ENDBRANCH   7   8
ENDBRANCH   1   7
BRANCH   6  13
ATOM     13  N   LIG d   1       3.172  85.405 112.480  0.00  0.00    -0.311 N 
ATOM     14  C   LIG d   1       3.489  86.627 112.056  0.00  0.00     0.210 C 
ATOM     15  C   LIG d   1       4.835  87.157 112.559  0.00  0.00     0.109 C 
ATOM     16  O   LIG d   1       2.768  87.336 111.337  0.00  0.00    -0.276 OA
ATOM     17  H   LIG d   1       3.801  84.915 113.086  0.00  0.00     0.149 HD
ENDBRANCH   6  13
BRANCH   5  18
ATOM     18  N   LIG d   1       0.442  85.867 113.769  0.00  0.00     0.381 N 
ATOM     19  H   LIG d   1       1.015  86.605 113.410  0.00  0.00    -0.090 HD
ATOM     20  H   LIG d   1       0.505  85.877 114.771  0.00  0.00    -0.090 HD
ATOM     21  H   LIG d   1      -0.504  86.005 113.487  0.00  0.00    -0.090 HD
ENDBRANCH   5  18
BRANCH   3  22
ATOM     22  C   LIG d   1      -0.827  81.487 112.305  0.00  0.00     0.382 C 
ATOM     23  O   LIG d   1      -0.428  80.379 112.736  0.00  0.00    -0.241 OA
ATOM     24  O   LIG d   1      -2.010  81.611 111.934  0.00  0.00    -0.241 OA
ENDBRANCH   3  22
TORSDOF 7
ENDMDL
MODEL 7
REMARK VINA RESULT:      -5.9      2.681      3.641
REMARK  7 active torsions:
REMARK  status: ('A' for Active; 'I' for Inactive)
REMARK    1  A    between atoms: C_2  and  C_3 
REMARK    2  A    between atoms: C_3  and  O_6 
REMARK    3  A    between atoms: C_3  and  C_4 
REMARK    4  A    between atoms: C_7  and  O_6 
REMARK    5  A    between atoms: C_9  and  C_10 
REMARK    6  A    between atoms: N_15  and  C_14 
REMARK    7  A    between atoms: N_20  and  C_19 
REMARK       I    between atoms: C_22  and  N_20 
ROOT
ATOM      1  C   LIG d   1       2.755  84.266 112.113  0.00  0.00     0.161 C 
ATOM      2  C   LIG d   1       3.174  85.483 112.674  0.00  0.00     0.016 C 
ATOM      3  C   LIG d   1       2.762  86.746 112.191  0.00  0.00     0.038 C 
ATOM      4  C   LIG d   1       1.776  86.875 111.201  0.00  0.00     0.028 C 
ATOM      5  C   LIG d   1       1.700  85.676 110.262  0.00  0.00    -0.047 C 
ATOM      6  C   LIG d   1       1.594  84.385 111.104  0.00  0.00     0.091 C 
ENDROOT
BRANCH   1   7
ATOM      7  O   LIG d   1       2.416  83.336 113.161  0.00  0.00    -0.368 OA
BRANCH   7   8
ATOM      8  C   LIG d   1       1.910  83.916 114.389  0.00  0.00     0.119 C 
BRANCH   8   9
ATOM      9  C   LIG d   1       2.520  83.122 115.560  0.00  0.00     0.028 C 
ATOM     10  C   LIG d   1       3.688  83.866 116.229  0.00  0.00     0.006 C 
ENDBRANCH   8   9
BRANCH   8  11
ATOM     11  C   LIG d   1       0.396  83.724 114.513  0.00  0.00     0.028 C 
ATOM     12  C   LIG d   1      -0.391  85.022 114.267  0.00  0.00     0.006 C 
ENDBRANCH   8  11
ENDBRANCH   7   8
ENDBRANCH   1   7
BRANCH   6  13
ATOM     13  N   LIG d   1       1.600  83.158 110.265  0.00  0.00    -0.311 N 
ATOM     14  C   LIG d   1       0.491  82.558 109.836  0.00  0.00     0.210 C 
ATOM     15  C   LIG d   1       0.721  81.295 109.001  0.00  0.00     0.109 C 
ATOM     16  O   LIG d   1      -0.661  82.969 110.042  0.00  0.00    -0.276 OA
ATOM     17  H   LIG d   1       2.492  82.774 110.025  0.00  0.00     0.149 HD
ENDBRANCH   6  13
BRANCH   5  18
ATOM     18  N   LIG d   1       0.544  85.881 109.369  0.00  0.00     0.381 N 
ATOM     19  H   LIG d   1      -0.238  85.352 109.700  0.00  0.00    -0.090 HD
ATOM     20  H   LIG d   1       0.781  85.552 108.449  0.00  0.00    -0.090 HD
ATOM     21  H   LIG d   1       0.309  86.849 109.333  0.00  0.00    -0.090 HD
ENDBRANCH   5  18
BRANCH   3  22
ATOM     22  C   LIG d   1       3.367  87.897 112.671  0.00  0.00     0.382 C 
ATOM     23  O   LIG d   1       2.664  88.875 113.023  0.00  0.00    -0.241 OA
ATOM     24  O   LIG d   1       4.608  87.987 112.715  0.00  0.00    -0.241 OA
ENDBRANCH   3  22
TORSDOF 7
ENDMDL
MODEL 8
REMARK VINA RESULT:      -5.9      2.400      4.272
REMARK  7 active torsions:
REMARK  status: ('A' for Active; 'I' for Inactive)
REMARK    1  A    between atoms: C_2  and  C_3 
REMARK    2  A    between atoms: C_3  and  O_6 
REMARK    3  A    between atoms: C_3  and  C_4 
REMARK    4  A    between atoms: C_7  and  O_6 
REMARK    5  A    between atoms: C_9  and  C_10 
REMARK    6  A    between atoms: N_15  and  C_14 
REMARK    7  A    between atoms: N_20  and  C_19 
REMARK       I    between atoms: C_22  and  N_20 
ROOT
ATOM      1  C   LIG d   1       0.469  83.979 110.851  0.00  0.00     0.161 C 
ATOM      2  C   LIG d   1       1.307  85.104 110.791  0.00  0.00     0.016 C 
ATOM      3  C   LIG d   1       1.818  85.756 111.937  0.00  0.00     0.038 C 
ATOM      4  C   LIG d   1       1.646  85.231 113.226  0.00  0.00     0.028 C 
ATOM      5  C   LIG d   1       0.387  84.383 113.372  0.00  0.00    -0.047 C 
ATOM      6  C   LIG d   1       0.361  83.326 112.245  0.00  0.00     0.091 C 
ENDROOT
BRANCH   1   7
ATOM      7  O   LIG d   1       0.887  83.006 109.873  0.00  0.00    -0.368 OA
BRANCH   7   8
ATOM      8  C   LIG d   1       2.262  82.560 109.965  0.00  0.00     0.119 C 
BRANCH   8   9
ATOM      9  C   LIG d   1       2.901  82.740 108.574  0.00  0.00     0.028 C 
ATOM     10  C   LIG d   1       4.350  82.226 108.523  0.00  0.00     0.006 C 
ENDBRANCH   8   9
BRANCH   8  11
ATOM     11  C   LIG d   1       2.343  81.059 110.257  0.00  0.00     0.028 C 
ATOM     12  C   LIG d   1       1.166  80.271 109.661  0.00  0.00     0.006 C 
ENDBRANCH   8  11
ENDBRANCH   7   8
ENDBRANCH   1   7
BRANCH   6  13
ATOM     13  N   LIG d   1      -0.879  82.507 112.263  0.00  0.00    -0.311 N 
ATOM     14  C   LIG d   1      -0.908  81.228 112.634  0.00  0.00     0.210 C 
ATOM     15  C   LIG d   1      -2.287  80.565 112.561  0.00  0.00     0.109 C 
ATOM     16  O   LIG d   1       0.071  80.589 113.046  0.00  0.00    -0.276 OA
ATOM     17  H   LIG d   1      -1.726  82.956 111.973  0.00  0.00     0.149 HD
ENDBRANCH   6  13
BRANCH   5  18
ATOM     18  N   LIG d   1       0.405  83.788 114.722  0.00  0.00     0.381 N 
ATOM     19  H   LIG d   1      -0.426  83.249 114.865  0.00  0.00    -0.090 HD
ATOM     20  H   LIG d   1       0.422  84.527 115.403  0.00  0.00    -0.090 HD
ATOM     21  H   LIG d   1       1.208  83.209 114.829  0.00  0.00    -0.090 HD
ENDBRANCH   5  18
BRANCH   3  22
ATOM     22  C   LIG d   1       2.476  86.969 111.802  0.00  0.00     0.382 C 
ATOM     23  O   LIG d   1       1.845  88.044 111.944  0.00  0.00    -0.241 OA
ATOM     24  O   LIG d   1       3.683  87.002 111.495  0.00  0.00    -0.241 OA
ENDBRANCH   3  22
TORSDOF 7
ENDMDL
MODEL 9
REMARK VINA RESULT:      -5.8      2.622      5.015
REMARK  7 active torsions:
REMARK  status: ('A' for Active; 'I' for Inactive)
REMARK    1  A    between atoms: C_2  and  C_3 
REMARK    2  A    between atoms: C_3  and  O_6 
REMARK    3  A    between atoms: C_3  and  C_4 
REMARK    4  A    between atoms: C_7  and  O_6 
REMARK    5  A    between atoms: C_9  and  C_10 
REMARK    6  A    between atoms: N_15  and  C_14 
REMARK    7  A    between atoms: N_20  and  C_19 
REMARK       I    between atoms: C_22  and  N_20 
ROOT
ATOM      1  C   LIG d   1       1.202  82.421 111.964  0.00  0.00     0.161 C 
ATOM      2  C   LIG d   1      -0.028  82.419 112.643  0.00  0.00     0.016 C 
ATOM      3  C   LIG d   1      -1.023  81.433 112.450  0.00  0.00     0.038 C 
ATOM      4  C   LIG d   1      -0.792  80.291 111.669  0.00  0.00     0.028 C 
ATOM      5  C   LIG d   1       0.242  80.507 110.570  0.00  0.00    -0.047 C 
ATOM      6  C   LIG d   1       1.516  81.122 111.192  0.00  0.00     0.091 C 
ENDROOT
BRANCH   1   7
ATOM      7  O   LIG d   1       2.268  82.728 112.884  0.00  0.00    -0.368 OA
BRANCH   7   8
ATOM      8  C   LIG d   1       2.690  84.113 112.931  0.00  0.00     0.119 C 
BRANCH   8   9
ATOM      9  C   LIG d   1       3.848  84.278 111.928  0.00  0.00     0.028 C 
ATOM     10  C   LIG d   1       3.547  85.338 110.854  0.00  0.00     0.006 C 
ENDBRANCH   8   9
BRANCH   8  11
ATOM     11  C   LIG d   1       3.284  84.468 114.298  0.00  0.00     0.028 C 
ATOM     12  C   LIG d   1       3.029  85.930 114.696  0.00  0.00     0.006 C 
ENDBRANCH   8  11
ENDBRANCH   7   8
ENDBRANCH   1   7
BRANCH   6  13
ATOM     13  N   LIG d   1       2.547  81.444 110.172  0.00  0.00    -0.311 N 
ATOM     14  C   LIG d   1       2.330  82.260 109.142  0.00  0.00     0.210 C 
ATOM     15  C   LIG d   1       3.522  82.439 108.196  0.00  0.00     0.109 C 
ATOM     16  O   LIG d   1       1.274  82.877 108.939  0.00  0.00    -0.276 OA
ATOM     17  H   LIG d   1       3.444  81.011 110.277  0.00  0.00     0.149 HD
ENDBRANCH   6  13
BRANCH   5  18
ATOM     18  N   LIG d   1       0.486  79.203 109.924  0.00  0.00     0.381 N 
ATOM     19  H   LIG d   1      -0.263  78.575 110.137  0.00  0.00    -0.090 HD
ATOM     20  H   LIG d   1       1.337  78.814 110.289  0.00  0.00    -0.090 HD
ATOM     21  H   LIG d   1       0.561  79.319 108.938  0.00  0.00    -0.090 HD
ENDBRANCH   5  18
BRANCH   3  22
ATOM     22  C   LIG d   1      -2.280  81.606 113.009  0.00  0.00     0.382 C 
ATOM     23  O   LIG d   1      -2.408  81.669 114.256  0.00  0.00    -0.241 OA
ATOM     24  O   LIG d   1      -3.292  81.655 112.285  0.00  0.00    -0.241 OA
ENDBRANCH   3  22
TORSDOF 7
ENDMDL
