MODEL 1
REMARK VINA RESULT:      -6.5      0.000      0.000
REMARK  7 active torsions:
REMARK  status: ('A' for Active; 'I' for Inactive)
REMARK    1  A    between atoms: C_2  and  C_3 
REMARK    2  A    between atoms: C_3  and  O_6 
REMARK    3  A    between atoms: C_3  and  C_4 
REMARK    4  A    between atoms: C_7  and  O_6 
REMARK    5  A    between atoms: C_9  and  C_10 
REMARK    6  A    between atoms: N_15  and  C_14 
REMARK    7  A    between atoms: N_20  and  C_19 
REMARK       I    between atoms: C_22  and  N_20 
ROOT
ATOM      1  C   LIG d   1       1.753  83.391 111.405  0.00  0.00     0.161 C 
ATOM      2  C   LIG d   1       2.711  83.296 110.382  0.00  0.00     0.016 C 
ATOM      3  C   LIG d   1       2.787  82.206 109.486  0.00  0.00     0.038 C 
ATOM      4  C   LIG d   1       1.808  81.202 109.455  0.00  0.00     0.028 C 
ATOM      5  C   LIG d   1       1.111  80.994 110.795  0.00  0.00    -0.047 C 
ATOM      6  C   LIG d   1       0.608  82.360 111.316  0.00  0.00     0.091 C 
ENDROOT
BRANCH   1   7
ATOM      7  O   LIG d   1       1.219  84.729 111.451  0.00  0.00    -0.368 OA
BRANCH   7   8
ATOM      8  C   LIG d   1       1.741  85.658 110.470  0.00  0.00     0.119 C 
BRANCH   8   9
ATOM      9  C   LIG d   1       1.998  86.996 111.191  0.00  0.00     0.028 C 
ATOM     10  C   LIG d   1       3.326  87.000 111.966  0.00  0.00     0.006 C 
ENDBRANCH   8   9
BRANCH   8  11
ATOM     11  C   LIG d   1       0.702  85.972 109.390  0.00  0.00     0.028 C 
ATOM     12  C   LIG d   1      -0.739  85.710 109.857  0.00  0.00     0.006 C 
ENDBRANCH   8  11
ENDBRANCH   7   8
ENDBRANCH   1   7
BRANCH   6  13
ATOM     13  N   LIG d   1      -0.012  82.259 112.663  0.00  0.00    -0.311 N 
ATOM     14  C   LIG d   1      -1.317  82.074 112.857  0.00  0.00     0.210 C 
ATOM     15  C   LIG d   1      -1.750  82.019 114.325  0.00  0.00     0.109 C 
ATOM     16  O   LIG d   1      -2.151  81.918 111.953  0.00  0.00    -0.276 OA
ATOM     17  H   LIG d   1       0.597  82.344 113.453  0.00  0.00     0.149 HD
ENDBRANCH   6  13
BRANCH   5  18
ATOM     18  N   LIG d   1       0.024  80.019 110.586  0.00  0.00     0.381 N 
ATOM     19  H   LIG d   1       0.315  79.324 109.928  0.00  0.00    -0.090 HD
ATOM     20  H   LIG d   1      -0.774  80.498 110.206  0.00  0.00    -0.090 HD
ATOM     21  H   LIG d   1      -0.219  79.588 111.450  0.00  0.00    -0.090 HD
ENDBRANCH   5  18
BRANCH   3  22
ATOM     22  C   LIG d   1       3.875  82.092 108.633  0.00  0.00     0.382 C 
ATOM     23  O   LIG d   1       4.003  81.072 107.913  0.00  0.00    -0.241 OA
ATOM     24  O   LIG d   1       4.752  82.976 108.606  0.00  0.00    -0.241 OA
ENDBRANCH   3  22
TORSDOF 7
ENDMDL
MODEL 2
REMARK VINA RESULT:      -6.3      2.560      5.211
REMARK  7 active torsions:
REMARK  status: ('A' for Active; 'I' for Inactive)
REMARK    1  A    between atoms: C_2  and  C_3 
REMARK    2  A    between atoms: C_3  and  O_6 
REMARK    3  A    between atoms: C_3  and  C_4 
REMARK    4  A    between atoms: C_7  and  O_6 
REMARK    5  A    between atoms: C_9  and  C_10 
REMARK    6  A    between atoms: N_15  and  C_14 
REMARK    7  A    between atoms: N_20  and  C_19 
REMARK       I    between atoms: C_22  and  N_20 
ROOT
ATOM      1  C   LIG d   1       1.707  84.109 111.765  0.00  0.00     0.161 C 
ATOM      2  C   LIG d   1       0.795  83.040 111.741  0.00  0.00     0.016 C 
ATOM      3  C   LIG d   1      -0.363  82.988 112.550  0.00  0.00     0.038 C 
ATOM      4  C   LIG d   1      -0.772  84.078 113.332  0.00  0.00     0.028 C 
ATOM      5  C   LIG d   1       0.382  84.974 113.771  0.00  0.00    -0.047 C 
ATOM      6  C   LIG d   1       1.220  85.357 112.530  0.00  0.00     0.091 C 
ENDROOT
BRANCH   1   7
ATOM      7  O   LIG d   1       2.081  84.462 110.418  0.00  0.00    -0.368 OA
BRANCH   7   8
ATOM      8  C   LIG d   1       1.083  84.222 109.396  0.00  0.00     0.119 C 
BRANCH   8   9
ATOM      9  C   LIG d   1       1.802  83.591 108.187  0.00  0.00     0.028 C 
ATOM     10  C   LIG d   1       3.095  82.861 108.589  0.00  0.00     0.006 C 
ENDBRANCH   8   9
BRANCH   8  11
ATOM     11  C   LIG d   1       0.492  85.535 108.875  0.00  0.00     0.028 C 
ATOM     12  C   LIG d   1      -0.818  85.920 109.581  0.00  0.00     0.006 C 
ENDBRANCH   8  11
ENDBRANCH   7   8
ENDBRANCH   1   7
BRANCH   6  13
ATOM     13  N   LIG d   1       2.417  86.165 112.882  0.00  0.00    -0.311 N 
ATOM     14  C   LIG d   1       2.757  87.286 112.248  0.00  0.00     0.210 C 
ATOM     15  C   LIG d   1       4.039  87.952 112.757  0.00  0.00     0.109 C 
ATOM     16  O   LIG d   1       2.102  87.808 111.335  0.00  0.00    -0.276 OA
ATOM     17  H   LIG d   1       2.988  85.830 113.633  0.00  0.00     0.149 HD
ENDBRANCH   6  13
BRANCH   5  18
ATOM     18  N   LIG d   1      -0.199  86.142 114.460  0.00  0.00     0.381 N 
ATOM     19  H   LIG d   1      -0.025  86.076 115.443  0.00  0.00    -0.090 HD
ATOM     20  H   LIG d   1      -1.193  86.144 114.316  0.00  0.00    -0.090 HD
ATOM     21  H   LIG d   1       0.198  86.982 114.101  0.00  0.00    -0.090 HD
ENDBRANCH   5  18
BRANCH   3  22
ATOM     22  C   LIG d   1      -1.106  81.818 112.611  0.00  0.00     0.382 C 
ATOM     23  O   LIG d   1      -2.310  81.821 112.258  0.00  0.00    -0.241 OA
ATOM     24  O   LIG d   1      -0.600  80.771 113.056  0.00  0.00    -0.241 OA
ENDBRANCH   3  22
TORSDOF 7
ENDMDL
MODEL 3
REMARK VINA RESULT:      -5.8      2.520      5.274
REMARK  7 active torsions:
REMARK  status: ('A' for Active; 'I' for Inactive)
REMARK    1  A    between atoms: C_2  and  C_3 
REMARK    2  A    between atoms: C_3  and  O_6 
REMARK    3  A    between atoms: C_3  and  C_4 
REMARK    4  A    between atoms: C_7  and  O_6 
REMARK    5  A    between atoms: C_9  and  C_10 
REMARK    6  A    between atoms: N_15  and  C_14 
REMARK    7  A    between atoms: N_20  and  C_19 
REMARK       I    between atoms: C_22  and  N_20 
ROOT
ATOM      1  C   LIG d   1       2.010  83.342 112.362  0.00  0.00     0.161 C 
ATOM      2  C   LIG d   1       1.085  82.286 112.343  0.00  0.00     0.016 C 
ATOM      3  C   LIG d   1      -0.309  82.474 112.193  0.00  0.00     0.038 C 
ATOM      4  C   LIG d   1      -0.859  83.730 111.897  0.00  0.00     0.028 C 
ATOM      5  C   LIG d   1      -0.018  84.896 112.407  0.00  0.00    -0.047 C 
ATOM      6  C   LIG d   1       1.440  84.709 111.929  0.00  0.00     0.091 C 
ENDROOT
BRANCH   1   7
ATOM      7  O   LIG d   1       3.157  83.001 111.558  0.00  0.00    -0.368 OA
BRANCH   7   8
ATOM      8  C   LIG d   1       2.876  82.454 110.246  0.00  0.00     0.119 C 
BRANCH   8   9
ATOM      9  C   LIG d   1       3.963  81.406 109.938  0.00  0.00     0.028 C 
ATOM     10  C   LIG d   1       4.280  81.313 108.436  0.00  0.00     0.006 C 
ENDBRANCH   8   9
BRANCH   8  11
ATOM     11  C   LIG d   1       3.021  83.520 109.156  0.00  0.00     0.028 C 
ATOM     12  C   LIG d   1       1.681  83.881 108.494  0.00  0.00     0.006 C 
ENDBRANCH   8  11
ENDBRANCH   7   8
ENDBRANCH   1   7
BRANCH   6  13
ATOM     13  N   LIG d   1       2.348  85.762 112.455  0.00  0.00    -0.311 N 
ATOM     14  C   LIG d   1       2.618  86.891 111.802  0.00  0.00     0.210 C 
ATOM     15  C   LIG d   1       3.595  87.832 112.513  0.00  0.00     0.109 C 
ATOM     16  O   LIG d   1       2.115  87.217 110.716  0.00  0.00    -0.276 OA
ATOM     17  H   LIG d   1       2.775  85.593 113.345  0.00  0.00     0.149 HD
ENDBRANCH   6  13
BRANCH   5  18
ATOM     18  N   LIG d   1      -0.634  86.141 111.912  0.00  0.00     0.381 N 
ATOM     19  H   LIG d   1      -0.283  86.353 110.999  0.00  0.00    -0.090 HD
ATOM     20  H   LIG d   1      -0.386  86.894 112.528  0.00  0.00    -0.090 HD
ATOM     21  H   LIG d   1      -1.625  86.041 111.879  0.00  0.00    -0.090 HD
ENDBRANCH   5  18
BRANCH   3  22
ATOM     22  C   LIG d   1      -1.171  81.405 112.378  0.00  0.00     0.382 C 
ATOM     23  O   LIG d   1      -0.710  80.260 112.605  0.00  0.00    -0.241 OA
ATOM     24  O   LIG d   1      -2.403  81.561 112.277  0.00  0.00    -0.241 OA
ENDBRANCH   3  22
TORSDOF 7
ENDMDL
MODEL 4
REMARK VINA RESULT:      -5.4      1.288      2.207
REMARK  7 active torsions:
REMARK  status: ('A' for Active; 'I' for Inactive)
REMARK    1  A    between atoms: C_2  and  C_3 
REMARK    2  A    between atoms: C_3  and  O_6 
REMARK    3  A    between atoms: C_3  and  C_4 
REMARK    4  A    between atoms: C_7  and  O_6 
REMARK    5  A    between atoms: C_9  and  C_10 
REMARK    6  A    between atoms: N_15  and  C_14 
REMARK    7  A    between atoms: N_20  and  C_19 
REMARK       I    between atoms: C_22  and  N_20 
ROOT
ATOM      1  C   LIG d   1       1.440  83.270 110.931  0.00  0.00     0.161 C 
ATOM      2  C   LIG d   1       2.523  82.710 110.234  0.00  0.00     0.016 C 
ATOM      3  C   LIG d   1       2.587  81.348 109.858  0.00  0.00     0.038 C 
ATOM      4  C   LIG d   1       1.495  80.482 110.023  0.00  0.00     0.028 C 
ATOM      5  C   LIG d   1       0.577  80.878 111.175  0.00  0.00    -0.047 C 
ATOM      6  C   LIG d   1       0.192  82.367 111.021  0.00  0.00     0.091 C 
ENDROOT
BRANCH   1   7
ATOM      7  O   LIG d   1       1.095  84.545 110.354  0.00  0.00    -0.368 OA
BRANCH   7   8
ATOM      8  C   LIG d   1       0.985  85.655 111.279  0.00  0.00     0.119 C 
BRANCH   8   9
ATOM      9  C   LIG d   1      -0.355  86.362 110.997  0.00  0.00     0.028 C 
ATOM     10  C   LIG d   1      -0.937  85.989 109.624  0.00  0.00     0.006 C 
ENDBRANCH   8   9
BRANCH   8  11
ATOM     11  C   LIG d   1       2.063  86.709 111.015  0.00  0.00     0.028 C 
ATOM     12  C   LIG d   1       3.355  86.452 111.807  0.00  0.00     0.006 C 
ENDBRANCH   8  11
ENDBRANCH   7   8
ENDBRANCH   1   7
BRANCH   6  13
ATOM     13  N   LIG d   1      -0.637  82.857 112.153  0.00  0.00    -0.311 N 
ATOM     14  C   LIG d   1      -0.233  82.835 113.422  0.00  0.00     0.210 C 
ATOM     15  C   LIG d   1      -1.251  83.370 114.434  0.00  0.00     0.109 C 
ATOM     16  O   LIG d   1       0.883  82.452 113.802  0.00  0.00    -0.276 OA
ATOM     17  H   LIG d   1      -1.546  83.214 111.931  0.00  0.00     0.149 HD
ENDBRANCH   6  13
BRANCH   5  18
ATOM     18  N   LIG d   1      -0.588  79.973 111.146  0.00  0.00     0.381 N 
ATOM     19  H   LIG d   1      -0.436  79.246 110.477  0.00  0.00    -0.090 HD
ATOM     20  H   LIG d   1      -1.399  80.496 110.864  0.00  0.00    -0.090 HD
ATOM     21  H   LIG d   1      -0.736  79.579 112.049  0.00  0.00    -0.090 HD
ENDBRANCH   5  18
BRANCH   3  22
ATOM     22  C   LIG d   1       3.767  80.831 109.347  0.00  0.00     0.382 C 
ATOM     23  O   LIG d   1       4.594  81.590 108.787  0.00  0.00    -0.241 OA
ATOM     24  O   LIG d   1       3.995  79.607 109.399  0.00  0.00    -0.241 OA
ENDBRANCH   3  22
TORSDOF 7
ENDMDL
MODEL 5
REMARK VINA RESULT:      -5.4      2.100      4.595
REMARK  7 active torsions:
REMARK  status: ('A' for Active; 'I' for Inactive)
REMARK    1  A    between atoms: C_2  and  C_3 
REMARK    2  A    between atoms: C_3  and  O_6 
REMARK    3  A    between atoms: C_3  and  C_4 
REMARK    4  A    between atoms: C_7  and  O_6 
REMARK    5  A    between atoms: C_9  and  C_10 
REMARK    6  A    between atoms: N_15  and  C_14 
REMARK    7  A    between atoms: N_20  and  C_19 
REMARK       I    between atoms: C_22  and  N_20 
ROOT
ATOM      1  C   LIG d   1       0.273  82.081 110.459  0.00  0.00     0.161 C 
ATOM      2  C   LIG d   1       1.045  80.935 110.201  0.00  0.00     0.016 C 
ATOM      3  C   LIG d   1       2.412  80.983 109.842  0.00  0.00     0.038 C 
ATOM      4  C   LIG d   1       3.143  82.179 109.865  0.00  0.00     0.028 C 
ATOM      5  C   LIG d   1       2.286  83.418 109.628  0.00  0.00    -0.047 C 
ATOM      6  C   LIG d   1       1.082  83.388 110.597  0.00  0.00     0.091 C 
ENDROOT
BRANCH   1   7
ATOM      7  O   LIG d   1      -0.540  81.869 111.630  0.00  0.00    -0.368 OA
BRANCH   7   8
ATOM      8  C   LIG d   1      -0.006  80.955 112.620  0.00  0.00     0.119 C 
BRANCH   8   9
ATOM      9  C   LIG d   1      -1.179  80.107 113.147  0.00  0.00     0.028 C 
ATOM     10  C   LIG d   1      -2.547  80.710 112.789  0.00  0.00     0.006 C 
ENDBRANCH   8   9
BRANCH   8  11
ATOM     11  C   LIG d   1       0.531  81.709 113.840  0.00  0.00     0.028 C 
ATOM     12  C   LIG d   1      -0.131  83.082 114.031  0.00  0.00     0.006 C 
ENDBRANCH   8  11
ENDBRANCH   7   8
ENDBRANCH   1   7
BRANCH   6  13
ATOM     13  N   LIG d   1       0.146  84.521 110.374  0.00  0.00    -0.311 N 
ATOM     14  C   LIG d   1       0.170  85.643 111.091  0.00  0.00     0.210 C 
ATOM     15  C   LIG d   1      -0.895  86.676 110.710  0.00  0.00     0.109 C 
ATOM     16  O   LIG d   1       0.993  85.894 111.984  0.00  0.00    -0.276 OA
ATOM     17  H   LIG d   1      -0.534  84.414 109.647  0.00  0.00     0.149 HD
ENDBRANCH   6  13
BRANCH   5  18
ATOM     18  N   LIG d   1       3.149  84.600 109.814  0.00  0.00     0.381 N 
ATOM     19  H   LIG d   1       3.839  84.633 109.091  0.00  0.00    -0.090 HD
ATOM     20  H   LIG d   1       3.621  84.521 110.698  0.00  0.00    -0.090 HD
ATOM     21  H   LIG d   1       2.598  85.430 109.796  0.00  0.00    -0.090 HD
ENDBRANCH   5  18
BRANCH   3  22
ATOM     22  C   LIG d   1       3.051  79.828 109.417  0.00  0.00     0.382 C 
ATOM     23  O   LIG d   1       4.303  79.794 109.346  0.00  0.00    -0.241 OA
ATOM     24  O   LIG d   1       2.389  78.834 109.061  0.00  0.00    -0.241 OA
ENDBRANCH   3  22
TORSDOF 7
ENDMDL
MODEL 6
REMARK VINA RESULT:      -5.4      1.283      2.210
REMARK  7 active torsions:
REMARK  status: ('A' for Active; 'I' for Inactive)
REMARK    1  A    between atoms: C_2  and  C_3 
REMARK    2  A    between atoms: C_3  and  O_6 
REMARK    3  A    between atoms: C_3  and  C_4 
REMARK    4  A    between atoms: C_7  and  O_6 
REMARK    5  A    between atoms: C_9  and  C_10 
REMARK    6  A    between atoms: N_15  and  C_14 
REMARK    7  A    between atoms: N_20  and  C_19 
REMARK       I    between atoms: C_22  and  N_20 
ROOT
ATOM      1  C   LIG d   1       1.658  83.202 111.956  0.00  0.00     0.161 C 
ATOM      2  C   LIG d   1       2.676  83.178 110.989  0.00  0.00     0.016 C 
ATOM      3  C   LIG d   1       2.777  82.183 109.989  0.00  0.00     0.038 C 
ATOM      4  C   LIG d   1       1.773  81.222 109.796  0.00  0.00     0.028 C 
ATOM      5  C   LIG d   1       0.987  80.904 111.063  0.00  0.00    -0.047 C 
ATOM      6  C   LIG d   1       0.492  82.226 111.692  0.00  0.00     0.091 C 
ENDROOT
BRANCH   1   7
ATOM      7  O   LIG d   1       1.161  84.546 112.110  0.00  0.00    -0.368 OA
BRANCH   7   8
ATOM      8  C   LIG d   1       1.474  85.203 113.363  0.00  0.00     0.119 C 
BRANCH   8   9
ATOM      9  C   LIG d   1       2.205  86.517 113.027  0.00  0.00     0.028 C 
ATOM     10  C   LIG d   1       2.147  86.854 111.528  0.00  0.00     0.006 C 
ENDBRANCH   8   9
BRANCH   8  11
ATOM     11  C   LIG d   1       2.472  84.383 114.187  0.00  0.00     0.028 C 
ATOM     12  C   LIG d   1       3.735  85.177 114.554  0.00  0.00     0.006 C 
ENDBRANCH   8  11
ENDBRANCH   7   8
ENDBRANCH   1   7
BRANCH   6  13
ATOM     13  N   LIG d   1      -0.215  82.011 112.982  0.00  0.00    -0.311 N 
ATOM     14  C   LIG d   1      -1.536  81.870 113.080  0.00  0.00     0.210 C 
ATOM     15  C   LIG d   1      -2.062  81.677 114.505  0.00  0.00     0.109 C 
ATOM     16  O   LIG d   1      -2.318  81.853 112.117  0.00  0.00    -0.276 OA
ATOM     17  H   LIG d   1       0.347  81.980 113.810  0.00  0.00     0.149 HD
ENDBRANCH   6  13
BRANCH   5  18
ATOM     18  N   LIG d   1      -0.113  79.995 110.689  0.00  0.00     0.381 N 
ATOM     19  H   LIG d   1       0.249  79.225 110.162  0.00  0.00    -0.090 HD
ATOM     20  H   LIG d   1      -0.765  80.494 110.111  0.00  0.00    -0.090 HD
ATOM     21  H   LIG d   1      -0.572  79.660 111.508  0.00  0.00    -0.090 HD
ENDBRANCH   5  18
BRANCH   3  22
ATOM     22  C   LIG d   1       3.912  82.118 109.196  0.00  0.00     0.382 C 
ATOM     23  O   LIG d   1       4.697  83.096 109.143  0.00  0.00    -0.241 OA
ATOM     24  O   LIG d   1       4.138  81.112 108.497  0.00  0.00    -0.241 OA
ENDBRANCH   3  22
TORSDOF 7
ENDMDL
MODEL 7
REMARK VINA RESULT:      -4.5      2.545      6.023
REMARK  7 active torsions:
REMARK  status: ('A' for Active; 'I' for Inactive)
REMARK    1  A    between atoms: C_2  and  C_3 
REMARK    2  A    between atoms: C_3  and  O_6 
REMARK    3  A    between atoms: C_3  and  C_4 
REMARK    4  A    between atoms: C_7  and  O_6 
REMARK    5  A    between atoms: C_9  and  C_10 
REMARK    6  A    between atoms: N_15  and  C_14 
REMARK    7  A    between atoms: N_20  and  C_19 
REMARK       I    between atoms: C_22  and  N_20 
ROOT
ATOM      1  C   LIG d   1       1.743  83.262 112.013  0.00  0.00     0.161 C 
ATOM      2  C   LIG d   1       1.119  83.937 113.075  0.00  0.00     0.016 C 
ATOM      3  C   LIG d   1       0.433  85.164 112.922  0.00  0.00     0.038 C 
ATOM      4  C   LIG d   1       0.195  85.727 111.659  0.00  0.00     0.028 C 
ATOM      5  C   LIG d   1       1.239  85.342 110.617  0.00  0.00    -0.047 C 
ATOM      6  C   LIG d   1       1.398  83.804 110.610  0.00  0.00     0.091 C 
ENDROOT
BRANCH   1   7
ATOM      7  O   LIG d   1       1.451  81.853 112.091  0.00  0.00    -0.368 OA
BRANCH   7   8
ATOM      8  C   LIG d   1       0.151  81.443 111.601  0.00  0.00     0.119 C 
BRANCH   8   9
ATOM      9  C   LIG d   1      -0.696  81.034 112.822  0.00  0.00     0.028 C 
ATOM     10  C   LIG d   1      -1.674  79.891 112.502  0.00  0.00     0.006 C 
ENDBRANCH   8   9
BRANCH   8  11
ATOM     11  C   LIG d   1       0.252  80.182 110.737  0.00  0.00     0.028 C 
ATOM     12  C   LIG d   1       0.666  80.485 109.288  0.00  0.00     0.006 C 
ENDBRANCH   8  11
ENDBRANCH   7   8
ENDBRANCH   1   7
BRANCH   6  13
ATOM     13  N   LIG d   1       2.461  83.348 109.678  0.00  0.00    -0.311 N 
ATOM     14  C   LIG d   1       3.762  83.450 109.943  0.00  0.00     0.210 C 
ATOM     15  C   LIG d   1       4.690  82.938 108.837  0.00  0.00     0.109 C 
ATOM     16  O   LIG d   1       4.236  83.887 111.003  0.00  0.00    -0.276 OA
ATOM     17  H   LIG d   1       2.165  82.953 108.807  0.00  0.00     0.149 HD
ENDBRANCH   6  13
BRANCH   5  18
ATOM     18  N   LIG d   1       0.793  85.883 109.319  0.00  0.00     0.381 N 
ATOM     19  H   LIG d   1       0.840  85.168 108.620  0.00  0.00    -0.090 HD
ATOM     20  H   LIG d   1       1.410  86.628 109.049  0.00  0.00    -0.090 HD
ATOM     21  H   LIG d   1      -0.139  86.224 109.394  0.00  0.00    -0.090 HD
ENDBRANCH   5  18
BRANCH   3  22
ATOM     22  C   LIG d   1       0.013  85.861 114.044  0.00  0.00     0.382 C 
ATOM     23  O   LIG d   1      -1.124  85.645 114.527  0.00  0.00    -0.241 OA
ATOM     24  O   LIG d   1       0.739  86.736 114.553  0.00  0.00    -0.241 OA
ENDBRANCH   3  22
TORSDOF 7
ENDMDL
MODEL 8
REMARK VINA RESULT:      -4.2     23.407     25.848
REMARK  7 active torsions:
REMARK  status: ('A' for Active; 'I' for Inactive)
REMARK    1  A    between atoms: C_2  and  C_3 
REMARK    2  A    between atoms: C_3  and  O_6 
REMARK    3  A    between atoms: C_3  and  C_4 
REMARK    4  A    between atoms: C_7  and  O_6 
REMARK    5  A    between atoms: C_9  and  C_10 
REMARK    6  A    between atoms: N_15  and  C_14 
REMARK    7  A    between atoms: N_20  and  C_19 
REMARK       I    between atoms: C_22  and  N_20 
ROOT
ATOM      1  C   LIG d   1       7.116  59.046 110.301  0.00  0.00     0.161 C 
ATOM      2  C   LIG d   1       7.465  60.330 109.852  0.00  0.00     0.016 C 
ATOM      3  C   LIG d   1       8.767  60.869 109.968  0.00  0.00     0.038 C 
ATOM      4  C   LIG d   1       9.853  60.095 110.406  0.00  0.00     0.028 C 
ATOM      5  C   LIG d   1       9.449  58.959 111.340  0.00  0.00    -0.047 C 
ATOM      6  C   LIG d   1       8.312  58.147 110.680  0.00  0.00     0.091 C 
ENDROOT
BRANCH   1   7
ATOM      7  O   LIG d   1       6.290  58.392 109.317  0.00  0.00    -0.368 OA
BRANCH   7   8
ATOM      8  C   LIG d   1       6.888  58.195 108.012  0.00  0.00     0.119 C 
BRANCH   8   9
ATOM      9  C   LIG d   1       6.051  58.993 106.994  0.00  0.00     0.028 C 
ATOM     10  C   LIG d   1       5.649  58.148 105.773  0.00  0.00     0.006 C 
ENDBRANCH   8   9
BRANCH   8  11
ATOM     11  C   LIG d   1       6.783  56.733 107.566  0.00  0.00     0.028 C 
ATOM     12  C   LIG d   1       6.069  55.845 108.598  0.00  0.00     0.006 C 
ENDBRANCH   8  11
ENDBRANCH   7   8
ENDBRANCH   1   7
BRANCH   6  13
ATOM     13  N   LIG d   1       7.801  57.067 111.563  0.00  0.00    -0.311 N 
ATOM     14  C   LIG d   1       8.276  55.822 111.550  0.00  0.00     0.210 C 
ATOM     15  C   LIG d   1       7.593  54.860 112.527  0.00  0.00     0.109 C 
ATOM     16  O   LIG d   1       9.218  55.433 110.845  0.00  0.00    -0.276 OA
ATOM     17  H   LIG d   1       7.056  57.304 112.189  0.00  0.00     0.149 HD
ENDBRANCH   6  13
BRANCH   5  18
ATOM     18  N   LIG d   1      10.655  58.154 111.608  0.00  0.00     0.381 N 
ATOM     19  H   LIG d   1      10.593  57.744 112.519  0.00  0.00    -0.090 HD
ATOM     20  H   LIG d   1      11.460  58.755 111.587  0.00  0.00    -0.090 HD
ATOM     21  H   LIG d   1      10.748  57.439 110.920  0.00  0.00    -0.090 HD
ENDBRANCH   5  18
BRANCH   3  22
ATOM     22  C   LIG d   1       8.985  62.207 109.680  0.00  0.00     0.382 C 
ATOM     23  O   LIG d   1       8.253  63.087 110.195  0.00  0.00    -0.241 OA
ATOM     24  O   LIG d   1       9.877  62.544 108.878  0.00  0.00    -0.241 OA
ENDBRANCH   3  22
TORSDOF 7
ENDMDL
MODEL 9
REMARK VINA RESULT:      -4.1     29.229     31.055
REMARK  7 active torsions:
REMARK  status: ('A' for Active; 'I' for Inactive)
REMARK    1  A    between atoms: C_2  and  C_3 
REMARK    2  A    between atoms: C_3  and  O_6 
REMARK    3  A    between atoms: C_3  and  C_4 
REMARK    4  A    between atoms: C_7  and  O_6 
REMARK    5  A    between atoms: C_9  and  C_10 
REMARK    6  A    between atoms: N_15  and  C_14 
REMARK    7  A    between atoms: N_20  and  C_19 
REMARK       I    between atoms: C_22  and  N_20 
ROOT
ATOM      1  C   LIG d   1     -23.413  63.882 107.956  0.00  0.00     0.161 C 
ATOM      2  C   LIG d   1     -22.068  63.842 108.358  0.00  0.00     0.016 C 
ATOM      3  C   LIG d   1     -20.984  63.836 107.449  0.00  0.00     0.038 C 
ATOM      4  C   LIG d   1     -21.171  64.023 106.071  0.00  0.00     0.028 C 
ATOM      5  C   LIG d   1     -22.538  63.561 105.577  0.00  0.00    -0.047 C 
ATOM      6  C   LIG d   1     -23.633  64.199 106.462  0.00  0.00     0.091 C 
ENDROOT
BRANCH   1   7
ATOM      7  O   LIG d   1     -24.141  64.816 108.778  0.00  0.00    -0.368 OA
BRANCH   7   8
ATOM      8  C   LIG d   1     -24.158  66.191 108.320  0.00  0.00     0.119 C 
BRANCH   8   9
ATOM      9  C   LIG d   1     -23.341  67.024 109.326  0.00  0.00     0.028 C 
ATOM     10  C   LIG d   1     -23.356  66.418 110.739  0.00  0.00     0.006 C 
ENDBRANCH   8   9
BRANCH   8  11
ATOM     11  C   LIG d   1     -25.573  66.775 108.362  0.00  0.00     0.028 C 
ATOM     12  C   LIG d   1     -25.582  68.312 108.385  0.00  0.00     0.006 C 
ENDBRANCH   8  11
ENDBRANCH   7   8
ENDBRANCH   1   7
BRANCH   6  13
ATOM     13  N   LIG d   1     -24.997  63.733 106.099  0.00  0.00    -0.311 N 
ATOM     14  C   LIG d   1     -25.759  64.334 105.187  0.00  0.00     0.210 C 
ATOM     15  C   LIG d   1     -27.139  63.703 104.980  0.00  0.00     0.109 C 
ATOM     16  O   LIG d   1     -25.410  65.310 104.506  0.00  0.00    -0.276 OA
ATOM     17  H   LIG d   1     -25.347  62.928 106.581  0.00  0.00     0.149 HD
ENDBRANCH   6  13
BRANCH   5  18
ATOM     18  N   LIG d   1     -22.649  63.940 104.156  0.00  0.00     0.381 N 
ATOM     19  H   LIG d   1     -23.303  63.339 103.695  0.00  0.00    -0.090 HD
ATOM     20  H   LIG d   1     -21.752  63.825 103.718  0.00  0.00    -0.090 HD
ATOM     21  H   LIG d   1     -22.946  64.887 104.078  0.00  0.00    -0.090 HD
ENDBRANCH   5  18
BRANCH   3  22
ATOM     22  C   LIG d   1     -19.699  63.601 107.914  0.00  0.00     0.382 C 
ATOM     23  O   LIG d   1     -18.843  63.085 107.155  0.00  0.00    -0.241 OA
ATOM     24  O   LIG d   1     -19.398  63.857 109.095  0.00  0.00    -0.241 OA
ENDBRANCH   3  22
TORSDOF 7
ENDMDL
