MODEL 1
REMARK VINA RESULT:      -6.9      0.000      0.000
REMARK  7 active torsions:
REMARK  status: ('A' for Active; 'I' for Inactive)
REMARK    1  A    between atoms: C_2  and  C_3 
REMARK    2  A    between atoms: C_3  and  O_6 
REMARK    3  A    between atoms: C_3  and  C_4 
REMARK    4  A    between atoms: C_7  and  O_6 
REMARK    5  A    between atoms: C_9  and  C_10 
REMARK    6  A    between atoms: N_15  and  C_14 
REMARK    7  A    between atoms: N_20  and  C_19 
REMARK       I    between atoms: C_22  and  N_20 
ROOT
ATOM      1  C   LIG d   1       1.007  83.787 109.101  0.00  0.00     0.161 C 
ATOM      2  C   LIG d   1       0.587  85.045 109.563  0.00  0.00     0.016 C 
ATOM      3  C   LIG d   1      -0.242  85.222 110.695  0.00  0.00     0.038 C 
ATOM      4  C   LIG d   1      -0.586  84.153 111.536  0.00  0.00     0.028 C 
ATOM      5  C   LIG d   1      -0.603  82.804 110.824  0.00  0.00    -0.047 C 
ATOM      6  C   LIG d   1       0.733  82.618 110.070  0.00  0.00     0.091 C 
ENDROOT
BRANCH   1   7
ATOM      7  O   LIG d   1       2.406  83.834 108.756  0.00  0.00    -0.368 OA
BRANCH   7   8
ATOM      8  C   LIG d   1       3.338  83.597 109.840  0.00  0.00     0.119 C 
BRANCH   8   9
ATOM      9  C   LIG d   1       3.684  84.964 110.460  0.00  0.00     0.028 C 
ATOM     10  C   LIG d   1       3.448  84.996 111.980  0.00  0.00     0.006 C 
ENDBRANCH   8   9
BRANCH   8  11
ATOM     11  C   LIG d   1       4.666  83.039 109.320  0.00  0.00     0.028 C 
ATOM     12  C   LIG d   1       4.584  81.547 108.959  0.00  0.00     0.006 C 
ENDBRANCH   8  11
ENDBRANCH   7   8
ENDBRANCH   1   7
BRANCH   6  13
ATOM     13  N   LIG d   1       0.766  81.360 109.278  0.00  0.00    -0.311 N 
ATOM     14  C   LIG d   1       1.341  80.238 109.707  0.00  0.00     0.210 C 
ATOM     15  C   LIG d   1       1.279  79.064 108.726  0.00  0.00     0.109 C 
ATOM     16  O   LIG d   1       1.868  80.095 110.820  0.00  0.00    -0.276 OA
ATOM     17  H   LIG d   1       0.334  81.379 108.375  0.00  0.00     0.149 HD
ENDBRANCH   6  13
BRANCH   5  18
ATOM     18  N   LIG d   1      -0.841  81.765 111.844  0.00  0.00     0.381 N 
ATOM     19  H   LIG d   1      -0.034  81.179 111.926  0.00  0.00    -0.090 HD
ATOM     20  H   LIG d   1      -1.616  81.196 111.554  0.00  0.00    -0.090 HD
ATOM     21  H   LIG d   1      -1.043  82.190 112.723  0.00  0.00    -0.090 HD
ENDBRANCH   5  18
BRANCH   3  22
ATOM     22  C   LIG d   1      -0.768  86.474 110.973  0.00  0.00     0.382 C 
ATOM     23  O   LIG d   1      -0.176  87.240 111.771  0.00  0.00    -0.241 OA
ATOM     24  O   LIG d   1      -1.851  86.830 110.470  0.00  0.00    -0.241 OA
ENDBRANCH   3  22
TORSDOF 7
ENDMDL
MODEL 2
REMARK VINA RESULT:      -6.9      2.617      4.124
REMARK  7 active torsions:
REMARK  status: ('A' for Active; 'I' for Inactive)
REMARK    1  A    between atoms: C_2  and  C_3 
REMARK    2  A    between atoms: C_3  and  O_6 
REMARK    3  A    between atoms: C_3  and  C_4 
REMARK    4  A    between atoms: C_7  and  O_6 
REMARK    5  A    between atoms: C_9  and  C_10 
REMARK    6  A    between atoms: N_15  and  C_14 
REMARK    7  A    between atoms: N_20  and  C_19 
REMARK       I    between atoms: C_22  and  N_20 
ROOT
ATOM      1  C   LIG d   1       0.231  83.009 110.564  0.00  0.00     0.161 C 
ATOM      2  C   LIG d   1      -0.922  82.811 111.341  0.00  0.00     0.016 C 
ATOM      3  C   LIG d   1      -0.940  82.038 112.524  0.00  0.00     0.038 C 
ATOM      4  C   LIG d   1       0.236  81.532 113.097  0.00  0.00     0.028 C 
ATOM      5  C   LIG d   1       1.345  81.280 112.081  0.00  0.00    -0.047 C 
ATOM      6  C   LIG d   1       1.546  82.556 111.232  0.00  0.00     0.091 C 
ENDROOT
BRANCH   1   7
ATOM      7  O   LIG d   1       0.321  84.391 110.165  0.00  0.00    -0.368 OA
BRANCH   7   8
ATOM      8  C   LIG d   1       0.889  85.299 111.141  0.00  0.00     0.119 C 
BRANCH   8   9
ATOM      9  C   LIG d   1      -0.195  86.336 111.494  0.00  0.00     0.028 C 
ATOM     10  C   LIG d   1      -1.322  86.385 110.449  0.00  0.00     0.006 C 
ENDBRANCH   8   9
BRANCH   8  11
ATOM     11  C   LIG d   1       2.044  86.108 110.543  0.00  0.00     0.028 C 
ATOM     12  C   LIG d   1       2.998  86.664 111.612  0.00  0.00     0.006 C 
ENDBRANCH   8  11
ENDBRANCH   7   8
ENDBRANCH   1   7
BRANCH   6  13
ATOM     13  N   LIG d   1       2.555  82.368 110.157  0.00  0.00    -0.311 N 
ATOM     14  C   LIG d   1       3.813  82.796 110.249  0.00  0.00     0.210 C 
ATOM     15  C   LIG d   1       4.683  82.518 109.020  0.00  0.00     0.109 C 
ATOM     16  O   LIG d   1       4.300  83.352 111.246  0.00  0.00    -0.276 OA
ATOM     17  H   LIG d   1       2.254  81.899 109.325  0.00  0.00     0.149 HD
ENDBRANCH   6  13
BRANCH   5  18
ATOM     18  N   LIG d   1       2.553  80.886 112.828  0.00  0.00     0.381 N 
ATOM     19  H   LIG d   1       2.432  79.969 113.210  0.00  0.00    -0.090 HD
ATOM     20  H   LIG d   1       2.690  81.529 113.588  0.00  0.00    -0.090 HD
ATOM     21  H   LIG d   1       3.347  80.900 112.226  0.00  0.00    -0.090 HD
ENDBRANCH   5  18
BRANCH   3  22
ATOM     22  C   LIG d   1      -2.151  81.732 113.127  0.00  0.00     0.382 C 
ATOM     23  O   LIG d   1      -2.184  81.409 114.339  0.00  0.00    -0.241 OA
ATOM     24  O   LIG d   1      -3.205  81.732 112.463  0.00  0.00    -0.241 OA
ENDBRANCH   3  22
TORSDOF 7
ENDMDL
MODEL 3
REMARK VINA RESULT:      -6.5      2.255      4.876
REMARK  7 active torsions:
REMARK  status: ('A' for Active; 'I' for Inactive)
REMARK    1  A    between atoms: C_2  and  C_3 
REMARK    2  A    between atoms: C_3  and  O_6 
REMARK    3  A    between atoms: C_3  and  C_4 
REMARK    4  A    between atoms: C_7  and  O_6 
REMARK    5  A    between atoms: C_9  and  C_10 
REMARK    6  A    between atoms: N_15  and  C_14 
REMARK    7  A    between atoms: N_20  and  C_19 
REMARK       I    between atoms: C_22  and  N_20 
ROOT
ATOM      1  C   LIG d   1       1.640  82.946 111.814  0.00  0.00     0.161 C 
ATOM      2  C   LIG d   1       2.734  83.104 110.947  0.00  0.00     0.016 C 
ATOM      3  C   LIG d   1       3.070  82.171 109.939  0.00  0.00     0.038 C 
ATOM      4  C   LIG d   1       2.239  81.084 109.629  0.00  0.00     0.028 C 
ATOM      5  C   LIG d   1       1.397  80.609 110.808  0.00  0.00    -0.047 C 
ATOM      6  C   LIG d   1       0.659  81.823 111.418  0.00  0.00     0.091 C 
ENDROOT
BRANCH   1   7
ATOM      7  O   LIG d   1       0.940  84.198 111.951  0.00  0.00    -0.368 OA
BRANCH   7   8
ATOM      8  C   LIG d   1       1.068  85.124 110.844  0.00  0.00     0.119 C 
BRANCH   8   9
ATOM      9  C   LIG d   1       1.301  86.527 111.439  0.00  0.00     0.028 C 
ATOM     10  C   LIG d   1       2.787  86.802 111.727  0.00  0.00     0.006 C 
ENDBRANCH   8   9
BRANCH   8  11
ATOM     11  C   LIG d   1      -0.239  85.231 110.053  0.00  0.00     0.028 C 
ATOM     12  C   LIG d   1      -1.206  86.273 110.638  0.00  0.00     0.006 C 
ENDBRANCH   8  11
ENDBRANCH   7   8
ENDBRANCH   1   7
BRANCH   6  13
ATOM     13  N   LIG d   1      -0.123  81.461 112.629  0.00  0.00    -0.311 N 
ATOM     14  C   LIG d   1      -1.394  81.812 112.813  0.00  0.00     0.210 C 
ATOM     15  C   LIG d   1      -2.006  81.353 114.140  0.00  0.00     0.109 C 
ATOM     16  O   LIG d   1      -2.083  82.433 111.989  0.00  0.00    -0.276 OA
ATOM     17  H   LIG d   1       0.349  80.930 113.335  0.00  0.00     0.149 HD
ENDBRANCH   6  13
BRANCH   5  18
ATOM     18  N   LIG d   1       0.481  79.566 110.310  0.00  0.00     0.381 N 
ATOM     19  H   LIG d   1       0.995  78.731 110.111  0.00  0.00    -0.090 HD
ATOM     20  H   LIG d   1       0.057  79.886 109.457  0.00  0.00    -0.090 HD
ATOM     21  H   LIG d   1      -0.223  79.378 110.989  0.00  0.00    -0.090 HD
ENDBRANCH   5  18
BRANCH   3  22
ATOM     22  C   LIG d   1       4.270  82.300 109.256  0.00  0.00     0.382 C 
ATOM     23  O   LIG d   1       4.811  81.290 108.745  0.00  0.00    -0.241 OA
ATOM     24  O   LIG d   1       4.840  83.405 109.183  0.00  0.00    -0.241 OA
ENDBRANCH   3  22
TORSDOF 7
ENDMDL
MODEL 4
REMARK VINA RESULT:      -6.3      2.222      5.098
REMARK  7 active torsions:
REMARK  status: ('A' for Active; 'I' for Inactive)
REMARK    1  A    between atoms: C_2  and  C_3 
REMARK    2  A    between atoms: C_3  and  O_6 
REMARK    3  A    between atoms: C_3  and  C_4 
REMARK    4  A    between atoms: C_7  and  O_6 
REMARK    5  A    between atoms: C_9  and  C_10 
REMARK    6  A    between atoms: N_15  and  C_14 
REMARK    7  A    between atoms: N_20  and  C_19 
REMARK       I    between atoms: C_22  and  N_20 
ROOT
ATOM      1  C   LIG d   1       1.794  82.769 111.871  0.00  0.00     0.161 C 
ATOM      2  C   LIG d   1       2.885  82.824 110.988  0.00  0.00     0.016 C 
ATOM      3  C   LIG d   1       3.106  81.875 109.963  0.00  0.00     0.038 C 
ATOM      4  C   LIG d   1       2.163  80.885 109.654  0.00  0.00     0.028 C 
ATOM      5  C   LIG d   1       1.294  80.484 110.842  0.00  0.00    -0.047 C 
ATOM      6  C   LIG d   1       0.695  81.759 111.478  0.00  0.00     0.091 C 
ENDROOT
BRANCH   1   7
ATOM      7  O   LIG d   1       1.230  84.085 112.035  0.00  0.00    -0.368 OA
BRANCH   7   8
ATOM      8  C   LIG d   1       0.299  84.511 111.010  0.00  0.00     0.119 C 
BRANCH   8   9
ATOM      9  C   LIG d   1       1.083  85.371 110.000  0.00  0.00     0.028 C 
ATOM     10  C   LIG d   1       1.114  84.746 108.596  0.00  0.00     0.006 C 
ENDBRANCH   8   9
BRANCH   8  11
ATOM     11  C   LIG d   1      -0.776  85.438 111.585  0.00  0.00     0.028 C 
ATOM     12  C   LIG d   1      -1.329  86.426 110.545  0.00  0.00     0.006 C 
ENDBRANCH   8  11
ENDBRANCH   7   8
ENDBRANCH   1   7
BRANCH   6  13
ATOM     13  N   LIG d   1      -0.101  81.464 112.698  0.00  0.00    -0.311 N 
ATOM     14  C   LIG d   1      -1.409  81.693 112.793  0.00  0.00     0.210 C 
ATOM     15  C   LIG d   1      -2.032  81.334 114.146  0.00  0.00     0.109 C 
ATOM     16  O   LIG d   1      -2.119  82.128 111.875  0.00  0.00    -0.276 OA
ATOM     17  H   LIG d   1       0.391  81.079 113.481  0.00  0.00     0.149 HD
ENDBRANCH   6  13
BRANCH   5  18
ATOM     18  N   LIG d   1       0.267  79.548 110.347  0.00  0.00     0.381 N 
ATOM     19  H   LIG d   1      -0.620  79.772 110.753  0.00  0.00    -0.090 HD
ATOM     20  H   LIG d   1       0.515  78.615 110.627  0.00  0.00    -0.090 HD
ATOM     21  H   LIG d   1       0.208  79.600 109.354  0.00  0.00    -0.090 HD
ENDBRANCH   5  18
BRANCH   3  22
ATOM     22  C   LIG d   1       4.302  81.888 109.261  0.00  0.00     0.382 C 
ATOM     23  O   LIG d   1       4.951  80.825 109.109  0.00  0.00    -0.241 OA
ATOM     24  O   LIG d   1       4.762  82.957 108.817  0.00  0.00    -0.241 OA
ENDBRANCH   3  22
TORSDOF 7
ENDMDL
MODEL 5
REMARK VINA RESULT:      -6.1      2.718      4.682
REMARK  7 active torsions:
REMARK  status: ('A' for Active; 'I' for Inactive)
REMARK    1  A    between atoms: C_2  and  C_3 
REMARK    2  A    between atoms: C_3  and  O_6 
REMARK    3  A    between atoms: C_3  and  C_4 
REMARK    4  A    between atoms: C_7  and  O_6 
REMARK    5  A    between atoms: C_9  and  C_10 
REMARK    6  A    between atoms: N_15  and  C_14 
REMARK    7  A    between atoms: N_20  and  C_19 
REMARK       I    between atoms: C_22  and  N_20 
ROOT
ATOM      1  C   LIG d   1       2.206  84.276 111.222  0.00  0.00     0.161 C 
ATOM      2  C   LIG d   1       1.290  83.218 111.334  0.00  0.00     0.016 C 
ATOM      3  C   LIG d   1      -0.113  83.398 111.321  0.00  0.00     0.038 C 
ATOM      4  C   LIG d   1      -0.698  84.642 111.042  0.00  0.00     0.028 C 
ATOM      5  C   LIG d   1       0.184  85.826 111.423  0.00  0.00    -0.047 C 
ATOM      6  C   LIG d   1       1.587  85.627 110.805  0.00  0.00     0.091 C 
ENDROOT
BRANCH   1   7
ATOM      7  O   LIG d   1       3.267  83.911 110.317  0.00  0.00    -0.368 OA
BRANCH   7   8
ATOM      8  C   LIG d   1       3.029  82.741 109.496  0.00  0.00     0.119 C 
BRANCH   8   9
ATOM      9  C   LIG d   1       4.296  81.867 109.557  0.00  0.00     0.028 C 
ATOM     10  C   LIG d   1       3.974  80.381 109.786  0.00  0.00     0.006 C 
ENDBRANCH   8   9
BRANCH   8  11
ATOM     11  C   LIG d   1       2.868  83.119 108.020  0.00  0.00     0.028 C 
ATOM     12  C   LIG d   1       1.406  83.064 107.547  0.00  0.00     0.006 C 
ENDBRANCH   8  11
ENDBRANCH   7   8
ENDBRANCH   1   7
BRANCH   6  13
ATOM     13  N   LIG d   1       2.537  86.699 111.199  0.00  0.00    -0.311 N 
ATOM     14  C   LIG d   1       3.054  86.807 112.421  0.00  0.00     0.210 C 
ATOM     15  C   LIG d   1       3.998  87.997 112.621  0.00  0.00     0.109 C 
ATOM     16  O   LIG d   1       2.846  86.012 113.350  0.00  0.00    -0.276 OA
ATOM     17  H   LIG d   1       2.785  87.369 110.497  0.00  0.00     0.149 HD
ENDBRANCH   6  13
BRANCH   5  18
ATOM     18  N   LIG d   1      -0.487  87.052 110.952  0.00  0.00     0.381 N 
ATOM     19  H   LIG d   1      -0.274  87.205 109.987  0.00  0.00    -0.090 HD
ATOM     20  H   LIG d   1      -0.143  87.834 111.479  0.00  0.00    -0.090 HD
ATOM     21  H   LIG d   1      -1.473  86.969 111.072  0.00  0.00    -0.090 HD
ENDBRANCH   5  18
BRANCH   3  22
ATOM     22  C   LIG d   1      -0.945  82.333 111.630  0.00  0.00     0.382 C 
ATOM     23  O   LIG d   1      -2.001  82.530 112.278  0.00  0.00    -0.241 OA
ATOM     24  O   LIG d   1      -0.631  81.171 111.307  0.00  0.00    -0.241 OA
ENDBRANCH   3  22
TORSDOF 7
ENDMDL
MODEL 6
REMARK VINA RESULT:      -6.0      2.366      4.542
REMARK  7 active torsions:
REMARK  status: ('A' for Active; 'I' for Inactive)
REMARK    1  A    between atoms: C_2  and  C_3 
REMARK    2  A    between atoms: C_3  and  O_6 
REMARK    3  A    between atoms: C_3  and  C_4 
REMARK    4  A    between atoms: C_7  and  O_6 
REMARK    5  A    between atoms: C_9  and  C_10 
REMARK    6  A    between atoms: N_15  and  C_14 
REMARK    7  A    between atoms: N_20  and  C_19 
REMARK       I    between atoms: C_22  and  N_20 
ROOT
ATOM      1  C   LIG d   1       0.360  82.638 111.198  0.00  0.00     0.161 C 
ATOM      2  C   LIG d   1       0.326  83.993 111.567  0.00  0.00     0.016 C 
ATOM      3  C   LIG d   1       0.923  85.022 110.804  0.00  0.00     0.038 C 
ATOM      4  C   LIG d   1       1.468  84.782 109.533  0.00  0.00     0.028 C 
ATOM      5  C   LIG d   1       1.972  83.355 109.350  0.00  0.00    -0.047 C 
ATOM      6  C   LIG d   1       0.853  82.371 109.761  0.00  0.00     0.091 C 
ENDROOT
BRANCH   1   7
ATOM      7  O   LIG d   1      -0.938  82.044 111.401  0.00  0.00    -0.368 OA
BRANCH   7   8
ATOM      8  C   LIG d   1      -1.174  81.459 112.705  0.00  0.00     0.119 C 
BRANCH   8   9
ATOM      9  C   LIG d   1      -0.684  79.999 112.654  0.00  0.00     0.028 C 
ATOM     10  C   LIG d   1      -1.682  79.070 111.943  0.00  0.00     0.006 C 
ENDBRANCH   8   9
BRANCH   8  11
ATOM     11  C   LIG d   1      -2.672  81.374 113.014  0.00  0.00     0.028 C 
ATOM     12  C   LIG d   1      -2.972  81.401 114.521  0.00  0.00     0.006 C 
ENDBRANCH   8  11
ENDBRANCH   7   8
ENDBRANCH   1   7
BRANCH   6  13
ATOM     13  N   LIG d   1       1.292  80.953 109.692  0.00  0.00    -0.311 N 
ATOM     14  C   LIG d   1       0.590  79.997 109.085  0.00  0.00     0.210 C 
ATOM     15  C   LIG d   1       1.213  78.599 109.148  0.00  0.00     0.109 C 
ATOM     16  O   LIG d   1      -0.473  80.180 108.473  0.00  0.00    -0.276 OA
ATOM     17  H   LIG d   1       2.159  80.721 110.135  0.00  0.00     0.149 HD
ENDBRANCH   6  13
BRANCH   5  18
ATOM     18  N   LIG d   1       2.386  83.206 107.942  0.00  0.00     0.381 N 
ATOM     19  H   LIG d   1       1.901  83.871 107.374  0.00  0.00    -0.090 HD
ATOM     20  H   LIG d   1       2.140  82.284 107.627  0.00  0.00    -0.090 HD
ATOM     21  H   LIG d   1       3.370  83.341 107.860  0.00  0.00    -0.090 HD
ENDBRANCH   5  18
BRANCH   3  22
ATOM     22  C   LIG d   1       1.015  86.302 111.329  0.00  0.00     0.382 C 
ATOM     23  O   LIG d   1       0.153  86.708 112.146  0.00  0.00    -0.241 OA
ATOM     24  O   LIG d   1       1.922  87.072 110.962  0.00  0.00    -0.241 OA
ENDBRANCH   3  22
TORSDOF 7
ENDMDL
MODEL 7
REMARK VINA RESULT:      -5.9      2.390      4.836
REMARK  7 active torsions:
REMARK  status: ('A' for Active; 'I' for Inactive)
REMARK    1  A    between atoms: C_2  and  C_3 
REMARK    2  A    between atoms: C_3  and  O_6 
REMARK    3  A    between atoms: C_3  and  C_4 
REMARK    4  A    between atoms: C_7  and  O_6 
REMARK    5  A    between atoms: C_9  and  C_10 
REMARK    6  A    between atoms: N_15  and  C_14 
REMARK    7  A    between atoms: N_20  and  C_19 
REMARK       I    between atoms: C_22  and  N_20 
ROOT
ATOM      1  C   LIG d   1       1.962  81.979 112.255  0.00  0.00     0.161 C 
ATOM      2  C   LIG d   1       1.038  80.937 112.446  0.00  0.00     0.016 C 
ATOM      3  C   LIG d   1      -0.356  81.091 112.266  0.00  0.00     0.038 C 
ATOM      4  C   LIG d   1      -0.910  82.264 111.733  0.00  0.00     0.028 C 
ATOM      5  C   LIG d   1      -0.070  83.508 112.003  0.00  0.00    -0.047 C 
ATOM      6  C   LIG d   1       1.387  83.234 111.566  0.00  0.00     0.091 C 
ENDROOT
BRANCH   1   7
ATOM      7  O   LIG d   1       3.107  81.489 111.530  0.00  0.00    -0.368 OA
BRANCH   7   8
ATOM      8  C   LIG d   1       3.007  81.520 110.085  0.00  0.00     0.119 C 
BRANCH   8   9
ATOM      9  C   LIG d   1       2.468  80.151 109.628  0.00  0.00     0.028 C 
ATOM     10  C   LIG d   1       1.096  80.259 108.942  0.00  0.00     0.006 C 
ENDBRANCH   8   9
BRANCH   8  11
ATOM     11  C   LIG d   1       4.388  81.650 109.434  0.00  0.00     0.028 C 
ATOM     12  C   LIG d   1       4.769  83.108 109.131  0.00  0.00     0.006 C 
ENDBRANCH   8  11
ENDBRANCH   7   8
ENDBRANCH   1   7
BRANCH   6  13
ATOM     13  N   LIG d   1       2.294  84.371 111.874  0.00  0.00    -0.311 N 
ATOM     14  C   LIG d   1       2.560  85.351 111.012  0.00  0.00     0.210 C 
ATOM     15  C   LIG d   1       3.537  86.414 111.523  0.00  0.00     0.109 C 
ATOM     16  O   LIG d   1       2.054  85.458 109.885  0.00  0.00    -0.276 OA
ATOM     17  H   LIG d   1       2.723  84.380 112.778  0.00  0.00     0.149 HD
ENDBRANCH   6  13
BRANCH   5  18
ATOM     18  N   LIG d   1      -0.691  84.631 111.276  0.00  0.00     0.381 N 
ATOM     19  H   LIG d   1      -1.630  84.763 111.595  0.00  0.00    -0.090 HD
ATOM     20  H   LIG d   1      -0.718  84.409 110.297  0.00  0.00    -0.090 HD
ATOM     21  H   LIG d   1      -0.163  85.464 111.421  0.00  0.00    -0.090 HD
ENDBRANCH   5  18
BRANCH   3  22
ATOM     22  C   LIG d   1      -1.215  80.076 112.659  0.00  0.00     0.382 C 
ATOM     23  O   LIG d   1      -1.278  79.740 113.866  0.00  0.00    -0.241 OA
ATOM     24  O   LIG d   1      -1.895  79.462 111.815  0.00  0.00    -0.241 OA
ENDBRANCH   3  22
TORSDOF 7
ENDMDL
MODEL 8
REMARK VINA RESULT:      -5.5      1.155      2.070
REMARK  7 active torsions:
REMARK  status: ('A' for Active; 'I' for Inactive)
REMARK    1  A    between atoms: C_2  and  C_3 
REMARK    2  A    between atoms: C_3  and  O_6 
REMARK    3  A    between atoms: C_3  and  C_4 
REMARK    4  A    between atoms: C_7  and  O_6 
REMARK    5  A    between atoms: C_9  and  C_10 
REMARK    6  A    between atoms: N_15  and  C_14 
REMARK    7  A    between atoms: N_20  and  C_19 
REMARK       I    between atoms: C_22  and  N_20 
ROOT
ATOM      1  C   LIG d   1       1.446  83.019 110.415  0.00  0.00     0.161 C 
ATOM      2  C   LIG d   1       0.977  84.339 110.513  0.00  0.00     0.016 C 
ATOM      3  C   LIG d   1      -0.250  84.686 111.124  0.00  0.00     0.038 C 
ATOM      4  C   LIG d   1      -1.025  83.745 111.818  0.00  0.00     0.028 C 
ATOM      5  C   LIG d   1      -0.843  82.319 111.310  0.00  0.00    -0.047 C 
ATOM      6  C   LIG d   1       0.667  81.992 111.263  0.00  0.00     0.091 C 
ENDROOT
BRANCH   1   7
ATOM      7  O   LIG d   1       2.850  82.973 110.737  0.00  0.00    -0.368 OA
BRANCH   7   8
ATOM      8  C   LIG d   1       3.659  84.055 110.213  0.00  0.00     0.119 C 
BRANCH   8   9
ATOM      9  C   LIG d   1       4.826  83.422 109.429  0.00  0.00     0.028 C 
ATOM     10  C   LIG d   1       4.559  81.952 109.065  0.00  0.00     0.006 C 
ENDBRANCH   8   9
BRANCH   8  11
ATOM     11  C   LIG d   1       4.316  84.856 111.341  0.00  0.00     0.028 C 
ATOM     12  C   LIG d   1       3.700  86.253 111.517  0.00  0.00     0.006 C 
ENDBRANCH   8  11
ENDBRANCH   7   8
ENDBRANCH   1   7
BRANCH   6  13
ATOM     13  N   LIG d   1       0.938  80.644 110.698  0.00  0.00    -0.311 N 
ATOM     14  C   LIG d   1       0.972  80.390 109.391  0.00  0.00     0.210 C 
ATOM     15  C   LIG d   1       1.248  78.929 109.022  0.00  0.00     0.109 C 
ATOM     16  O   LIG d   1       0.832  81.243 108.501  0.00  0.00    -0.276 OA
ATOM     17  H   LIG d   1       1.094  79.899 111.349  0.00  0.00     0.149 HD
ENDBRANCH   6  13
BRANCH   5  18
ATOM     18  N   LIG d   1      -1.600  81.426 112.208  0.00  0.00     0.381 N 
ATOM     19  H   LIG d   1      -2.496  81.227 111.810  0.00  0.00    -0.090 HD
ATOM     20  H   LIG d   1      -1.741  81.893 113.086  0.00  0.00    -0.090 HD
ATOM     21  H   LIG d   1      -1.096  80.579 112.351  0.00  0.00    -0.090 HD
ENDBRANCH   5  18
BRANCH   3  22
ATOM     22  C   LIG d   1      -0.732  85.981 111.011  0.00  0.00     0.382 C 
ATOM     23  O   LIG d   1      -0.286  86.884 111.759  0.00  0.00    -0.241 OA
ATOM     24  O   LIG d   1      -1.639  86.249 110.200  0.00  0.00    -0.241 OA
ENDBRANCH   3  22
TORSDOF 7
ENDMDL
MODEL 9
REMARK VINA RESULT:      -5.4      2.496      5.200
REMARK  7 active torsions:
REMARK  status: ('A' for Active; 'I' for Inactive)
REMARK    1  A    between atoms: C_2  and  C_3 
REMARK    2  A    between atoms: C_3  and  O_6 
REMARK    3  A    between atoms: C_3  and  C_4 
REMARK    4  A    between atoms: C_7  and  O_6 
REMARK    5  A    between atoms: C_9  and  C_10 
REMARK    6  A    between atoms: N_15  and  C_14 
REMARK    7  A    between atoms: N_20  and  C_19 
REMARK       I    between atoms: C_22  and  N_20 
ROOT
ATOM      1  C   LIG d   1       0.251  82.193 111.225  0.00  0.00     0.161 C 
ATOM      2  C   LIG d   1       1.158  81.741 110.253  0.00  0.00     0.016 C 
ATOM      3  C   LIG d   1       1.159  80.422 109.743  0.00  0.00     0.038 C 
ATOM      4  C   LIG d   1       0.150  79.503 110.063  0.00  0.00     0.028 C 
ATOM      5  C   LIG d   1      -0.491  79.756 111.424  0.00  0.00    -0.047 C 
ATOM      6  C   LIG d   1      -0.928  81.237 111.505  0.00  0.00     0.091 C 
ENDROOT
BRANCH   1   7
ATOM      7  O   LIG d   1      -0.239  83.500 110.866  0.00  0.00    -0.368 OA
BRANCH   7   8
ATOM      8  C   LIG d   1       0.556  84.625 111.315  0.00  0.00     0.119 C 
BRANCH   8   9
ATOM      9  C   LIG d   1      -0.398  85.820 111.505  0.00  0.00     0.028 C 
ATOM     10  C   LIG d   1       0.343  87.102 111.920  0.00  0.00     0.006 C 
ENDBRANCH   8   9
BRANCH   8  11
ATOM     11  C   LIG d   1       1.552  85.068 110.239  0.00  0.00     0.028 C 
ATOM     12  C   LIG d   1       0.976  84.970 108.817  0.00  0.00     0.006 C 
ENDBRANCH   8  11
ENDBRANCH   7   8
ENDBRANCH   1   7
BRANCH   6  13
ATOM     13  N   LIG d   1      -1.488  81.591 112.835  0.00  0.00    -0.311 N 
ATOM     14  C   LIG d   1      -2.788  81.534 113.121  0.00  0.00     0.210 C 
ATOM     15  C   LIG d   1      -3.155  81.961 114.546  0.00  0.00     0.109 C 
ATOM     16  O   LIG d   1      -3.668  81.141 112.341  0.00  0.00    -0.276 OA
ATOM     17  H   LIG d   1      -0.841  81.891 113.537  0.00  0.00     0.149 HD
ENDBRANCH   6  13
BRANCH   5  18
ATOM     18  N   LIG d   1      -1.616  78.813 111.569  0.00  0.00     0.381 N 
ATOM     19  H   LIG d   1      -2.086  78.978 112.437  0.00  0.00    -0.090 HD
ATOM     20  H   LIG d   1      -1.255  77.875 111.579  0.00  0.00    -0.090 HD
ATOM     21  H   LIG d   1      -2.254  78.924 110.812  0.00  0.00    -0.090 HD
ENDBRANCH   5  18
BRANCH   3  22
ATOM     22  C   LIG d   1       2.202  80.000 108.933  0.00  0.00     0.382 C 
ATOM     23  O   LIG d   1       2.278  78.796 108.585  0.00  0.00    -0.241 OA
ATOM     24  O   LIG d   1       3.093  80.797 108.582  0.00  0.00    -0.241 OA
ENDBRANCH   3  22
TORSDOF 7
ENDMDL
