MODEL 1
REMARK VINA RESULT:      -6.6      0.000      0.000
REMARK  7 active torsions:
REMARK  status: ('A' for Active; 'I' for Inactive)
REMARK    1  A    between atoms: C_2  and  C_3 
REMARK    2  A    between atoms: C_3  and  O_6 
REMARK    3  A    between atoms: C_3  and  C_4 
REMARK    4  A    between atoms: C_7  and  O_6 
REMARK    5  A    between atoms: C_9  and  C_10 
REMARK    6  A    between atoms: N_15  and  C_14 
REMARK    7  A    between atoms: N_20  and  C_19 
REMARK       I    between atoms: C_22  and  N_20 
ROOT
ATOM      1  C   LIG d   1       0.213  82.876 110.659  0.00  0.00     0.161 C 
ATOM      2  C   LIG d   1       0.357  84.203 111.097  0.00  0.00     0.016 C 
ATOM      3  C   LIG d   1       0.850  85.244 110.277  0.00  0.00     0.038 C 
ATOM      4  C   LIG d   1       1.092  85.057 108.908  0.00  0.00     0.028 C 
ATOM      5  C   LIG d   1       1.441  83.618 108.545  0.00  0.00    -0.047 C 
ATOM      6  C   LIG d   1       0.367  82.677 109.137  0.00  0.00     0.091 C 
ENDROOT
BRANCH   1   7
ATOM      7  O   LIG d   1      -1.051  82.348 111.109  0.00  0.00    -0.368 OA
BRANCH   7   8
ATOM      8  C   LIG d   1      -1.124  81.973 112.506  0.00  0.00     0.119 C 
BRANCH   8   9
ATOM      9  C   LIG d   1      -0.045  80.903 112.756  0.00  0.00     0.028 C 
ATOM     10  C   LIG d   1       0.888  81.270 113.923  0.00  0.00     0.006 C 
ENDBRANCH   8   9
BRANCH   8  11
ATOM     11  C   LIG d   1      -2.456  81.290 112.831  0.00  0.00     0.028 C 
ATOM     12  C   LIG d   1      -2.421  79.772 112.593  0.00  0.00     0.006 C 
ENDBRANCH   8  11
ENDBRANCH   7   8
ENDBRANCH   1   7
BRANCH   6  13
ATOM     13  N   LIG d   1       0.676  81.243 108.900  0.00  0.00    -0.311 N 
ATOM     14  C   LIG d   1       1.737  80.626 109.418  0.00  0.00     0.210 C 
ATOM     15  C   LIG d   1       1.881  79.151 109.032  0.00  0.00     0.109 C 
ATOM     16  O   LIG d   1       2.555  81.153 110.187  0.00  0.00    -0.276 OA
ATOM     17  H   LIG d   1       0.047  80.731 108.312  0.00  0.00     0.149 HD
ENDBRANCH   6  13
BRANCH   5  18
ATOM     18  N   LIG d   1       1.531  83.539 107.075  0.00  0.00     0.381 N 
ATOM     19  H   LIG d   1       1.440  82.587 106.780  0.00  0.00    -0.090 HD
ATOM     20  H   LIG d   1       2.434  83.873 106.786  0.00  0.00    -0.090 HD
ATOM     21  H   LIG d   1       0.816  84.092 106.658  0.00  0.00    -0.090 HD
ENDBRANCH   5  18
BRANCH   3  22
ATOM     22  C   LIG d   1       1.145  86.478 110.836  0.00  0.00     0.382 C 
ATOM     23  O   LIG d   1       0.263  87.104 111.472  0.00  0.00    -0.241 OA
ATOM     24  O   LIG d   1       2.267  86.993 110.674  0.00  0.00    -0.241 OA
ENDBRANCH   3  22
TORSDOF 7
ENDMDL
MODEL 2
REMARK VINA RESULT:      -6.6      2.386      4.923
REMARK  7 active torsions:
REMARK  status: ('A' for Active; 'I' for Inactive)
REMARK    1  A    between atoms: C_2  and  C_3 
REMARK    2  A    between atoms: C_3  and  O_6 
REMARK    3  A    between atoms: C_3  and  C_4 
REMARK    4  A    between atoms: C_7  and  O_6 
REMARK    5  A    between atoms: C_9  and  C_10 
REMARK    6  A    between atoms: N_15  and  C_14 
REMARK    7  A    between atoms: N_20  and  C_19 
REMARK       I    between atoms: C_22  and  N_20 
ROOT
ATOM      1  C   LIG d   1       0.399  82.807 111.804  0.00  0.00     0.161 C 
ATOM      2  C   LIG d   1       1.369  82.987 110.803  0.00  0.00     0.016 C 
ATOM      3  C   LIG d   1       1.614  82.045 109.779  0.00  0.00     0.038 C 
ATOM      4  C   LIG d   1       0.798  80.918 109.597  0.00  0.00     0.028 C 
ATOM      5  C   LIG d   1       0.131  80.439 110.881  0.00  0.00    -0.047 C 
ATOM      6  C   LIG d   1      -0.576  81.637 111.556  0.00  0.00     0.091 C 
ENDROOT
BRANCH   1   7
ATOM      7  O   LIG d   1      -0.331  84.034 112.004  0.00  0.00    -0.368 OA
BRANCH   7   8
ATOM      8  C   LIG d   1       0.390  85.258 111.719  0.00  0.00     0.119 C 
BRANCH   8   9
ATOM      9  C   LIG d   1       0.606  85.991 113.057  0.00  0.00     0.028 C 
ATOM     10  C   LIG d   1      -0.572  85.800 114.028  0.00  0.00     0.006 C 
ENDBRANCH   8   9
BRANCH   8  11
ATOM     11  C   LIG d   1      -0.450  86.212 110.865  0.00  0.00     0.028 C 
ATOM     12  C   LIG d   1      -0.500  85.800 109.385  0.00  0.00     0.006 C 
ENDBRANCH   8  11
ENDBRANCH   7   8
ENDBRANCH   1   7
BRANCH   6  13
ATOM     13  N   LIG d   1      -1.184  81.274 112.863  0.00  0.00    -0.311 N 
ATOM     14  C   LIG d   1      -2.489  81.354 113.112  0.00  0.00     0.210 C 
ATOM     15  C   LIG d   1      -2.903  80.951 114.530  0.00  0.00     0.109 C 
ATOM     16  O   LIG d   1      -3.348  81.691 112.283  0.00  0.00    -0.276 OA
ATOM     17  H   LIG d   1      -0.563  80.960 113.583  0.00  0.00     0.149 HD
ENDBRANCH   6  13
BRANCH   5  18
ATOM     18  N   LIG d   1      -0.795  79.349 110.523  0.00  0.00     0.381 N 
ATOM     19  H   LIG d   1      -1.652  79.451 111.029  0.00  0.00    -0.090 HD
ATOM     20  H   LIG d   1      -0.379  78.471 110.780  0.00  0.00    -0.090 HD
ATOM     21  H   LIG d   1      -0.977  79.364 109.543  0.00  0.00    -0.090 HD
ENDBRANCH   5  18
BRANCH   3  22
ATOM     22  C   LIG d   1       2.713  82.204 108.948  0.00  0.00     0.382 C 
ATOM     23  O   LIG d   1       3.801  81.649 109.233  0.00  0.00    -0.241 OA
ATOM     24  O   LIG d   1       2.641  82.932 107.939  0.00  0.00    -0.241 OA
ENDBRANCH   3  22
TORSDOF 7
ENDMDL
MODEL 3
REMARK VINA RESULT:      -6.5      2.140      5.063
REMARK  7 active torsions:
REMARK  status: ('A' for Active; 'I' for Inactive)
REMARK    1  A    between atoms: C_2  and  C_3 
REMARK    2  A    between atoms: C_3  and  O_6 
REMARK    3  A    between atoms: C_3  and  C_4 
REMARK    4  A    between atoms: C_7  and  O_6 
REMARK    5  A    between atoms: C_9  and  C_10 
REMARK    6  A    between atoms: N_15  and  C_14 
REMARK    7  A    between atoms: N_20  and  C_19 
REMARK       I    between atoms: C_22  and  N_20 
ROOT
ATOM      1  C   LIG d   1       0.323  82.517 111.284  0.00  0.00     0.161 C 
ATOM      2  C   LIG d   1      -0.824  82.288 112.062  0.00  0.00     0.016 C 
ATOM      3  C   LIG d   1      -1.496  81.044 112.110  0.00  0.00     0.038 C 
ATOM      4  C   LIG d   1      -0.974  79.895 111.498  0.00  0.00     0.028 C 
ATOM      5  C   LIG d   1      -0.093  80.200 110.290  0.00  0.00    -0.047 C 
ATOM      6  C   LIG d   1       0.970  81.246 110.696  0.00  0.00     0.091 C 
ENDROOT
BRANCH   1   7
ATOM      7  O   LIG d   1       1.290  83.264 112.047  0.00  0.00    -0.368 OA
BRANCH   7   8
ATOM      8  C   LIG d   1       1.275  84.701 111.863  0.00  0.00     0.119 C 
BRANCH   8   9
ATOM      9  C   LIG d   1       0.908  84.976 110.392  0.00  0.00     0.028 C 
ATOM     10  C   LIG d   1      -0.204  86.029 110.251  0.00  0.00     0.006 C 
ENDBRANCH   8   9
BRANCH   8  11
ATOM     11  C   LIG d   1       2.671  85.302 112.052  0.00  0.00     0.028 C 
ATOM     12  C   LIG d   1       3.549  85.176 110.797  0.00  0.00     0.006 C 
ENDBRANCH   8  11
ENDBRANCH   7   8
ENDBRANCH   1   7
BRANCH   6  13
ATOM     13  N   LIG d   1       1.821  81.662 109.551  0.00  0.00    -0.311 N 
ATOM     14  C   LIG d   1       3.152  81.696 109.600  0.00  0.00     0.210 C 
ATOM     15  C   LIG d   1       3.834  82.175 108.314  0.00  0.00     0.109 C 
ATOM     16  O   LIG d   1       3.832  81.343 110.574  0.00  0.00    -0.276 OA
ATOM     17  H   LIG d   1       1.352  81.935 108.709  0.00  0.00     0.149 HD
ENDBRANCH   6  13
BRANCH   5  18
ATOM     18  N   LIG d   1       0.493  78.926 109.834  0.00  0.00     0.381 N 
ATOM     19  H   LIG d   1       1.400  79.090 109.445  0.00  0.00    -0.090 HD
ATOM     20  H   LIG d   1      -0.092  78.537 109.116  0.00  0.00    -0.090 HD
ATOM     21  H   LIG d   1       0.562  78.289 110.597  0.00  0.00    -0.090 HD
ENDBRANCH   5  18
BRANCH   3  22
ATOM     22  C   LIG d   1      -2.724  80.952 112.746  0.00  0.00     0.382 C 
ATOM     23  O   LIG d   1      -3.356  81.994 113.045  0.00  0.00    -0.241 OA
ATOM     24  O   LIG d   1      -3.189  79.840 113.063  0.00  0.00    -0.241 OA
ENDBRANCH   3  22
TORSDOF 7
ENDMDL
MODEL 4
REMARK VINA RESULT:      -6.1      2.106      4.025
REMARK  7 active torsions:
REMARK  status: ('A' for Active; 'I' for Inactive)
REMARK    1  A    between atoms: C_2  and  C_3 
REMARK    2  A    between atoms: C_3  and  O_6 
REMARK    3  A    between atoms: C_3  and  C_4 
REMARK    4  A    between atoms: C_7  and  O_6 
REMARK    5  A    between atoms: C_9  and  C_10 
REMARK    6  A    between atoms: N_15  and  C_14 
REMARK    7  A    between atoms: N_20  and  C_19 
REMARK       I    between atoms: C_22  and  N_20 
ROOT
ATOM      1  C   LIG d   1       0.146  83.305 110.305  0.00  0.00     0.161 C 
ATOM      2  C   LIG d   1       0.754  84.571 110.291  0.00  0.00     0.016 C 
ATOM      3  C   LIG d   1       1.038  85.311 111.462  0.00  0.00     0.038 C 
ATOM      4  C   LIG d   1       0.868  84.765 112.743  0.00  0.00     0.028 C 
ATOM      5  C   LIG d   1      -0.212  83.690 112.806  0.00  0.00    -0.047 C 
ATOM      6  C   LIG d   1       0.055  82.646 111.697  0.00  0.00     0.091 C 
ENDROOT
BRANCH   1   7
ATOM      7  O   LIG d   1       0.819  82.429 109.379  0.00  0.00    -0.368 OA
BRANCH   7   8
ATOM      8  C   LIG d   1       2.183  82.075 109.714  0.00  0.00     0.119 C 
BRANCH   8   9
ATOM      9  C   LIG d   1       3.084  82.560 108.561  0.00  0.00     0.028 C 
ATOM     10  C   LIG d   1       4.511  81.995 108.653  0.00  0.00     0.006 C 
ENDBRANCH   8   9
BRANCH   8  11
ATOM     11  C   LIG d   1       2.369  80.556 109.763  0.00  0.00     0.028 C 
ATOM     12  C   LIG d   1       1.101  79.787 109.359  0.00  0.00     0.006 C 
ENDBRANCH   8  11
ENDBRANCH   7   8
ENDBRANCH   1   7
BRANCH   6  13
ATOM     13  N   LIG d   1      -1.002  81.604 111.634  0.00  0.00    -0.311 N 
ATOM     14  C   LIG d   1      -1.007  80.516 112.402  0.00  0.00     0.210 C 
ATOM     15  C   LIG d   1      -2.179  79.559 112.162  0.00  0.00     0.109 C 
ATOM     16  O   LIG d   1      -0.168  80.268 113.282  0.00  0.00    -0.276 OA
ATOM     17  H   LIG d   1      -1.738  81.741 110.969  0.00  0.00     0.149 HD
ENDBRANCH   6  13
BRANCH   5  18
ATOM     18  N   LIG d   1      -0.187  83.112 114.163  0.00  0.00     0.381 N 
ATOM     19  H   LIG d   1      -0.025  82.126 114.108  0.00  0.00    -0.090 HD
ATOM     20  H   LIG d   1      -1.081  83.261 114.596  0.00  0.00    -0.090 HD
ATOM     21  H   LIG d   1       0.529  83.544 114.704  0.00  0.00    -0.090 HD
ENDBRANCH   5  18
BRANCH   3  22
ATOM     22  C   LIG d   1       1.459  86.628 111.358  0.00  0.00     0.382 C 
ATOM     23  O   LIG d   1       0.985  87.501 112.124  0.00  0.00    -0.241 OA
ATOM     24  O   LIG d   1       2.274  86.962 110.477  0.00  0.00    -0.241 OA
ENDBRANCH   3  22
TORSDOF 7
ENDMDL
MODEL 5
REMARK VINA RESULT:      -6.1      2.306      4.149
REMARK  7 active torsions:
REMARK  status: ('A' for Active; 'I' for Inactive)
REMARK    1  A    between atoms: C_2  and  C_3 
REMARK    2  A    between atoms: C_3  and  O_6 
REMARK    3  A    between atoms: C_3  and  C_4 
REMARK    4  A    between atoms: C_7  and  O_6 
REMARK    5  A    between atoms: C_9  and  C_10 
REMARK    6  A    between atoms: N_15  and  C_14 
REMARK    7  A    between atoms: N_20  and  C_19 
REMARK       I    between atoms: C_22  and  N_20 
ROOT
ATOM      1  C   LIG d   1       0.459  84.026 110.164  0.00  0.00     0.161 C 
ATOM      2  C   LIG d   1       0.442  85.015 111.161  0.00  0.00     0.016 C 
ATOM      3  C   LIG d   1       0.121  84.752 112.512  0.00  0.00     0.038 C 
ATOM      4  C   LIG d   1      -0.058  83.446 112.991  0.00  0.00     0.028 C 
ATOM      5  C   LIG d   1      -0.546  82.471 111.925  0.00  0.00    -0.047 C 
ATOM      6  C   LIG d   1       0.376  82.577 110.689  0.00  0.00     0.091 C 
ENDROOT
BRANCH   1   7
ATOM      7  O   LIG d   1       1.625  84.191 109.332  0.00  0.00    -0.368 OA
BRANCH   7   8
ATOM      8  C   LIG d   1       2.784  83.402 109.696  0.00  0.00     0.119 C 
BRANCH   8   9
ATOM      9  C   LIG d   1       3.893  84.381 110.128  0.00  0.00     0.028 C 
ATOM     10  C   LIG d   1       4.182  84.311 111.637  0.00  0.00     0.006 C 
ENDBRANCH   8   9
BRANCH   8  11
ATOM     11  C   LIG d   1       3.352  82.654 108.486  0.00  0.00     0.028 C 
ATOM     12  C   LIG d   1       4.355  81.558 108.880  0.00  0.00     0.006 C 
ENDBRANCH   8  11
ENDBRANCH   7   8
ENDBRANCH   1   7
BRANCH   6  13
ATOM     13  N   LIG d   1      -0.081  81.717 109.566  0.00  0.00    -0.311 N 
ATOM     14  C   LIG d   1       0.410  80.503 109.326  0.00  0.00     0.210 C 
ATOM     15  C   LIG d   1      -0.186  79.794 108.105  0.00  0.00     0.109 C 
ATOM     16  O   LIG d   1       1.260  79.932 110.026  0.00  0.00    -0.276 OA
ATOM     17  H   LIG d   1      -0.791  82.090 108.966  0.00  0.00     0.149 HD
ENDBRANCH   6  13
BRANCH   5  18
ATOM     18  N   LIG d   1      -0.557  81.124 112.524  0.00  0.00     0.381 N 
ATOM     19  H   LIG d   1       0.380  80.783 112.609  0.00  0.00    -0.090 HD
ATOM     20  H   LIG d   1      -1.065  80.503 111.919  0.00  0.00    -0.090 HD
ATOM     21  H   LIG d   1      -0.990  81.153 113.421  0.00  0.00    -0.090 HD
ENDBRANCH   5  18
BRANCH   3  22
ATOM     22  C   LIG d   1      -0.063  85.808 113.393  0.00  0.00     0.382 C 
ATOM     23  O   LIG d   1      -1.150  85.929 114.008  0.00  0.00    -0.241 OA
ATOM     24  O   LIG d   1       0.827  86.665 113.546  0.00  0.00    -0.241 OA
ENDBRANCH   3  22
TORSDOF 7
ENDMDL
MODEL 6
REMARK VINA RESULT:      -5.6      2.443      4.912
REMARK  7 active torsions:
REMARK  status: ('A' for Active; 'I' for Inactive)
REMARK    1  A    between atoms: C_2  and  C_3 
REMARK    2  A    between atoms: C_3  and  O_6 
REMARK    3  A    between atoms: C_3  and  C_4 
REMARK    4  A    between atoms: C_7  and  O_6 
REMARK    5  A    between atoms: C_9  and  C_10 
REMARK    6  A    between atoms: N_15  and  C_14 
REMARK    7  A    between atoms: N_20  and  C_19 
REMARK       I    between atoms: C_22  and  N_20 
ROOT
ATOM      1  C   LIG d   1       1.135  82.627 111.899  0.00  0.00     0.161 C 
ATOM      2  C   LIG d   1      -0.099  82.643 112.570  0.00  0.00     0.016 C 
ATOM      3  C   LIG d   1      -1.073  81.628 112.431  0.00  0.00     0.038 C 
ATOM      4  C   LIG d   1      -0.815  80.444 111.724  0.00  0.00     0.028 C 
ATOM      5  C   LIG d   1       0.222  80.613 110.619  0.00  0.00    -0.047 C 
ATOM      6  C   LIG d   1       1.480  81.290 111.210  0.00  0.00     0.091 C 
ENDROOT
BRANCH   1   7
ATOM      7  O   LIG d   1       2.189  83.010 112.805  0.00  0.00    -0.368 OA
BRANCH   7   8
ATOM      8  C   LIG d   1       3.041  84.097 112.367  0.00  0.00     0.119 C 
BRANCH   8   9
ATOM      9  C   LIG d   1       3.880  84.545 113.580  0.00  0.00     0.028 C 
ATOM     10  C   LIG d   1       4.255  86.035 113.517  0.00  0.00     0.006 C 
ENDBRANCH   8   9
BRANCH   8  11
ATOM     11  C   LIG d   1       2.218  85.325 111.968  0.00  0.00     0.028 C 
ATOM     12  C   LIG d   1       2.377  85.691 110.483  0.00  0.00     0.006 C 
ENDBRANCH   8  11
ENDBRANCH   7   8
ENDBRANCH   1   7
BRANCH   6  13
ATOM     13  N   LIG d   1       2.512  81.569 110.178  0.00  0.00    -0.311 N 
ATOM     14  C   LIG d   1       2.274  82.280 109.077  0.00  0.00     0.210 C 
ATOM     15  C   LIG d   1       3.472  82.432 108.134  0.00  0.00     0.109 C 
ATOM     16  O   LIG d   1       1.194  82.827 108.808  0.00  0.00    -0.276 OA
ATOM     17  H   LIG d   1       3.425  81.189 110.332  0.00  0.00     0.149 HD
ENDBRANCH   6  13
BRANCH   5  18
ATOM     18  N   LIG d   1       0.495  79.277 110.056  0.00  0.00     0.381 N 
ATOM     19  H   LIG d   1       0.539  78.602 110.793  0.00  0.00    -0.090 HD
ATOM     20  H   LIG d   1       1.387  79.296 109.592  0.00  0.00    -0.090 HD
ATOM     21  H   LIG d   1      -0.219  79.027 109.408  0.00  0.00    -0.090 HD
ENDBRANCH   5  18
BRANCH   3  22
ATOM     22  C   LIG d   1      -2.337  81.809 112.972  0.00  0.00     0.382 C 
ATOM     23  O   LIG d   1      -2.462  82.188 114.161  0.00  0.00    -0.241 OA
ATOM     24  O   LIG d   1      -3.354  81.557 112.299  0.00  0.00    -0.241 OA
ENDBRANCH   3  22
TORSDOF 7
ENDMDL
MODEL 7
REMARK VINA RESULT:      -5.6      2.771      4.822
REMARK  7 active torsions:
REMARK  status: ('A' for Active; 'I' for Inactive)
REMARK    1  A    between atoms: C_2  and  C_3 
REMARK    2  A    between atoms: C_3  and  O_6 
REMARK    3  A    between atoms: C_3  and  C_4 
REMARK    4  A    between atoms: C_7  and  O_6 
REMARK    5  A    between atoms: C_9  and  C_10 
REMARK    6  A    between atoms: N_15  and  C_14 
REMARK    7  A    between atoms: N_20  and  C_19 
REMARK       I    between atoms: C_22  and  N_20 
ROOT
ATOM      1  C   LIG d   1       1.436  82.952 111.087  0.00  0.00     0.161 C 
ATOM      2  C   LIG d   1       0.873  81.787 110.541  0.00  0.00     0.016 C 
ATOM      3  C   LIG d   1       1.563  80.933 109.650  0.00  0.00     0.038 C 
ATOM      4  C   LIG d   1       2.924  81.108 109.360  0.00  0.00     0.028 C 
ATOM      5  C   LIG d   1       3.391  82.554 109.490  0.00  0.00    -0.047 C 
ATOM      6  C   LIG d   1       2.957  83.099 110.870  0.00  0.00     0.091 C 
ENDROOT
BRANCH   1   7
ATOM      7  O   LIG d   1       1.120  83.036 112.491  0.00  0.00    -0.368 OA
BRANCH   7   8
ATOM      8  C   LIG d   1      -0.180  83.585 112.820  0.00  0.00     0.119 C 
BRANCH   8   9
ATOM      9  C   LIG d   1       0.029  85.055 113.232  0.00  0.00     0.028 C 
ATOM     10  C   LIG d   1       1.323  85.261 114.037  0.00  0.00     0.006 C 
ENDBRANCH   8   9
BRANCH   8  11
ATOM     11  C   LIG d   1      -0.778  82.900 114.052  0.00  0.00     0.028 C 
ATOM     12  C   LIG d   1      -0.312  81.444 114.209  0.00  0.00     0.006 C 
ENDBRANCH   8  11
ENDBRANCH   7   8
ENDBRANCH   1   7
BRANCH   6  13
ATOM     13  N   LIG d   1       3.301  84.534 111.046  0.00  0.00    -0.311 N 
ATOM     14  C   LIG d   1       4.361  84.955 111.734  0.00  0.00     0.210 C 
ATOM     15  C   LIG d   1       4.520  86.477 111.809  0.00  0.00     0.109 C 
ATOM     16  O   LIG d   1       5.202  84.212 112.261  0.00  0.00    -0.276 OA
ATOM     17  H   LIG d   1       2.688  85.204 110.625  0.00  0.00     0.149 HD
ENDBRANCH   6  13
BRANCH   5  18
ATOM     18  N   LIG d   1       4.853  82.569 109.296  0.00  0.00     0.381 N 
ATOM     19  H   LIG d   1       5.250  81.718 109.640  0.00  0.00    -0.090 HD
ATOM     20  H   LIG d   1       5.243  83.333 109.820  0.00  0.00    -0.090 HD
ATOM     21  H   LIG d   1       5.067  82.677 108.329  0.00  0.00    -0.090 HD
ENDBRANCH   5  18
BRANCH   3  22
ATOM     22  C   LIG d   1       0.878  79.914 109.006  0.00  0.00     0.382 C 
ATOM     23  O   LIG d   1       1.446  78.817 108.789  0.00  0.00    -0.241 OA
ATOM     24  O   LIG d   1      -0.286  80.093 108.601  0.00  0.00    -0.241 OA
ENDBRANCH   3  22
TORSDOF 7
ENDMDL
MODEL 8
REMARK VINA RESULT:      -5.2      2.402      4.931
REMARK  7 active torsions:
REMARK  status: ('A' for Active; 'I' for Inactive)
REMARK    1  A    between atoms: C_2  and  C_3 
REMARK    2  A    between atoms: C_3  and  O_6 
REMARK    3  A    between atoms: C_3  and  C_4 
REMARK    4  A    between atoms: C_7  and  O_6 
REMARK    5  A    between atoms: C_9  and  C_10 
REMARK    6  A    between atoms: N_15  and  C_14 
REMARK    7  A    between atoms: N_20  and  C_19 
REMARK       I    between atoms: C_22  and  N_20 
ROOT
ATOM      1  C   LIG d   1       1.830  82.257 111.414  0.00  0.00     0.161 C 
ATOM      2  C   LIG d   1       1.380  81.100 110.758  0.00  0.00     0.016 C 
ATOM      3  C   LIG d   1       2.027  80.543 109.631  0.00  0.00     0.038 C 
ATOM      4  C   LIG d   1       3.263  81.023 109.173  0.00  0.00     0.028 C 
ATOM      5  C   LIG d   1       3.496  82.495 109.491  0.00  0.00    -0.047 C 
ATOM      6  C   LIG d   1       3.239  82.730 110.997  0.00  0.00     0.091 C 
ENDROOT
BRANCH   1   7
ATOM      7  O   LIG d   1       1.768  82.065 112.841  0.00  0.00    -0.368 OA
BRANCH   7   8
ATOM      8  C   LIG d   1       0.665  82.709 113.524  0.00  0.00     0.119 C 
BRANCH   8   9
ATOM      9  C   LIG d   1      -0.377  81.621 113.850  0.00  0.00     0.028 C 
ATOM     10  C   LIG d   1      -1.622  81.712 112.952  0.00  0.00     0.006 C 
ENDBRANCH   8   9
BRANCH   8  11
ATOM     11  C   LIG d   1      -0.058  83.699 112.605  0.00  0.00     0.028 C 
ATOM     12  C   LIG d   1      -0.062  85.132 113.159  0.00  0.00     0.006 C 
ENDBRANCH   8  11
ENDBRANCH   7   8
ENDBRANCH   1   7
BRANCH   6  13
ATOM     13  N   LIG d   1       3.363  84.162 111.377  0.00  0.00    -0.311 N 
ATOM     14  C   LIG d   1       2.726  85.146 110.746  0.00  0.00     0.210 C 
ATOM     15  C   LIG d   1       3.010  86.551 111.286  0.00  0.00     0.109 C 
ATOM     16  O   LIG d   1       1.927  84.986 109.811  0.00  0.00    -0.276 OA
ATOM     17  H   LIG d   1       3.967  84.378 112.146  0.00  0.00     0.149 HD
ENDBRANCH   6  13
BRANCH   5  18
ATOM     18  N   LIG d   1       4.874  82.827 109.082  0.00  0.00     0.381 N 
ATOM     19  H   LIG d   1       4.861  83.297 108.199  0.00  0.00    -0.090 HD
ATOM     20  H   LIG d   1       5.396  81.975 108.978  0.00  0.00    -0.090 HD
ATOM     21  H   LIG d   1       5.304  83.407 109.769  0.00  0.00    -0.090 HD
ENDBRANCH   5  18
BRANCH   3  22
ATOM     22  C   LIG d   1       1.416  79.518 108.925  0.00  0.00     0.382 C 
ATOM     23  O   LIG d   1       2.050  78.465 108.673  0.00  0.00    -0.241 OA
ATOM     24  O   LIG d   1       0.253  79.650 108.498  0.00  0.00    -0.241 OA
ENDBRANCH   3  22
TORSDOF 7
ENDMDL
MODEL 9
REMARK VINA RESULT:      -5.0      2.542      4.584
REMARK  7 active torsions:
REMARK  status: ('A' for Active; 'I' for Inactive)
REMARK    1  A    between atoms: C_2  and  C_3 
REMARK    2  A    between atoms: C_3  and  O_6 
REMARK    3  A    between atoms: C_3  and  C_4 
REMARK    4  A    between atoms: C_7  and  O_6 
REMARK    5  A    between atoms: C_9  and  C_10 
REMARK    6  A    between atoms: N_15  and  C_14 
REMARK    7  A    between atoms: N_20  and  C_19 
REMARK       I    between atoms: C_22  and  N_20 
ROOT
ATOM      1  C   LIG d   1      -0.531  83.055 112.125  0.00  0.00     0.161 C 
ATOM      2  C   LIG d   1       0.076  84.253 112.538  0.00  0.00     0.016 C 
ATOM      3  C   LIG d   1       1.070  84.315 113.541  0.00  0.00     0.038 C 
ATOM      4  C   LIG d   1       1.637  83.158 114.096  0.00  0.00     0.028 C 
ATOM      5  C   LIG d   1       0.701  81.954 114.074  0.00  0.00    -0.047 C 
ATOM      6  C   LIG d   1       0.153  81.772 112.640  0.00  0.00     0.091 C 
ENDROOT
BRANCH   1   7
ATOM      7  O   LIG d   1      -0.629  83.028 110.687  0.00  0.00    -0.368 OA
BRANCH   7   8
ATOM      8  C   LIG d   1       0.533  83.497 109.960  0.00  0.00     0.119 C 
BRANCH   8   9
ATOM      9  C   LIG d   1       0.176  84.867 109.350  0.00  0.00     0.028 C 
ATOM     10  C   LIG d   1       1.073  85.998 109.881  0.00  0.00     0.006 C 
ENDBRANCH   8   9
BRANCH   8  11
ATOM     11  C   LIG d   1       0.846  82.591 108.766  0.00  0.00     0.028 C 
ATOM     12  C   LIG d   1       1.481  83.351 107.591  0.00  0.00     0.006 C 
ENDBRANCH   8  11
ENDBRANCH   7   8
ENDBRANCH   1   7
BRANCH   6  13
ATOM     13  N   LIG d   1      -0.836  80.667 112.548  0.00  0.00    -0.311 N 
ATOM     14  C   LIG d   1      -0.946  79.868 111.488  0.00  0.00     0.210 C 
ATOM     15  C   LIG d   1      -2.045  78.805 111.590  0.00  0.00     0.109 C 
ATOM     16  O   LIG d   1      -0.217  79.918 110.486  0.00  0.00    -0.276 OA
ATOM     17  H   LIG d   1      -1.448  80.535 113.330  0.00  0.00     0.149 HD
ENDBRANCH   6  13
BRANCH   5  18
ATOM     18  N   LIG d   1       1.465  80.787 114.554  0.00  0.00     0.381 N 
ATOM     19  H   LIG d   1       1.021  80.402 115.363  0.00  0.00    -0.090 HD
ATOM     20  H   LIG d   1       2.388  81.087 114.813  0.00  0.00    -0.090 HD
ATOM     21  H   LIG d   1       1.520  80.098 113.837  0.00  0.00    -0.090 HD
ENDBRANCH   5  18
BRANCH   3  22
ATOM     22  C   LIG d   1       1.480  85.547 114.028  0.00  0.00     0.382 C 
ATOM     23  O   LIG d   1       2.676  85.724 114.361  0.00  0.00    -0.241 OA
ATOM     24  O   LIG d   1       0.658  86.471 114.179  0.00  0.00    -0.241 OA
ENDBRANCH   3  22
TORSDOF 7
ENDMDL
