MODEL 1
REMARK VINA RESULT:      -7.0      0.000      0.000
REMARK  7 active torsions:
REMARK  status: ('A' for Active; 'I' for Inactive)
REMARK    1  A    between atoms: C_2  and  C_3 
REMARK    2  A    between atoms: C_3  and  O_6 
REMARK    3  A    between atoms: C_3  and  C_4 
REMARK    4  A    between atoms: C_7  and  O_6 
REMARK    5  A    between atoms: C_9  and  C_10 
REMARK    6  A    between atoms: N_15  and  C_14 
REMARK    7  A    between atoms: N_20  and  C_19 
REMARK       I    between atoms: C_22  and  N_20 
ROOT
ATOM      1  C   LIG d   1       1.865  82.389 111.680  0.00  0.00     0.161 C 
ATOM      2  C   LIG d   1       2.871  82.582 110.719  0.00  0.00     0.016 C 
ATOM      3  C   LIG d   1       2.841  81.997 109.432  0.00  0.00     0.038 C 
ATOM      4  C   LIG d   1       1.720  81.297 108.962  0.00  0.00     0.028 C 
ATOM      5  C   LIG d   1       0.899  80.652 110.074  0.00  0.00    -0.047 C 
ATOM      6  C   LIG d   1       0.581  81.719 111.146  0.00  0.00     0.091 C 
ENDROOT
BRANCH   1   7
ATOM      7  O   LIG d   1       1.548  83.643 112.315  0.00  0.00    -0.368 OA
BRANCH   7   8
ATOM      8  C   LIG d   1       1.359  84.775 111.431  0.00  0.00     0.119 C 
BRANCH   8   9
ATOM      9  C   LIG d   1       2.260  85.917 111.941  0.00  0.00     0.028 C 
ATOM     10  C   LIG d   1       3.583  86.013 111.161  0.00  0.00     0.006 C 
ENDBRANCH   8   9
BRANCH   8  11
ATOM     11  C   LIG d   1      -0.070  85.318 111.517  0.00  0.00     0.028 C 
ATOM     12  C   LIG d   1      -0.781  85.346 110.155  0.00  0.00     0.006 C 
ENDBRANCH   8  11
ENDBRANCH   7   8
ENDBRANCH   1   7
BRANCH   6  13
ATOM     13  N   LIG d   1      -0.148  81.152 112.311  0.00  0.00    -0.311 N 
ATOM     14  C   LIG d   1      -1.387  81.510 112.645  0.00  0.00     0.210 C 
ATOM     15  C   LIG d   1      -1.945  80.819 113.893  0.00  0.00     0.109 C 
ATOM     16  O   LIG d   1      -2.087  82.311 112.008  0.00  0.00    -0.276 OA
ATOM     17  H   LIG d   1       0.335  80.472 112.865  0.00  0.00     0.149 HD
ENDBRANCH   6  13
BRANCH   5  18
ATOM     18  N   LIG d   1      -0.310  80.074 109.457  0.00  0.00     0.381 N 
ATOM     19  H   LIG d   1      -1.048  80.035 110.131  0.00  0.00    -0.090 HD
ATOM     20  H   LIG d   1      -0.106  79.137 109.157  0.00  0.00    -0.090 HD
ATOM     21  H   LIG d   1      -0.592  80.626 108.677  0.00  0.00    -0.090 HD
ENDBRANCH   5  18
BRANCH   3  22
ATOM     22  C   LIG d   1       3.958  82.077 108.615  0.00  0.00     0.382 C 
ATOM     23  O   LIG d   1       4.674  83.107 108.630  0.00  0.00    -0.241 OA
ATOM     24  O   LIG d   1       4.235  81.150 107.830  0.00  0.00    -0.241 OA
ENDBRANCH   3  22
TORSDOF 7
ENDMDL
MODEL 2
REMARK VINA RESULT:      -6.7      2.418      5.531
REMARK  7 active torsions:
REMARK  status: ('A' for Active; 'I' for Inactive)
REMARK    1  A    between atoms: C_2  and  C_3 
REMARK    2  A    between atoms: C_3  and  O_6 
REMARK    3  A    between atoms: C_3  and  C_4 
REMARK    4  A    between atoms: C_7  and  O_6 
REMARK    5  A    between atoms: C_9  and  C_10 
REMARK    6  A    between atoms: N_15  and  C_14 
REMARK    7  A    between atoms: N_20  and  C_19 
REMARK       I    between atoms: C_22  and  N_20 
ROOT
ATOM      1  C   LIG d   1       1.768  83.080 112.316  0.00  0.00     0.161 C 
ATOM      2  C   LIG d   1       0.752  82.111 112.273  0.00  0.00     0.016 C 
ATOM      3  C   LIG d   1      -0.577  82.393 111.882  0.00  0.00     0.038 C 
ATOM      4  C   LIG d   1      -0.947  83.641 111.359  0.00  0.00     0.028 C 
ATOM      5  C   LIG d   1      -0.076  84.789 111.858  0.00  0.00    -0.047 C 
ATOM      6  C   LIG d   1       1.410  84.421 111.642  0.00  0.00     0.091 C 
ENDROOT
BRANCH   1   7
ATOM      7  O   LIG d   1       2.980  82.543 111.750  0.00  0.00    -0.368 OA
BRANCH   7   8
ATOM      8  C   LIG d   1       3.045  82.504 110.303  0.00  0.00     0.119 C 
BRANCH   8   9
ATOM      9  C   LIG d   1       3.246  81.033 109.888  0.00  0.00     0.028 C 
ATOM     10  C   LIG d   1       1.997  80.436 109.219  0.00  0.00     0.006 C 
ENDBRANCH   8   9
BRANCH   8  11
ATOM     11  C   LIG d   1       4.279  83.245 109.781  0.00  0.00     0.028 C 
ATOM     12  C   LIG d   1       4.580  82.936 108.306  0.00  0.00     0.006 C 
ENDBRANCH   8  11
ENDBRANCH   7   8
ENDBRANCH   1   7
BRANCH   6  13
ATOM     13  N   LIG d   1       2.333  85.455 112.180  0.00  0.00    -0.311 N 
ATOM     14  C   LIG d   1       2.796  86.472 111.456  0.00  0.00     0.210 C 
ATOM     15  C   LIG d   1       3.751  87.412 112.199  0.00  0.00     0.109 C 
ATOM     16  O   LIG d   1       2.481  86.704 110.280  0.00  0.00    -0.276 OA
ATOM     17  H   LIG d   1       2.615  85.361 113.136  0.00  0.00     0.149 HD
ENDBRANCH   6  13
BRANCH   5  18
ATOM     18  N   LIG d   1      -0.482  86.005 111.129  0.00  0.00     0.381 N 
ATOM     19  H   LIG d   1      -1.004  85.754 110.313  0.00  0.00    -0.090 HD
ATOM     20  H   LIG d   1       0.342  86.500 110.836  0.00  0.00    -0.090 HD
ATOM     21  H   LIG d   1      -1.035  86.587 111.719  0.00  0.00    -0.090 HD
ENDBRANCH   5  18
BRANCH   3  22
ATOM     22  C   LIG d   1      -1.562  81.431 112.051  0.00  0.00     0.382 C 
ATOM     23  O   LIG d   1      -1.312  80.227 111.803  0.00  0.00    -0.241 OA
ATOM     24  O   LIG d   1      -2.711  81.759 112.404  0.00  0.00    -0.241 OA
ENDBRANCH   3  22
TORSDOF 7
ENDMDL
MODEL 3
REMARK VINA RESULT:      -6.5      1.495      5.009
REMARK  7 active torsions:
REMARK  status: ('A' for Active; 'I' for Inactive)
REMARK    1  A    between atoms: C_2  and  C_3 
REMARK    2  A    between atoms: C_3  and  O_6 
REMARK    3  A    between atoms: C_3  and  C_4 
REMARK    4  A    between atoms: C_7  and  O_6 
REMARK    5  A    between atoms: C_9  and  C_10 
REMARK    6  A    between atoms: N_15  and  C_14 
REMARK    7  A    between atoms: N_20  and  C_19 
REMARK       I    between atoms: C_22  and  N_20 
ROOT
ATOM      1  C   LIG d   1       0.149  82.906 111.103  0.00  0.00     0.161 C 
ATOM      2  C   LIG d   1      -0.900  82.640 111.999  0.00  0.00     0.016 C 
ATOM      3  C   LIG d   1      -1.461  81.355 112.181  0.00  0.00     0.038 C 
ATOM      4  C   LIG d   1      -0.906  80.213 111.585  0.00  0.00     0.028 C 
ATOM      5  C   LIG d   1      -0.167  80.506 110.284  0.00  0.00    -0.047 C 
ATOM      6  C   LIG d   1       0.841  81.653 110.527  0.00  0.00     0.091 C 
ENDROOT
BRANCH   1   7
ATOM      7  O   LIG d   1       1.118  83.771 111.728  0.00  0.00    -0.368 OA
BRANCH   7   8
ATOM      8  C   LIG d   1       1.173  85.130 111.230  0.00  0.00     0.119 C 
BRANCH   8   9
ATOM      9  C   LIG d   1       0.102  85.265 110.131  0.00  0.00     0.028 C 
ATOM     10  C   LIG d   1       0.715  85.417 108.729  0.00  0.00     0.006 C 
ENDBRANCH   8   9
BRANCH   8  11
ATOM     11  C   LIG d   1       2.507  85.415 110.533  0.00  0.00     0.028 C 
ATOM     12  C   LIG d   1       3.720  84.952 111.356  0.00  0.00     0.006 C 
ENDBRANCH   8  11
ENDBRANCH   7   8
ENDBRANCH   1   7
BRANCH   6  13
ATOM     13  N   LIG d   1       1.547  82.060 109.284  0.00  0.00    -0.311 N 
ATOM     14  C   LIG d   1       2.872  82.038 109.153  0.00  0.00     0.210 C 
ATOM     15  C   LIG d   1       3.396  82.517 107.796  0.00  0.00     0.109 C 
ATOM     16  O   LIG d   1       3.662  81.636 110.021  0.00  0.00    -0.276 OA
ATOM     17  H   LIG d   1       0.981  82.370 108.519  0.00  0.00     0.149 HD
ENDBRANCH   6  13
BRANCH   5  18
ATOM     18  N   LIG d   1       0.477  79.254 109.845  0.00  0.00     0.381 N 
ATOM     19  H   LIG d   1       1.409  79.443 109.533  0.00  0.00    -0.090 HD
ATOM     20  H   LIG d   1      -0.043  78.874 109.074  0.00  0.00    -0.090 HD
ATOM     21  H   LIG d   1       0.497  78.599 110.596  0.00  0.00    -0.090 HD
ENDBRANCH   5  18
BRANCH   3  22
ATOM     22  C   LIG d   1      -2.615  81.210 112.935  0.00  0.00     0.382 C 
ATOM     23  O   LIG d   1      -2.553  80.720 114.089  0.00  0.00    -0.241 OA
ATOM     24  O   LIG d   1      -3.724  81.522 112.460  0.00  0.00    -0.241 OA
ENDBRANCH   3  22
TORSDOF 7
ENDMDL
MODEL 4
REMARK VINA RESULT:      -6.5      2.508      4.101
REMARK  7 active torsions:
REMARK  status: ('A' for Active; 'I' for Inactive)
REMARK    1  A    between atoms: C_2  and  C_3 
REMARK    2  A    between atoms: C_3  and  O_6 
REMARK    3  A    between atoms: C_3  and  C_4 
REMARK    4  A    between atoms: C_7  and  O_6 
REMARK    5  A    between atoms: C_9  and  C_10 
REMARK    6  A    between atoms: N_15  and  C_14 
REMARK    7  A    between atoms: N_20  and  C_19 
REMARK       I    between atoms: C_22  and  N_20 
ROOT
ATOM      1  C   LIG d   1       2.853  82.483 110.824  0.00  0.00     0.161 C 
ATOM      2  C   LIG d   1       3.021  83.818 111.226  0.00  0.00     0.016 C 
ATOM      3  C   LIG d   1       2.658  84.924 110.423  0.00  0.00     0.038 C 
ATOM      4  C   LIG d   1       1.959  84.767 109.218  0.00  0.00     0.028 C 
ATOM      5  C   LIG d   1       2.219  83.428 108.536  0.00  0.00    -0.047 C 
ATOM      6  C   LIG d   1       1.990  82.292 109.559  0.00  0.00     0.091 C 
ENDROOT
BRANCH   1   7
ATOM      7  O   LIG d   1       2.321  81.707 111.916  0.00  0.00    -0.368 OA
BRANCH   7   8
ATOM      8  C   LIG d   1       1.334  82.368 112.746  0.00  0.00     0.119 C 
BRANCH   8   9
ATOM      9  C   LIG d   1       1.643  82.003 114.211  0.00  0.00     0.028 C 
ATOM     10  C   LIG d   1       2.829  82.801 114.778  0.00  0.00     0.006 C 
ENDBRANCH   8   9
BRANCH   8  11
ATOM     11  C   LIG d   1      -0.073  81.825 112.480  0.00  0.00     0.028 C 
ATOM     12  C   LIG d   1      -0.932  82.783 111.641  0.00  0.00     0.006 C 
ENDBRANCH   8  11
ENDBRANCH   7   8
ENDBRANCH   1   7
BRANCH   6  13
ATOM     13  N   LIG d   1       2.304  80.952 108.998  0.00  0.00    -0.311 N 
ATOM     14  C   LIG d   1       1.452  79.929 109.022  0.00  0.00     0.210 C 
ATOM     15  C   LIG d   1       1.983  78.630 108.407  0.00  0.00     0.109 C 
ATOM     16  O   LIG d   1       0.295  79.982 109.465  0.00  0.00    -0.276 OA
ATOM     17  H   LIG d   1       3.210  80.829 108.591  0.00  0.00     0.149 HD
ENDBRANCH   6  13
BRANCH   5  18
ATOM     18  N   LIG d   1       1.324  83.342 107.367  0.00  0.00     0.381 N 
ATOM     19  H   LIG d   1       0.731  84.147 107.334  0.00  0.00    -0.090 HD
ATOM     20  H   LIG d   1       0.744  82.527 107.460  0.00  0.00    -0.090 HD
ATOM     21  H   LIG d   1       1.861  83.282 106.530  0.00  0.00    -0.090 HD
ENDBRANCH   5  18
BRANCH   3  22
ATOM     22  C   LIG d   1       3.032  86.203 110.807  0.00  0.00     0.382 C 
ATOM     23  O   LIG d   1       4.235  86.457 111.055  0.00  0.00    -0.241 OA
ATOM     24  O   LIG d   1       2.174  87.095 110.951  0.00  0.00    -0.241 OA
ENDBRANCH   3  22
TORSDOF 7
ENDMDL
MODEL 5
REMARK VINA RESULT:      -6.1      2.659      5.544
REMARK  7 active torsions:
REMARK  status: ('A' for Active; 'I' for Inactive)
REMARK    1  A    between atoms: C_2  and  C_3 
REMARK    2  A    between atoms: C_3  and  O_6 
REMARK    3  A    between atoms: C_3  and  C_4 
REMARK    4  A    between atoms: C_7  and  O_6 
REMARK    5  A    between atoms: C_9  and  C_10 
REMARK    6  A    between atoms: N_15  and  C_14 
REMARK    7  A    between atoms: N_20  and  C_19 
REMARK       I    between atoms: C_22  and  N_20 
ROOT
ATOM      1  C   LIG d   1      -0.085  82.340 111.088  0.00  0.00     0.161 C 
ATOM      2  C   LIG d   1      -0.478  83.604 111.560  0.00  0.00     0.016 C 
ATOM      3  C   LIG d   1      -0.197  84.811 110.879  0.00  0.00     0.038 C 
ATOM      4  C   LIG d   1       0.369  84.824 109.596  0.00  0.00     0.028 C 
ATOM      5  C   LIG d   1       1.238  83.605 109.305  0.00  0.00    -0.047 C 
ATOM      6  C   LIG d   1       0.436  82.326 109.635  0.00  0.00     0.091 C 
ENDROOT
BRANCH   1   7
ATOM      7  O   LIG d   1      -1.169  81.402 111.241  0.00  0.00    -0.368 OA
BRANCH   7   8
ATOM      8  C   LIG d   1      -0.978  80.364 112.233  0.00  0.00     0.119 C 
BRANCH   8   9
ATOM      9  C   LIG d   1      -1.634  79.080 111.692  0.00  0.00     0.028 C 
ATOM     10  C   LIG d   1      -2.582  78.429 112.714  0.00  0.00     0.006 C 
ENDBRANCH   8   9
BRANCH   8  11
ATOM     11  C   LIG d   1      -1.727  80.688 113.529  0.00  0.00     0.028 C 
ATOM     12  C   LIG d   1      -0.791  80.830 114.739  0.00  0.00     0.006 C 
ENDBRANCH   8  11
ENDBRANCH   7   8
ENDBRANCH   1   7
BRANCH   6  13
ATOM     13  N   LIG d   1       1.242  81.090 109.459  0.00  0.00    -0.311 N 
ATOM     14  C   LIG d   1       0.802  80.015 108.806  0.00  0.00     0.210 C 
ATOM     15  C   LIG d   1       1.785  78.841 108.758  0.00  0.00     0.109 C 
ATOM     16  O   LIG d   1      -0.296  79.934 108.235  0.00  0.00    -0.276 OA
ATOM     17  H   LIG d   1       2.157  81.080 109.863  0.00  0.00     0.149 HD
ENDBRANCH   6  13
BRANCH   5  18
ATOM     18  N   LIG d   1       1.651  83.680 107.891  0.00  0.00     0.381 N 
ATOM     19  H   LIG d   1       1.647  82.764 107.488  0.00  0.00    -0.090 HD
ATOM     20  H   LIG d   1       2.588  84.040 107.844  0.00  0.00    -0.090 HD
ATOM     21  H   LIG d   1       1.033  84.275 107.386  0.00  0.00    -0.090 HD
ENDBRANCH   5  18
BRANCH   3  22
ATOM     22  C   LIG d   1      -0.447  86.024 111.502  0.00  0.00     0.382 C 
ATOM     23  O   LIG d   1      -1.559  86.587 111.355  0.00  0.00    -0.241 OA
ATOM     24  O   LIG d   1       0.441  86.585 112.171  0.00  0.00    -0.241 OA
ENDBRANCH   3  22
TORSDOF 7
ENDMDL
MODEL 6
REMARK VINA RESULT:      -5.9      1.967      5.031
REMARK  7 active torsions:
REMARK  status: ('A' for Active; 'I' for Inactive)
REMARK    1  A    between atoms: C_2  and  C_3 
REMARK    2  A    between atoms: C_3  and  O_6 
REMARK    3  A    between atoms: C_3  and  C_4 
REMARK    4  A    between atoms: C_7  and  O_6 
REMARK    5  A    between atoms: C_9  and  C_10 
REMARK    6  A    between atoms: N_15  and  C_14 
REMARK    7  A    between atoms: N_20  and  C_19 
REMARK       I    between atoms: C_22  and  N_20 
ROOT
ATOM      1  C   LIG d   1       1.402  82.458 111.703  0.00  0.00     0.161 C 
ATOM      2  C   LIG d   1       0.280  82.254 112.523  0.00  0.00     0.016 C 
ATOM      3  C   LIG d   1      -0.715  81.286 112.253  0.00  0.00     0.038 C 
ATOM      4  C   LIG d   1      -0.576  80.348 111.219  0.00  0.00     0.028 C 
ATOM      5  C   LIG d   1       0.290  80.843 110.065  0.00  0.00    -0.047 C 
ATOM      6  C   LIG d   1       1.628  81.370 110.633  0.00  0.00     0.091 C 
ENDROOT
BRANCH   1   7
ATOM      7  O   LIG d   1       2.581  82.612 112.518  0.00  0.00    -0.368 OA
BRANCH   7   8
ATOM      8  C   LIG d   1       3.001  83.973 112.783  0.00  0.00     0.119 C 
BRANCH   8   9
ATOM      9  C   LIG d   1       4.045  84.351 111.714  0.00  0.00     0.028 C 
ATOM     10  C   LIG d   1       3.482  85.319 110.660  0.00  0.00     0.006 C 
ENDBRANCH   8   9
BRANCH   8  11
ATOM     11  C   LIG d   1       3.734  84.079 114.123  0.00  0.00     0.028 C 
ATOM     12  C   LIG d   1       4.273  85.493 114.396  0.00  0.00     0.006 C 
ENDBRANCH   8  11
ENDBRANCH   7   8
ENDBRANCH   1   7
BRANCH   6  13
ATOM     13  N   LIG d   1       2.501  81.951 109.579  0.00  0.00    -0.311 N 
ATOM     14  C   LIG d   1       3.408  81.244 108.907  0.00  0.00     0.210 C 
ATOM     15  C   LIG d   1       4.216  82.040 107.878  0.00  0.00     0.109 C 
ATOM     16  O   LIG d   1       3.598  80.026 109.043  0.00  0.00    -0.276 OA
ATOM     17  H   LIG d   1       2.391  82.926 109.382  0.00  0.00     0.149 HD
ENDBRANCH   6  13
BRANCH   5  18
ATOM     18  N   LIG d   1       0.464  79.719 109.125  0.00  0.00     0.381 N 
ATOM     19  H   LIG d   1      -0.218  79.012 109.313  0.00  0.00    -0.090 HD
ATOM     20  H   LIG d   1       1.376  79.321 109.260  0.00  0.00    -0.090 HD
ATOM     21  H   LIG d   1       0.369  80.042 108.187  0.00  0.00    -0.090 HD
ENDBRANCH   5  18
BRANCH   3  22
ATOM     22  C   LIG d   1      -1.884  81.276 112.998  0.00  0.00     0.382 C 
ATOM     23  O   LIG d   1      -1.880  80.815 114.165  0.00  0.00    -0.241 OA
ATOM     24  O   LIG d   1      -2.953  81.680 112.503  0.00  0.00    -0.241 OA
ENDBRANCH   3  22
TORSDOF 7
ENDMDL
MODEL 7
REMARK VINA RESULT:      -5.6      3.036      5.014
REMARK  7 active torsions:
REMARK  status: ('A' for Active; 'I' for Inactive)
REMARK    1  A    between atoms: C_2  and  C_3 
REMARK    2  A    between atoms: C_3  and  O_6 
REMARK    3  A    between atoms: C_3  and  C_4 
REMARK    4  A    between atoms: C_7  and  O_6 
REMARK    5  A    between atoms: C_9  and  C_10 
REMARK    6  A    between atoms: N_15  and  C_14 
REMARK    7  A    between atoms: N_20  and  C_19 
REMARK       I    between atoms: C_22  and  N_20 
ROOT
ATOM      1  C   LIG d   1       3.415  84.353 111.558  0.00  0.00     0.161 C 
ATOM      2  C   LIG d   1       3.710  85.615 112.101  0.00  0.00     0.016 C 
ATOM      3  C   LIG d   1       2.917  86.763 111.878  0.00  0.00     0.038 C 
ATOM      4  C   LIG d   1       1.682  86.693 111.215  0.00  0.00     0.028 C 
ATOM      5  C   LIG d   1       1.594  85.543 110.218  0.00  0.00    -0.047 C 
ATOM      6  C   LIG d   1       2.014  84.234 110.925  0.00  0.00     0.091 C 
ENDROOT
BRANCH   1   7
ATOM      7  O   LIG d   1       3.601  83.334 112.561  0.00  0.00    -0.368 OA
BRANCH   7   8
ATOM      8  C   LIG d   1       2.782  83.454 113.750  0.00  0.00     0.119 C 
BRANCH   8   9
ATOM      9  C   LIG d   1       3.715  83.325 114.970  0.00  0.00     0.028 C 
ATOM     10  C   LIG d   1       4.184  84.691 115.497  0.00  0.00     0.006 C 
ENDBRANCH   8   9
BRANCH   8  11
ATOM     11  C   LIG d   1       1.797  82.288 113.868  0.00  0.00     0.028 C 
ATOM     12  C   LIG d   1       1.610  81.809 115.317  0.00  0.00     0.006 C 
ENDBRANCH   8  11
ENDBRANCH   7   8
ENDBRANCH   1   7
BRANCH   6  13
ATOM     13  N   LIG d   1       2.036  83.072 109.999  0.00  0.00    -0.311 N 
ATOM     14  C   LIG d   1       1.130  82.096 110.023  0.00  0.00     0.210 C 
ATOM     15  C   LIG d   1       1.350  80.982 108.995  0.00  0.00     0.109 C 
ATOM     16  O   LIG d   1       0.146  82.064 110.778  0.00  0.00    -0.276 OA
ATOM     17  H   LIG d   1       2.783  83.034 109.333  0.00  0.00     0.149 HD
ENDBRANCH   6  13
BRANCH   5  18
ATOM     18  N   LIG d   1       0.212  85.504 109.703  0.00  0.00     0.381 N 
ATOM     19  H   LIG d   1       0.192  85.848 108.763  0.00  0.00    -0.090 HD
ATOM     20  H   LIG d   1      -0.363  86.102 110.270  0.00  0.00    -0.090 HD
ATOM     21  H   LIG d   1      -0.136  84.572 109.731  0.00  0.00    -0.090 HD
ENDBRANCH   5  18
BRANCH   3  22
ATOM     22  C   LIG d   1       3.376  88.006 112.286  0.00  0.00     0.382 C 
ATOM     23  O   LIG d   1       4.576  88.151 112.623  0.00  0.00    -0.241 OA
ATOM     24  O   LIG d   1       2.596  88.974 112.362  0.00  0.00    -0.241 OA
ENDBRANCH   3  22
TORSDOF 7
ENDMDL
MODEL 8
REMARK VINA RESULT:      -5.5      2.131      2.475
REMARK  7 active torsions:
REMARK  status: ('A' for Active; 'I' for Inactive)
REMARK    1  A    between atoms: C_2  and  C_3 
REMARK    2  A    between atoms: C_3  and  O_6 
REMARK    3  A    between atoms: C_3  and  C_4 
REMARK    4  A    between atoms: C_7  and  O_6 
REMARK    5  A    between atoms: C_9  and  C_10 
REMARK    6  A    between atoms: N_15  and  C_14 
REMARK    7  A    between atoms: N_20  and  C_19 
REMARK       I    between atoms: C_22  and  N_20 
ROOT
ATOM      1  C   LIG d   1       3.011  83.630 112.119  0.00  0.00     0.161 C 
ATOM      2  C   LIG d   1       3.661  83.475 110.883  0.00  0.00     0.016 C 
ATOM      3  C   LIG d   1       3.253  82.543 109.901  0.00  0.00     0.038 C 
ATOM      4  C   LIG d   1       2.067  81.805 110.027  0.00  0.00     0.028 C 
ATOM      5  C   LIG d   1       1.656  81.562 111.476  0.00  0.00    -0.047 C 
ATOM      6  C   LIG d   1       1.650  82.912 112.228  0.00  0.00     0.091 C 
ENDROOT
BRANCH   1   7
ATOM      7  O   LIG d   1       2.863  85.032 112.420  0.00  0.00    -0.368 OA
BRANCH   7   8
ATOM      8  C   LIG d   1       3.179  85.952 111.346  0.00  0.00     0.119 C 
BRANCH   8   9
ATOM      9  C   LIG d   1       3.709  87.249 111.987  0.00  0.00     0.028 C 
ATOM     10  C   LIG d   1       3.977  87.091 113.493  0.00  0.00     0.006 C 
ENDBRANCH   8   9
BRANCH   8  11
ATOM     11  C   LIG d   1       1.921  86.364 110.577  0.00  0.00     0.028 C 
ATOM     12  C   LIG d   1       0.696  86.539 111.489  0.00  0.00     0.006 C 
ENDBRANCH   8  11
ENDBRANCH   7   8
ENDBRANCH   1   7
BRANCH   6  13
ATOM     13  N   LIG d   1       1.340  82.754 113.673  0.00  0.00    -0.311 N 
ATOM     14  C   LIG d   1       2.076  82.020 114.505  0.00  0.00     0.210 C 
ATOM     15  C   LIG d   1       1.569  81.975 115.950  0.00  0.00     0.109 C 
ATOM     16  O   LIG d   1       3.119  81.427 114.191  0.00  0.00    -0.276 OA
ATOM     17  H   LIG d   1       0.528  83.226 114.020  0.00  0.00     0.149 HD
ENDBRANCH   6  13
BRANCH   5  18
ATOM     18  N   LIG d   1       0.336  80.903 111.460  0.00  0.00     0.381 N 
ATOM     19  H   LIG d   1      -0.177  81.192 110.651  0.00  0.00    -0.090 HD
ATOM     20  H   LIG d   1      -0.178  81.185 112.276  0.00  0.00    -0.090 HD
ATOM     21  H   LIG d   1       0.449  79.913 111.454  0.00  0.00    -0.090 HD
ENDBRANCH   5  18
BRANCH   3  22
ATOM     22  C   LIG d   1       4.057  82.314 108.795  0.00  0.00     0.382 C 
ATOM     23  O   LIG d   1       4.795  83.229 108.356  0.00  0.00    -0.241 OA
ATOM     24  O   LIG d   1       4.020  81.219 108.203  0.00  0.00    -0.241 OA
ENDBRANCH   3  22
TORSDOF 7
ENDMDL
MODEL 9
REMARK VINA RESULT:      -5.5      2.578      5.344
REMARK  7 active torsions:
REMARK  status: ('A' for Active; 'I' for Inactive)
REMARK    1  A    between atoms: C_2  and  C_3 
REMARK    2  A    between atoms: C_3  and  O_6 
REMARK    3  A    between atoms: C_3  and  C_4 
REMARK    4  A    between atoms: C_7  and  O_6 
REMARK    5  A    between atoms: C_9  and  C_10 
REMARK    6  A    between atoms: N_15  and  C_14 
REMARK    7  A    between atoms: N_20  and  C_19 
REMARK       I    between atoms: C_22  and  N_20 
ROOT
ATOM      1  C   LIG d   1       3.101  83.827 111.493  0.00  0.00     0.161 C 
ATOM      2  C   LIG d   1       3.141  85.019 112.235  0.00  0.00     0.016 C 
ATOM      3  C   LIG d   1       2.525  86.220 111.813  0.00  0.00     0.038 C 
ATOM      4  C   LIG d   1       1.693  86.270 110.684  0.00  0.00     0.028 C 
ATOM      5  C   LIG d   1       2.035  85.219 109.633  0.00  0.00    -0.047 C 
ATOM      6  C   LIG d   1       2.105  83.833 110.314  0.00  0.00     0.091 C 
ENDROOT
BRANCH   1   7
ATOM      7  O   LIG d   1       2.834  82.715 112.369  0.00  0.00    -0.368 OA
BRANCH   7   8
ATOM      8  C   LIG d   1       1.540  82.713 113.021  0.00  0.00     0.119 C 
BRANCH   8   9
ATOM      9  C   LIG d   1       1.732  82.119 114.429  0.00  0.00     0.028 C 
ATOM     10  C   LIG d   1       2.841  82.832 115.221  0.00  0.00     0.006 C 
ENDBRANCH   8   9
BRANCH   8  11
ATOM     11  C   LIG d   1       0.561  81.771 112.313  0.00  0.00     0.028 C 
ATOM     12  C   LIG d   1      -0.618  81.357 113.208  0.00  0.00     0.006 C 
ENDBRANCH   8  11
ENDBRANCH   7   8
ENDBRANCH   1   7
BRANCH   6  13
ATOM     13  N   LIG d   1       2.518  82.759 109.372  0.00  0.00    -0.311 N 
ATOM     14  C   LIG d   1       3.733  82.684 108.833  0.00  0.00     0.210 C 
ATOM     15  C   LIG d   1       3.943  81.509 107.872  0.00  0.00     0.109 C 
ATOM     16  O   LIG d   1       4.668  83.460 109.084  0.00  0.00    -0.276 OA
ATOM     17  H   LIG d   1       1.830  82.070 109.138  0.00  0.00     0.149 HD
ENDBRANCH   6  13
BRANCH   5  18
ATOM     18  N   LIG d   1       1.008  85.294 108.578  0.00  0.00     0.381 N 
ATOM     19  H   LIG d   1       1.310  84.780 107.774  0.00  0.00    -0.090 HD
ATOM     20  H   LIG d   1       0.886  86.255 108.310  0.00  0.00    -0.090 HD
ATOM     21  H   LIG d   1       0.146  84.923 108.914  0.00  0.00    -0.090 HD
ENDBRANCH   5  18
BRANCH   3  22
ATOM     22  C   LIG d   1       2.771  87.398 112.502  0.00  0.00     0.382 C 
ATOM     23  O   LIG d   1       3.155  87.357 113.696  0.00  0.00    -0.241 OA
ATOM     24  O   LIG d   1       2.572  88.501 111.959  0.00  0.00    -0.241 OA
ENDBRANCH   3  22
TORSDOF 7
ENDMDL
