MODEL 1
REMARK VINA RESULT:      -7.0      0.000      0.000
REMARK  7 active torsions:
REMARK  status: ('A' for Active; 'I' for Inactive)
REMARK    1  A    between atoms: C_2  and  C_3 
REMARK    2  A    between atoms: C_3  and  O_6 
REMARK    3  A    between atoms: C_3  and  C_4 
REMARK    4  A    between atoms: C_7  and  O_6 
REMARK    5  A    between atoms: C_9  and  C_10 
REMARK    6  A    between atoms: N_15  and  C_14 
REMARK    7  A    between atoms: N_20  and  C_19 
REMARK       I    between atoms: C_22  and  N_20 
ROOT
ATOM      1  C   LIG d   1       0.888  83.887 109.218  0.00  0.00     0.161 C 
ATOM      2  C   LIG d   1       0.604  85.186 109.671  0.00  0.00     0.016 C 
ATOM      3  C   LIG d   1      -0.192  85.457 110.807  0.00  0.00     0.038 C 
ATOM      4  C   LIG d   1      -0.638  84.438 111.661  0.00  0.00     0.028 C 
ATOM      5  C   LIG d   1      -0.800  83.091 110.964  0.00  0.00    -0.047 C 
ATOM      6  C   LIG d   1       0.503  82.761 110.200  0.00  0.00     0.091 C 
ENDROOT
BRANCH   1   7
ATOM      7  O   LIG d   1       2.281  83.786 108.862  0.00  0.00    -0.368 OA
BRANCH   7   8
ATOM      8  C   LIG d   1       3.194  83.475 109.943  0.00  0.00     0.119 C 
BRANCH   8   9
ATOM      9  C   LIG d   1       3.680  84.811 110.537  0.00  0.00     0.028 C 
ATOM     10  C   LIG d   1       3.439  84.900 112.054  0.00  0.00     0.006 C 
ENDBRANCH   8   9
BRANCH   8  11
ATOM     11  C   LIG d   1       4.456  82.780 109.423  0.00  0.00     0.028 C 
ATOM     12  C   LIG d   1       4.163  81.781 108.292  0.00  0.00     0.006 C 
ENDBRANCH   8  11
ENDBRANCH   7   8
ENDBRANCH   1   7
BRANCH   6  13
ATOM     13  N   LIG d   1       0.399  81.500 109.421  0.00  0.00    -0.311 N 
ATOM     14  C   LIG d   1       1.113  80.409 109.692  0.00  0.00     0.210 C 
ATOM     15  C   LIG d   1       0.868  79.225 108.752  0.00  0.00     0.109 C 
ATOM     16  O   LIG d   1       1.904  80.300 110.641  0.00  0.00    -0.276 OA
ATOM     17  H   LIG d   1      -0.242  81.491 108.652  0.00  0.00     0.149 HD
ENDBRANCH   6  13
BRANCH   5  18
ATOM     18  N   LIG d   1      -1.135  82.092 111.996  0.00  0.00     0.381 N 
ATOM     19  H   LIG d   1      -0.371  81.995 112.634  0.00  0.00    -0.090 HD
ATOM     20  H   LIG d   1      -1.290  81.204 111.551  0.00  0.00    -0.090 HD
ATOM     21  H   LIG d   1      -1.955  82.372 112.488  0.00  0.00    -0.090 HD
ENDBRANCH   5  18
BRANCH   3  22
ATOM     22  C   LIG d   1      -0.584  86.760 111.077  0.00  0.00     0.382 C 
ATOM     23  O   LIG d   1      -1.767  87.116 110.860  0.00  0.00    -0.241 OA
ATOM     24  O   LIG d   1       0.242  87.595 111.491  0.00  0.00    -0.241 OA
ENDBRANCH   3  22
TORSDOF 7
ENDMDL
MODEL 2
REMARK VINA RESULT:      -6.6      2.563      4.382
REMARK  7 active torsions:
REMARK  status: ('A' for Active; 'I' for Inactive)
REMARK    1  A    between atoms: C_2  and  C_3 
REMARK    2  A    between atoms: C_3  and  O_6 
REMARK    3  A    between atoms: C_3  and  C_4 
REMARK    4  A    between atoms: C_7  and  O_6 
REMARK    5  A    between atoms: C_9  and  C_10 
REMARK    6  A    between atoms: N_15  and  C_14 
REMARK    7  A    between atoms: N_20  and  C_19 
REMARK       I    between atoms: C_22  and  N_20 
ROOT
ATOM      1  C   LIG d   1       0.222  82.507 111.064  0.00  0.00     0.161 C 
ATOM      2  C   LIG d   1      -0.903  82.202 111.848  0.00  0.00     0.016 C 
ATOM      3  C   LIG d   1      -1.393  80.887 112.026  0.00  0.00     0.038 C 
ATOM      4  C   LIG d   1      -0.697  79.766 111.552  0.00  0.00     0.028 C 
ATOM      5  C   LIG d   1       0.166  80.061 110.330  0.00  0.00    -0.047 C 
ATOM      6  C   LIG d   1       1.059  81.286 110.630  0.00  0.00     0.091 C 
ENDROOT
BRANCH   1   7
ATOM      7  O   LIG d   1       1.052  83.464 111.752  0.00  0.00    -0.368 OA
BRANCH   7   8
ATOM      8  C   LIG d   1       1.142  84.779 111.150  0.00  0.00     0.119 C 
BRANCH   8   9
ATOM      9  C   LIG d   1       0.250  84.775 109.894  0.00  0.00     0.028 C 
ATOM     10  C   LIG d   1      -0.818  85.882 109.928  0.00  0.00     0.006 C 
ENDBRANCH   8   9
BRANCH   8  11
ATOM     11  C   LIG d   1       2.558  85.063 110.641  0.00  0.00     0.028 C 
ATOM     12  C   LIG d   1       3.171  86.329 111.260  0.00  0.00     0.006 C 
ENDBRANCH   8  11
ENDBRANCH   7   8
ENDBRANCH   1   7
BRANCH   6  13
ATOM     13  N   LIG d   1       1.875  81.694 109.456  0.00  0.00    -0.311 N 
ATOM     14  C   LIG d   1       3.205  81.752 109.473  0.00  0.00     0.210 C 
ATOM     15  C   LIG d   1       3.848  82.216 108.162  0.00  0.00     0.109 C 
ATOM     16  O   LIG d   1       3.915  81.431 110.438  0.00  0.00    -0.276 OA
ATOM     17  H   LIG d   1       1.381  81.941 108.621  0.00  0.00     0.149 HD
ENDBRANCH   6  13
BRANCH   5  18
ATOM     18  N   LIG d   1       0.939  78.842 110.026  0.00  0.00     0.381 N 
ATOM     19  H   LIG d   1       1.415  78.529 110.848  0.00  0.00    -0.090 HD
ATOM     20  H   LIG d   1       1.628  79.060 109.327  0.00  0.00    -0.090 HD
ATOM     21  H   LIG d   1       0.332  78.127 109.692  0.00  0.00    -0.090 HD
ENDBRANCH   5  18
BRANCH   3  22
ATOM     22  C   LIG d   1      -2.614  80.689 112.652  0.00  0.00     0.382 C 
ATOM     23  O   LIG d   1      -2.788  79.684 113.383  0.00  0.00    -0.241 OA
ATOM     24  O   LIG d   1      -3.559  81.478 112.460  0.00  0.00    -0.241 OA
ENDBRANCH   3  22
TORSDOF 7
ENDMDL
MODEL 3
REMARK VINA RESULT:      -6.4      2.400      4.683
REMARK  7 active torsions:
REMARK  status: ('A' for Active; 'I' for Inactive)
REMARK    1  A    between atoms: C_2  and  C_3 
REMARK    2  A    between atoms: C_3  and  O_6 
REMARK    3  A    between atoms: C_3  and  C_4 
REMARK    4  A    between atoms: C_7  and  O_6 
REMARK    5  A    between atoms: C_9  and  C_10 
REMARK    6  A    between atoms: N_15  and  C_14 
REMARK    7  A    between atoms: N_20  and  C_19 
REMARK       I    between atoms: C_22  and  N_20 
ROOT
ATOM      1  C   LIG d   1       1.608  82.190 111.539  0.00  0.00     0.161 C 
ATOM      2  C   LIG d   1       2.343  82.520 110.388  0.00  0.00     0.016 C 
ATOM      3  C   LIG d   1       2.191  81.853 109.150  0.00  0.00     0.038 C 
ATOM      4  C   LIG d   1       1.179  80.905 108.938  0.00  0.00     0.028 C 
ATOM      5  C   LIG d   1       0.749  80.183 110.211  0.00  0.00    -0.047 C 
ATOM      6  C   LIG d   1       0.422  81.233 111.297  0.00  0.00     0.091 C 
ENDROOT
BRANCH   1   7
ATOM      7  O   LIG d   1       1.157  83.393 112.192  0.00  0.00    -0.368 OA
BRANCH   7   8
ATOM      8  C   LIG d   1       0.996  84.556 111.344  0.00  0.00     0.119 C 
BRANCH   8   9
ATOM      9  C   LIG d   1       1.729  85.729 112.023  0.00  0.00     0.028 C 
ATOM     10  C   LIG d   1       2.916  86.241 111.190  0.00  0.00     0.006 C 
ENDBRANCH   8   9
BRANCH   8  11
ATOM     11  C   LIG d   1      -0.472  84.988 111.263  0.00  0.00     0.028 C 
ATOM     12  C   LIG d   1      -0.830  85.632 109.914  0.00  0.00     0.006 C 
ENDBRANCH   8  11
ENDBRANCH   7   8
ENDBRANCH   1   7
BRANCH   6  13
ATOM     13  N   LIG d   1       0.074  80.610 112.601  0.00  0.00    -0.311 N 
ATOM     14  C   LIG d   1      -1.174  80.321 112.965  0.00  0.00     0.210 C 
ATOM     15  C   LIG d   1      -1.314  79.701 114.359  0.00  0.00     0.109 C 
ATOM     16  O   LIG d   1      -2.176  80.490 112.253  0.00  0.00    -0.276 OA
ATOM     17  H   LIG d   1       0.829  80.411 113.227  0.00  0.00     0.149 HD
ENDBRANCH   6  13
BRANCH   5  18
ATOM     18  N   LIG d   1      -0.402  79.326 109.870  0.00  0.00     0.381 N 
ATOM     19  H   LIG d   1      -0.346  79.051 108.910  0.00  0.00    -0.090 HD
ATOM     20  H   LIG d   1      -1.248  79.852 109.999  0.00  0.00    -0.090 HD
ATOM     21  H   LIG d   1      -0.411  78.519 110.454  0.00  0.00    -0.090 HD
ENDBRANCH   5  18
BRANCH   3  22
ATOM     22  C   LIG d   1       3.084  82.106 108.120  0.00  0.00     0.382 C 
ATOM     23  O   LIG d   1       2.689  82.675 107.074  0.00  0.00    -0.241 OA
ATOM     24  O   LIG d   1       4.269  81.732 108.205  0.00  0.00    -0.241 OA
ENDBRANCH   3  22
TORSDOF 7
ENDMDL
MODEL 4
REMARK VINA RESULT:      -6.3      2.512      3.801
REMARK  7 active torsions:
REMARK  status: ('A' for Active; 'I' for Inactive)
REMARK    1  A    between atoms: C_2  and  C_3 
REMARK    2  A    between atoms: C_3  and  O_6 
REMARK    3  A    between atoms: C_3  and  C_4 
REMARK    4  A    between atoms: C_7  and  O_6 
REMARK    5  A    between atoms: C_9  and  C_10 
REMARK    6  A    between atoms: N_15  and  C_14 
REMARK    7  A    between atoms: N_20  and  C_19 
REMARK       I    between atoms: C_22  and  N_20 
ROOT
ATOM      1  C   LIG d   1       2.308  85.097 111.121  0.00  0.00     0.161 C 
ATOM      2  C   LIG d   1       2.893  86.371 111.208  0.00  0.00     0.016 C 
ATOM      3  C   LIG d   1       3.485  86.877 112.388  0.00  0.00     0.038 C 
ATOM      4  C   LIG d   1       3.668  86.079 113.527  0.00  0.00     0.028 C 
ATOM      5  C   LIG d   1       2.642  84.957 113.650  0.00  0.00    -0.047 C 
ATOM      6  C   LIG d   1       2.596  84.170 112.321  0.00  0.00     0.091 C 
ENDROOT
BRANCH   1   7
ATOM      7  O   LIG d   1       2.703  84.461 109.890  0.00  0.00    -0.368 OA
BRANCH   7   8
ATOM      8  C   LIG d   1       1.680  84.358 108.869  0.00  0.00     0.119 C 
BRANCH   8   9
ATOM      9  C   LIG d   1       0.313  84.381 109.580  0.00  0.00     0.028 C 
ATOM     10  C   LIG d   1      -0.461  85.684 109.322  0.00  0.00     0.006 C 
ENDBRANCH   8   9
BRANCH   8  11
ATOM     11  C   LIG d   1       1.742  83.005 108.153  0.00  0.00     0.028 C 
ATOM     12  C   LIG d   1       3.150  82.389 108.164  0.00  0.00     0.006 C 
ENDBRANCH   8  11
ENDBRANCH   7   8
ENDBRANCH   1   7
BRANCH   6  13
ATOM     13  N   LIG d   1       1.558  83.107 112.327  0.00  0.00    -0.311 N 
ATOM     14  C   LIG d   1       1.797  81.848 111.964  0.00  0.00     0.210 C 
ATOM     15  C   LIG d   1       0.582  80.916 112.025  0.00  0.00     0.109 C 
ATOM     16  O   LIG d   1       2.906  81.406 111.628  0.00  0.00    -0.276 OA
ATOM     17  H   LIG d   1       0.636  83.371 112.615  0.00  0.00     0.149 HD
ENDBRANCH   6  13
BRANCH   5  18
ATOM     18  N   LIG d   1       3.032  84.122 114.803  0.00  0.00     0.381 N 
ATOM     19  H   LIG d   1       2.661  84.514 115.645  0.00  0.00    -0.090 HD
ATOM     20  H   LIG d   1       4.034  84.113 114.873  0.00  0.00    -0.090 HD
ATOM     21  H   LIG d   1       2.692  83.193 114.681  0.00  0.00    -0.090 HD
ENDBRANCH   5  18
BRANCH   3  22
ATOM     22  C   LIG d   1       3.866  88.209 112.449  0.00  0.00     0.382 C 
ATOM     23  O   LIG d   1       2.998  89.104 112.586  0.00  0.00    -0.241 OA
ATOM     24  O   LIG d   1       5.063  88.530 112.324  0.00  0.00    -0.241 OA
ENDBRANCH   3  22
TORSDOF 7
ENDMDL
MODEL 5
REMARK VINA RESULT:      -6.2      2.581      4.809
REMARK  7 active torsions:
REMARK  status: ('A' for Active; 'I' for Inactive)
REMARK    1  A    between atoms: C_2  and  C_3 
REMARK    2  A    between atoms: C_3  and  O_6 
REMARK    3  A    between atoms: C_3  and  C_4 
REMARK    4  A    between atoms: C_7  and  O_6 
REMARK    5  A    between atoms: C_9  and  C_10 
REMARK    6  A    between atoms: N_15  and  C_14 
REMARK    7  A    between atoms: N_20  and  C_19 
REMARK       I    between atoms: C_22  and  N_20 
ROOT
ATOM      1  C   LIG d   1       2.161  83.169 111.781  0.00  0.00     0.161 C 
ATOM      2  C   LIG d   1       1.135  82.210 111.733  0.00  0.00     0.016 C 
ATOM      3  C   LIG d   1      -0.233  82.541 111.598  0.00  0.00     0.038 C 
ATOM      4  C   LIG d   1      -0.657  83.854 111.348  0.00  0.00     0.028 C 
ATOM      5  C   LIG d   1       0.297  84.913 111.891  0.00  0.00    -0.047 C 
ATOM      6  C   LIG d   1       1.728  84.599 111.398  0.00  0.00     0.091 C 
ENDROOT
BRANCH   1   7
ATOM      7  O   LIG d   1       3.266  82.743 110.959  0.00  0.00    -0.368 OA
BRANCH   7   8
ATOM      8  C   LIG d   1       2.923  81.988 109.771  0.00  0.00     0.119 C 
BRANCH   8   9
ATOM      9  C   LIG d   1       3.876  80.779 109.699  0.00  0.00     0.028 C 
ATOM     10  C   LIG d   1       3.128  79.455 109.467  0.00  0.00     0.006 C 
ENDBRANCH   8   9
BRANCH   8  11
ATOM     11  C   LIG d   1       3.196  82.796 108.499  0.00  0.00     0.028 C 
ATOM     12  C   LIG d   1       1.921  83.085 107.691  0.00  0.00     0.006 C 
ENDBRANCH   8  11
ENDBRANCH   7   8
ENDBRANCH   1   7
BRANCH   6  13
ATOM     13  N   LIG d   1       2.737  85.538 111.952  0.00  0.00    -0.311 N 
ATOM     14  C   LIG d   1       2.968  86.749 111.447  0.00  0.00     0.210 C 
ATOM     15  C   LIG d   1       4.065  87.548 112.157  0.00  0.00     0.109 C 
ATOM     16  O   LIG d   1       2.346  87.249 110.498  0.00  0.00    -0.276 OA
ATOM     17  H   LIG d   1       3.265  85.225 112.743  0.00  0.00     0.149 HD
ENDBRANCH   6  13
BRANCH   5  18
ATOM     18  N   LIG d   1      -0.195  86.229 111.441  0.00  0.00     0.381 N 
ATOM     19  H   LIG d   1       0.245  86.478 110.578  0.00  0.00    -0.090 HD
ATOM     20  H   LIG d   1       0.048  86.919 112.130  0.00  0.00    -0.090 HD
ATOM     21  H   LIG d   1      -1.184  86.201 111.322  0.00  0.00    -0.090 HD
ENDBRANCH   5  18
BRANCH   3  22
ATOM     22  C   LIG d   1      -1.197  81.556 111.753  0.00  0.00     0.382 C 
ATOM     23  O   LIG d   1      -0.930  80.366 111.459  0.00  0.00    -0.241 OA
ATOM     24  O   LIG d   1      -2.343  81.849 112.141  0.00  0.00    -0.241 OA
ENDBRANCH   3  22
TORSDOF 7
ENDMDL
MODEL 6
REMARK VINA RESULT:      -6.1      3.577      4.865
REMARK  7 active torsions:
REMARK  status: ('A' for Active; 'I' for Inactive)
REMARK    1  A    between atoms: C_2  and  C_3 
REMARK    2  A    between atoms: C_3  and  O_6 
REMARK    3  A    between atoms: C_3  and  C_4 
REMARK    4  A    between atoms: C_7  and  O_6 
REMARK    5  A    between atoms: C_9  and  C_10 
REMARK    6  A    between atoms: N_15  and  C_14 
REMARK    7  A    between atoms: N_20  and  C_19 
REMARK       I    between atoms: C_22  and  N_20 
ROOT
ATOM      1  C   LIG d   1       3.028  84.763 112.707  0.00  0.00     0.161 C 
ATOM      2  C   LIG d   1       3.094  86.088 112.246  0.00  0.00     0.016 C 
ATOM      3  C   LIG d   1       3.174  87.208 113.105  0.00  0.00     0.038 C 
ATOM      4  C   LIG d   1       3.346  87.068 114.491  0.00  0.00     0.028 C 
ATOM      5  C   LIG d   1       2.777  85.766 115.043  0.00  0.00    -0.047 C 
ATOM      6  C   LIG d   1       3.327  84.585 114.210  0.00  0.00     0.091 C 
ENDROOT
BRANCH   1   7
ATOM      7  O   LIG d   1       3.902  83.928 111.921  0.00  0.00    -0.368 OA
BRANCH   7   8
ATOM      8  C   LIG d   1       3.356  83.430 110.675  0.00  0.00     0.119 C 
BRANCH   8   9
ATOM      9  C   LIG d   1       2.051  82.680 111.008  0.00  0.00     0.028 C 
ATOM     10  C   LIG d   1       2.311  81.277 111.583  0.00  0.00     0.006 C 
ENDBRANCH   8   9
BRANCH   8  11
ATOM     11  C   LIG d   1       4.276  82.381 110.043  0.00  0.00     0.028 C 
ATOM     12  C   LIG d   1       4.245  82.410 108.506  0.00  0.00     0.006 C 
ENDBRANCH   8  11
ENDBRANCH   7   8
ENDBRANCH   1   7
BRANCH   6  13
ATOM     13  N   LIG d   1       2.755  83.280 114.631  0.00  0.00    -0.311 N 
ATOM     14  C   LIG d   1       3.355  82.460 115.492  0.00  0.00     0.210 C 
ATOM     15  C   LIG d   1       2.603  81.155 115.774  0.00  0.00     0.109 C 
ATOM     16  O   LIG d   1       4.423  82.703 116.074  0.00  0.00    -0.276 OA
ATOM     17  H   LIG d   1       1.875  83.017 114.232  0.00  0.00     0.149 HD
ENDBRANCH   6  13
BRANCH   5  18
ATOM     18  N   LIG d   1       3.147  85.688 116.469  0.00  0.00     0.381 N 
ATOM     19  H   LIG d   1       3.216  84.730 116.750  0.00  0.00    -0.090 HD
ATOM     20  H   LIG d   1       2.426  86.125 117.016  0.00  0.00    -0.090 HD
ATOM     21  H   LIG d   1       4.016  86.150 116.622  0.00  0.00    -0.090 HD
ENDBRANCH   5  18
BRANCH   3  22
ATOM     22  C   LIG d   1       3.041  88.486 112.584  0.00  0.00     0.382 C 
ATOM     23  O   LIG d   1       3.940  89.339 112.777  0.00  0.00    -0.241 OA
ATOM     24  O   LIG d   1       2.012  88.809 111.960  0.00  0.00    -0.241 OA
ENDBRANCH   3  22
TORSDOF 7
ENDMDL
MODEL 7
REMARK VINA RESULT:      -5.8      2.893      6.438
REMARK  7 active torsions:
REMARK  status: ('A' for Active; 'I' for Inactive)
REMARK    1  A    between atoms: C_2  and  C_3 
REMARK    2  A    between atoms: C_3  and  O_6 
REMARK    3  A    between atoms: C_3  and  C_4 
REMARK    4  A    between atoms: C_7  and  O_6 
REMARK    5  A    between atoms: C_9  and  C_10 
REMARK    6  A    between atoms: N_15  and  C_14 
REMARK    7  A    between atoms: N_20  and  C_19 
REMARK       I    between atoms: C_22  and  N_20 
ROOT
ATOM      1  C   LIG d   1      -0.093  81.763 111.129  0.00  0.00     0.161 C 
ATOM      2  C   LIG d   1       0.566  80.609 110.675  0.00  0.00     0.016 C 
ATOM      3  C   LIG d   1       1.848  80.629 110.079  0.00  0.00     0.038 C 
ATOM      4  C   LIG d   1       2.627  81.795 110.034  0.00  0.00     0.028 C 
ATOM      5  C   LIG d   1       1.799  83.076 110.023  0.00  0.00    -0.047 C 
ATOM      6  C   LIG d   1       0.787  83.029 111.190  0.00  0.00     0.091 C 
ENDROOT
BRANCH   1   7
ATOM      7  O   LIG d   1      -0.694  81.508 112.414  0.00  0.00    -0.368 OA
BRANCH   7   8
ATOM      8  C   LIG d   1      -0.856  80.115 112.777  0.00  0.00     0.119 C 
BRANCH   8   9
ATOM      9  C   LIG d   1      -2.367  79.817 112.806  0.00  0.00     0.028 C 
ATOM     10  C   LIG d   1      -2.744  78.609 111.932  0.00  0.00     0.006 C 
ENDBRANCH   8   9
BRANCH   8  11
ATOM     11  C   LIG d   1      -0.363  79.850 114.203  0.00  0.00     0.028 C 
ATOM     12  C   LIG d   1      -1.508  79.550 115.183  0.00  0.00     0.006 C 
ENDBRANCH   8  11
ENDBRANCH   7   8
ENDBRANCH   1   7
BRANCH   6  13
ATOM     13  N   LIG d   1      -0.120  84.207 111.201  0.00  0.00    -0.311 N 
ATOM     14  C   LIG d   1       0.077  85.276 111.970  0.00  0.00     0.210 C 
ATOM     15  C   LIG d   1      -0.988  86.369 111.843  0.00  0.00     0.109 C 
ATOM     16  O   LIG d   1       1.050  85.437 112.722  0.00  0.00    -0.276 OA
ATOM     17  H   LIG d   1      -0.918  84.174 110.597  0.00  0.00     0.149 HD
ENDBRANCH   6  13
BRANCH   5  18
ATOM     18  N   LIG d   1       2.736  84.212 110.115  0.00  0.00     0.381 N 
ATOM     19  H   LIG d   1       2.223  85.067 110.202  0.00  0.00    -0.090 HD
ATOM     20  H   LIG d   1       3.279  84.255 109.271  0.00  0.00    -0.090 HD
ATOM     21  H   LIG d   1       3.337  84.095 110.900  0.00  0.00    -0.090 HD
ENDBRANCH   5  18
BRANCH   3  22
ATOM     22  C   LIG d   1       2.347  79.480 109.483  0.00  0.00     0.382 C 
ATOM     23  O   LIG d   1       1.570  78.545 109.176  0.00  0.00    -0.241 OA
ATOM     24  O   LIG d   1       3.571  79.350 109.290  0.00  0.00    -0.241 OA
ENDBRANCH   3  22
TORSDOF 7
ENDMDL
MODEL 8
REMARK VINA RESULT:      -5.6      3.838      5.650
REMARK  7 active torsions:
REMARK  status: ('A' for Active; 'I' for Inactive)
REMARK    1  A    between atoms: C_2  and  C_3 
REMARK    2  A    between atoms: C_3  and  O_6 
REMARK    3  A    between atoms: C_3  and  C_4 
REMARK    4  A    between atoms: C_7  and  O_6 
REMARK    5  A    between atoms: C_9  and  C_10 
REMARK    6  A    between atoms: N_15  and  C_14 
REMARK    7  A    between atoms: N_20  and  C_19 
REMARK       I    between atoms: C_22  and  N_20 
ROOT
ATOM      1  C   LIG d   1       2.810  85.425 113.410  0.00  0.00     0.161 C 
ATOM      2  C   LIG d   1       3.468  86.647 113.629  0.00  0.00     0.016 C 
ATOM      3  C   LIG d   1       3.278  87.789 112.817  0.00  0.00     0.038 C 
ATOM      4  C   LIG d   1       2.297  87.832 111.816  0.00  0.00     0.028 C 
ATOM      5  C   LIG d   1       1.965  86.462 111.233  0.00  0.00    -0.047 C 
ATOM      6  C   LIG d   1       1.653  85.487 112.391  0.00  0.00     0.091 C 
ENDROOT
BRANCH   1   7
ATOM      7  O   LIG d   1       2.345  84.889 114.665  0.00  0.00    -0.368 OA
BRANCH   7   8
ATOM      8  C   LIG d   1       3.115  85.251 115.837  0.00  0.00     0.119 C 
BRANCH   8   9
ATOM      9  C   LIG d   1       3.983  84.035 116.214  0.00  0.00     0.028 C 
ATOM     10  C   LIG d   1       5.288  84.441 116.919  0.00  0.00     0.006 C 
ENDBRANCH   8   9
BRANCH   8  11
ATOM     11  C   LIG d   1       2.208  85.492 117.047  0.00  0.00     0.028 C 
ATOM     12  C   LIG d   1       1.753  86.955 117.170  0.00  0.00     0.006 C 
ENDBRANCH   8  11
ENDBRANCH   7   8
ENDBRANCH   1   7
BRANCH   6  13
ATOM     13  N   LIG d   1       1.401  84.102 111.913  0.00  0.00    -0.311 N 
ATOM     14  C   LIG d   1       0.184  83.626 111.654  0.00  0.00     0.210 C 
ATOM     15  C   LIG d   1       0.145  82.167 111.191  0.00  0.00     0.109 C 
ATOM     16  O   LIG d   1      -0.864  84.284 111.734  0.00  0.00    -0.276 OA
ATOM     17  H   LIG d   1       2.198  83.509 111.791  0.00  0.00     0.149 HD
ENDBRANCH   6  13
BRANCH   5  18
ATOM     18  N   LIG d   1       0.834  86.636 110.303  0.00  0.00     0.381 N 
ATOM     19  H   LIG d   1       1.027  87.387 109.671  0.00  0.00    -0.090 HD
ATOM     20  H   LIG d   1       0.012  86.871 110.830  0.00  0.00    -0.090 HD
ATOM     21  H   LIG d   1       0.680  85.794 109.792  0.00  0.00    -0.090 HD
ENDBRANCH   5  18
BRANCH   3  22
ATOM     22  C   LIG d   1       4.104  88.891 112.978  0.00  0.00     0.382 C 
ATOM     23  O   LIG d   1       3.774  89.812 113.764  0.00  0.00    -0.241 OA
ATOM     24  O   LIG d   1       5.152  88.998 112.315  0.00  0.00    -0.241 OA
ENDBRANCH   3  22
TORSDOF 7
ENDMDL
MODEL 9
REMARK VINA RESULT:      -5.5     24.547     26.930
REMARK  7 active torsions:
REMARK  status: ('A' for Active; 'I' for Inactive)
REMARK    1  A    between atoms: C_2  and  C_3 
REMARK    2  A    between atoms: C_3  and  O_6 
REMARK    3  A    between atoms: C_3  and  C_4 
REMARK    4  A    between atoms: C_7  and  O_6 
REMARK    5  A    between atoms: C_9  and  C_10 
REMARK    6  A    between atoms: N_15  and  C_14 
REMARK    7  A    between atoms: N_20  and  C_19 
REMARK       I    between atoms: C_22  and  N_20 
ROOT
ATOM      1  C   LIG d   1     -25.387  85.666 113.140  0.00  0.00     0.161 C 
ATOM      2  C   LIG d   1     -24.326  86.499 113.532  0.00  0.00     0.016 C 
ATOM      3  C   LIG d   1     -23.033  86.018 113.841  0.00  0.00     0.038 C 
ATOM      4  C   LIG d   1     -22.670  84.679 113.631  0.00  0.00     0.028 C 
ATOM      5  C   LIG d   1     -23.846  83.712 113.719  0.00  0.00    -0.047 C 
ATOM      6  C   LIG d   1     -24.980  84.217 112.799  0.00  0.00     0.091 C 
ENDROOT
BRANCH   1   7
ATOM      7  O   LIG d   1     -26.093  86.262 112.034  0.00  0.00    -0.368 OA
BRANCH   7   8
ATOM      8  C   LIG d   1     -26.937  87.396 112.353  0.00  0.00     0.119 C 
BRANCH   8   9
ATOM      9  C   LIG d   1     -28.401  86.936 112.215  0.00  0.00     0.028 C 
ATOM     10  C   LIG d   1     -29.163  86.991 113.550  0.00  0.00     0.006 C 
ENDBRANCH   8   9
BRANCH   8  11
ATOM     11  C   LIG d   1     -26.767  88.522 111.330  0.00  0.00     0.028 C 
ATOM     12  C   LIG d   1     -27.293  89.874 111.839  0.00  0.00     0.006 C 
ENDBRANCH   8  11
ENDBRANCH   7   8
ENDBRANCH   1   7
BRANCH   6  13
ATOM     13  N   LIG d   1     -26.201  83.374 112.889  0.00  0.00    -0.311 N 
ATOM     14  C   LIG d   1     -26.620  82.583 111.903  0.00  0.00     0.210 C 
ATOM     15  C   LIG d   1     -27.912  81.814 112.195  0.00  0.00     0.109 C 
ATOM     16  O   LIG d   1     -26.026  82.420 110.826  0.00  0.00    -0.276 OA
ATOM     17  H   LIG d   1     -26.726  83.421 113.740  0.00  0.00     0.149 HD
ENDBRANCH   6  13
BRANCH   5  18
ATOM     18  N   LIG d   1     -23.351  82.374 113.344  0.00  0.00     0.381 N 
ATOM     19  H   LIG d   1     -23.519  81.729 114.091  0.00  0.00    -0.090 HD
ATOM     20  H   LIG d   1     -22.359  82.425 113.189  0.00  0.00    -0.090 HD
ATOM     21  H   LIG d   1     -23.808  82.060 112.517  0.00  0.00    -0.090 HD
ENDBRANCH   5  18
BRANCH   3  22
ATOM     22  C   LIG d   1     -22.098  86.873 114.404  0.00  0.00     0.382 C 
ATOM     23  O   LIG d   1     -22.466  87.765 115.206  0.00  0.00    -0.241 OA
ATOM     24  O   LIG d   1     -20.896  86.793 114.086  0.00  0.00    -0.241 OA
ENDBRANCH   3  22
TORSDOF 7
ENDMDL
