MODEL 1
REMARK VINA RESULT:      -6.5      0.000      0.000
REMARK  7 active torsions:
REMARK  status: ('A' for Active; 'I' for Inactive)
REMARK    1  A    between atoms: C_2  and  C_3 
REMARK    2  A    between atoms: C_3  and  O_6 
REMARK    3  A    between atoms: C_3  and  C_4 
REMARK    4  A    between atoms: C_7  and  O_6 
REMARK    5  A    between atoms: C_9  and  C_10 
REMARK    6  A    between atoms: N_15  and  C_14 
REMARK    7  A    between atoms: N_20  and  C_19 
REMARK       I    between atoms: C_22  and  N_20 
ROOT
ATOM      1  C   LIG d   1       1.588  83.300 111.479  0.00  0.00     0.161 C 
ATOM      2  C   LIG d   1       2.413  83.141 110.353  0.00  0.00     0.016 C 
ATOM      3  C   LIG d   1       2.345  82.023 109.491  0.00  0.00     0.038 C 
ATOM      4  C   LIG d   1       1.337  81.054 109.610  0.00  0.00     0.028 C 
ATOM      5  C   LIG d   1       0.801  80.911 111.031  0.00  0.00    -0.047 C 
ATOM      6  C   LIG d   1       0.409  82.309 111.562  0.00  0.00     0.091 C 
ENDROOT
BRANCH   1   7
ATOM      7  O   LIG d   1       1.107  84.657 111.544  0.00  0.00    -0.368 OA
BRANCH   7   8
ATOM      8  C   LIG d   1       1.401  85.493 110.398  0.00  0.00     0.119 C 
BRANCH   8   9
ATOM      9  C   LIG d   1       2.001  86.811 110.927  0.00  0.00     0.028 C 
ATOM     10  C   LIG d   1       3.373  86.605 111.591  0.00  0.00     0.006 C 
ENDBRANCH   8   9
BRANCH   8  11
ATOM     11  C   LIG d   1       0.121  85.898 109.661  0.00  0.00     0.028 C 
ATOM     12  C   LIG d   1      -0.987  86.379 110.611  0.00  0.00     0.006 C 
ENDBRANCH   8  11
ENDBRANCH   7   8
ENDBRANCH   1   7
BRANCH   6  13
ATOM     13  N   LIG d   1      -0.048  82.270 112.976  0.00  0.00    -0.311 N 
ATOM     14  C   LIG d   1      -1.317  82.441 113.341  0.00  0.00     0.210 C 
ATOM     15  C   LIG d   1      -1.569  82.384 114.851  0.00  0.00     0.109 C 
ATOM     16  O   LIG d   1      -2.264  82.603 112.556  0.00  0.00    -0.276 OA
ATOM     17  H   LIG d   1       0.650  82.113 113.676  0.00  0.00     0.149 HD
ENDBRANCH   6  13
BRANCH   5  18
ATOM     18  N   LIG d   1      -0.335  79.970 110.985  0.00  0.00     0.381 N 
ATOM     19  H   LIG d   1      -1.196  80.479 110.974  0.00  0.00    -0.090 HD
ATOM     20  H   LIG d   1      -0.317  79.399 111.811  0.00  0.00    -0.090 HD
ATOM     21  H   LIG d   1      -0.270  79.396 110.174  0.00  0.00    -0.090 HD
ENDBRANCH   5  18
BRANCH   3  22
ATOM     22  C   LIG d   1       3.317  81.845 108.518  0.00  0.00     0.382 C 
ATOM     23  O   LIG d   1       3.451  82.692 107.603  0.00  0.00    -0.241 OA
ATOM     24  O   LIG d   1       4.033  80.825 108.520  0.00  0.00    -0.241 OA
ENDBRANCH   3  22
TORSDOF 7
ENDMDL
MODEL 2
REMARK VINA RESULT:      -5.9      1.623      4.898
REMARK  7 active torsions:
REMARK  status: ('A' for Active; 'I' for Inactive)
REMARK    1  A    between atoms: C_2  and  C_3 
REMARK    2  A    between atoms: C_3  and  O_6 
REMARK    3  A    between atoms: C_3  and  C_4 
REMARK    4  A    between atoms: C_7  and  O_6 
REMARK    5  A    between atoms: C_9  and  C_10 
REMARK    6  A    between atoms: N_15  and  C_14 
REMARK    7  A    between atoms: N_20  and  C_19 
REMARK       I    between atoms: C_22  and  N_20 
ROOT
ATOM      1  C   LIG d   1       0.319  83.216 111.521  0.00  0.00     0.161 C 
ATOM      2  C   LIG d   1      -0.736  82.947 112.409  0.00  0.00     0.016 C 
ATOM      3  C   LIG d   1      -1.239  81.648 112.648  0.00  0.00     0.038 C 
ATOM      4  C   LIG d   1      -0.618  80.504 112.125  0.00  0.00     0.028 C 
ATOM      5  C   LIG d   1       0.136  80.764 110.825  0.00  0.00    -0.047 C 
ATOM      6  C   LIG d   1       1.082  81.969 111.027  0.00  0.00     0.091 C 
ENDROOT
BRANCH   1   7
ATOM      7  O   LIG d   1       1.232  84.158 112.118  0.00  0.00    -0.368 OA
BRANCH   7   8
ATOM      8  C   LIG d   1       1.299  85.464 111.495  0.00  0.00     0.119 C 
BRANCH   8   9
ATOM      9  C   LIG d   1       0.215  85.510 110.400  0.00  0.00     0.028 C 
ATOM     10  C   LIG d   1       0.808  85.696 108.994  0.00  0.00     0.006 C 
ENDBRANCH   8   9
BRANCH   8  11
ATOM     11  C   LIG d   1       2.627  85.663 110.758  0.00  0.00     0.028 C 
ATOM     12  C   LIG d   1       3.809  84.983 111.467  0.00  0.00     0.006 C 
ENDBRANCH   8  11
ENDBRANCH   7   8
ENDBRANCH   1   7
BRANCH   6  13
ATOM     13  N   LIG d   1       1.796  82.345 109.778  0.00  0.00    -0.311 N 
ATOM     14  C   LIG d   1       3.038  81.953 109.498  0.00  0.00     0.210 C 
ATOM     15  C   LIG d   1       3.593  82.468 108.166  0.00  0.00     0.109 C 
ATOM     16  O   LIG d   1       3.720  81.201 110.210  0.00  0.00    -0.276 OA
ATOM     17  H   LIG d   1       1.305  82.928 109.130  0.00  0.00     0.149 HD
ENDBRANCH   6  13
BRANCH   5  18
ATOM     18  N   LIG d   1       0.847  79.523 110.467  0.00  0.00     0.381 N 
ATOM     19  H   LIG d   1       0.587  78.790 111.095  0.00  0.00    -0.090 HD
ATOM     20  H   LIG d   1       1.836  79.678 110.555  0.00  0.00    -0.090 HD
ATOM     21  H   LIG d   1       0.628  79.262 109.530  0.00  0.00    -0.090 HD
ENDBRANCH   5  18
BRANCH   3  22
ATOM     22  C   LIG d   1      -2.402  81.487 113.386  0.00  0.00     0.382 C 
ATOM     23  O   LIG d   1      -3.495  81.907 112.934  0.00  0.00    -0.241 OA
ATOM     24  O   LIG d   1      -2.365  80.966 114.517  0.00  0.00    -0.241 OA
ENDBRANCH   3  22
TORSDOF 7
ENDMDL
MODEL 3
REMARK VINA RESULT:      -5.8      2.541      4.847
REMARK  7 active torsions:
REMARK  status: ('A' for Active; 'I' for Inactive)
REMARK    1  A    between atoms: C_2  and  C_3 
REMARK    2  A    between atoms: C_3  and  O_6 
REMARK    3  A    between atoms: C_3  and  C_4 
REMARK    4  A    between atoms: C_7  and  O_6 
REMARK    5  A    between atoms: C_9  and  C_10 
REMARK    6  A    between atoms: N_15  and  C_14 
REMARK    7  A    between atoms: N_20  and  C_19 
REMARK       I    between atoms: C_22  and  N_20 
ROOT
ATOM      1  C   LIG d   1       2.442  83.660 111.572  0.00  0.00     0.161 C 
ATOM      2  C   LIG d   1       1.692  82.474 111.509  0.00  0.00     0.016 C 
ATOM      3  C   LIG d   1       0.434  82.314 112.133  0.00  0.00     0.038 C 
ATOM      4  C   LIG d   1      -0.234  83.387 112.740  0.00  0.00     0.028 C 
ATOM      5  C   LIG d   1       0.706  84.467 113.265  0.00  0.00    -0.047 C 
ATOM      6  C   LIG d   1       1.679  84.877 112.135  0.00  0.00     0.091 C 
ENDROOT
BRANCH   1   7
ATOM      7  O   LIG d   1       2.982  83.966 110.271  0.00  0.00    -0.368 OA
BRANCH   7   8
ATOM      8  C   LIG d   1       2.615  83.063 109.200  0.00  0.00     0.119 C 
BRANCH   8   9
ATOM      9  C   LIG d   1       3.915  82.611 108.508  0.00  0.00     0.028 C 
ATOM     10  C   LIG d   1       4.322  81.181 108.899  0.00  0.00     0.006 C 
ENDBRANCH   8   9
BRANCH   8  11
ATOM     11  C   LIG d   1       1.808  83.784 108.115  0.00  0.00     0.028 C 
ATOM     12  C   LIG d   1       1.178  85.094 108.614  0.00  0.00     0.006 C 
ENDBRANCH   8  11
ENDBRANCH   7   8
ENDBRANCH   1   7
BRANCH   6  13
ATOM     13  N   LIG d   1       2.688  85.870 112.589  0.00  0.00    -0.311 N 
ATOM     14  C   LIG d   1       2.821  87.079 112.048  0.00  0.00     0.210 C 
ATOM     15  C   LIG d   1       3.937  87.938 112.651  0.00  0.00     0.109 C 
ATOM     16  O   LIG d   1       2.101  87.534 111.146  0.00  0.00    -0.276 OA
ATOM     17  H   LIG d   1       3.294  85.595 113.337  0.00  0.00     0.149 HD
ENDBRANCH   6  13
BRANCH   5  18
ATOM     18  N   LIG d   1      -0.126  85.587 113.746  0.00  0.00     0.381 N 
ATOM     19  H   LIG d   1       0.384  86.444 113.669  0.00  0.00    -0.090 HD
ATOM     20  H   LIG d   1      -0.344  85.436 114.715  0.00  0.00    -0.090 HD
ATOM     21  H   LIG d   1      -0.965  85.642 113.213  0.00  0.00    -0.090 HD
ENDBRANCH   5  18
BRANCH   3  22
ATOM     22  C   LIG d   1      -0.151  81.058 112.188  0.00  0.00     0.382 C 
ATOM     23  O   LIG d   1      -0.445  80.456 111.127  0.00  0.00    -0.241 OA
ATOM     24  O   LIG d   1      -0.429  80.538 113.286  0.00  0.00    -0.241 OA
ENDBRANCH   3  22
TORSDOF 7
ENDMDL
MODEL 4
REMARK VINA RESULT:      -5.7      2.172      4.964
REMARK  7 active torsions:
REMARK  status: ('A' for Active; 'I' for Inactive)
REMARK    1  A    between atoms: C_2  and  C_3 
REMARK    2  A    between atoms: C_3  and  O_6 
REMARK    3  A    between atoms: C_3  and  C_4 
REMARK    4  A    between atoms: C_7  and  O_6 
REMARK    5  A    between atoms: C_9  and  C_10 
REMARK    6  A    between atoms: N_15  and  C_14 
REMARK    7  A    between atoms: N_20  and  C_19 
REMARK       I    between atoms: C_22  and  N_20 
ROOT
ATOM      1  C   LIG d   1       2.446  84.542 110.427  0.00  0.00     0.161 C 
ATOM      2  C   LIG d   1       1.420  85.334 110.969  0.00  0.00     0.016 C 
ATOM      3  C   LIG d   1       0.125  84.842 111.254  0.00  0.00     0.038 C 
ATOM      4  C   LIG d   1      -0.188  83.478 111.156  0.00  0.00     0.028 C 
ATOM      5  C   LIG d   1       0.665  82.732 110.135  0.00  0.00    -0.047 C 
ATOM      6  C   LIG d   1       2.157  83.026 110.417  0.00  0.00     0.091 C 
ENDROOT
BRANCH   1   7
ATOM      7  O   LIG d   1       3.685  84.811 111.112  0.00  0.00    -0.368 OA
BRANCH   7   8
ATOM      8  C   LIG d   1       3.641  85.847 112.125  0.00  0.00     0.119 C 
BRANCH   8   9
ATOM      9  C   LIG d   1       4.698  86.904 111.752  0.00  0.00     0.028 C 
ATOM     10  C   LIG d   1       5.179  87.709 112.971  0.00  0.00     0.006 C 
ENDBRANCH   8   9
BRANCH   8  11
ATOM     11  C   LIG d   1       4.072  85.308 113.492  0.00  0.00     0.028 C 
ATOM     12  C   LIG d   1       2.963  84.506 114.193  0.00  0.00     0.006 C 
ENDBRANCH   8  11
ENDBRANCH   7   8
ENDBRANCH   1   7
BRANCH   6  13
ATOM     13  N   LIG d   1       3.057  82.403 109.413  0.00  0.00    -0.311 N 
ATOM     14  C   LIG d   1       3.661  81.230 109.597  0.00  0.00     0.210 C 
ATOM     15  C   LIG d   1       4.563  80.779 108.444  0.00  0.00     0.109 C 
ATOM     16  O   LIG d   1       3.510  80.506 110.592  0.00  0.00    -0.276 OA
ATOM     17  H   LIG d   1       3.211  82.909 108.562  0.00  0.00     0.149 HD
ENDBRANCH   6  13
BRANCH   5  18
ATOM     18  N   LIG d   1       0.330  81.300 110.235  0.00  0.00     0.381 N 
ATOM     19  H   LIG d   1       0.319  81.020 111.196  0.00  0.00    -0.090 HD
ATOM     20  H   LIG d   1       1.036  80.766 109.759  0.00  0.00    -0.090 HD
ATOM     21  H   LIG d   1      -0.561  81.128 109.822  0.00  0.00    -0.090 HD
ENDBRANCH   5  18
BRANCH   3  22
ATOM     22  C   LIG d   1      -0.884  85.725 111.605  0.00  0.00     0.382 C 
ATOM     23  O   LIG d   1      -1.386  85.680 112.753  0.00  0.00    -0.241 OA
ATOM     24  O   LIG d   1      -1.330  86.538 110.772  0.00  0.00    -0.241 OA
ENDBRANCH   3  22
TORSDOF 7
ENDMDL
MODEL 5
REMARK VINA RESULT:      -5.6      2.285      5.043
REMARK  7 active torsions:
REMARK  status: ('A' for Active; 'I' for Inactive)
REMARK    1  A    between atoms: C_2  and  C_3 
REMARK    2  A    between atoms: C_3  and  O_6 
REMARK    3  A    between atoms: C_3  and  C_4 
REMARK    4  A    between atoms: C_7  and  O_6 
REMARK    5  A    between atoms: C_9  and  C_10 
REMARK    6  A    between atoms: N_15  and  C_14 
REMARK    7  A    between atoms: N_20  and  C_19 
REMARK       I    between atoms: C_22  and  N_20 
ROOT
ATOM      1  C   LIG d   1       1.937  83.031 111.387  0.00  0.00     0.161 C 
ATOM      2  C   LIG d   1       1.693  84.397 111.604  0.00  0.00     0.016 C 
ATOM      3  C   LIG d   1       1.395  85.310 110.566  0.00  0.00     0.038 C 
ATOM      4  C   LIG d   1       1.171  84.886 109.248  0.00  0.00     0.028 C 
ATOM      5  C   LIG d   1       1.902  83.595 108.894  0.00  0.00    -0.047 C 
ATOM      6  C   LIG d   1       1.587  82.530 109.970  0.00  0.00     0.091 C 
ENDROOT
BRANCH   1   7
ATOM      7  O   LIG d   1       1.247  82.247 112.380  0.00  0.00    -0.368 OA
BRANCH   7   8
ATOM      8  C   LIG d   1      -0.136  81.927 112.091  0.00  0.00     0.119 C 
BRANCH   8   9
ATOM      9  C   LIG d   1      -1.008  82.667 113.125  0.00  0.00     0.028 C 
ATOM     10  C   LIG d   1      -0.235  83.001 114.412  0.00  0.00     0.006 C 
ENDBRANCH   8   9
BRANCH   8  11
ATOM     11  C   LIG d   1      -0.422  80.439 112.311  0.00  0.00     0.028 C 
ATOM     12  C   LIG d   1      -1.841  80.175 112.838  0.00  0.00     0.006 C 
ENDBRANCH   8  11
ENDBRANCH   7   8
ENDBRANCH   1   7
BRANCH   6  13
ATOM     13  N   LIG d   1       2.329  81.262 109.746  0.00  0.00    -0.311 N 
ATOM     14  C   LIG d   1       1.759  80.149 109.286  0.00  0.00     0.210 C 
ATOM     15  C   LIG d   1       2.700  78.949 109.147  0.00  0.00     0.109 C 
ATOM     16  O   LIG d   1       0.569  80.052 108.950  0.00  0.00    -0.276 OA
ATOM     17  H   LIG d   1       3.307  81.261 109.963  0.00  0.00     0.149 HD
ENDBRANCH   6  13
BRANCH   5  18
ATOM     18  N   LIG d   1       1.471  83.195 107.541  0.00  0.00     0.381 N 
ATOM     19  H   LIG d   1       2.137  82.561 107.147  0.00  0.00    -0.090 HD
ATOM     20  H   LIG d   1       1.430  84.013 106.959  0.00  0.00    -0.090 HD
ATOM     21  H   LIG d   1       0.574  82.763 107.583  0.00  0.00    -0.090 HD
ENDBRANCH   5  18
BRANCH   3  22
ATOM     22  C   LIG d   1       1.358  86.669 110.836  0.00  0.00     0.382 C 
ATOM     23  O   LIG d   1       0.255  87.254 110.961  0.00  0.00    -0.241 OA
ATOM     24  O   LIG d   1       2.414  87.327 110.912  0.00  0.00    -0.241 OA
ENDBRANCH   3  22
TORSDOF 7
ENDMDL
MODEL 6
REMARK VINA RESULT:      -5.6      2.750      5.698
REMARK  7 active torsions:
REMARK  status: ('A' for Active; 'I' for Inactive)
REMARK    1  A    between atoms: C_2  and  C_3 
REMARK    2  A    between atoms: C_3  and  O_6 
REMARK    3  A    between atoms: C_3  and  C_4 
REMARK    4  A    between atoms: C_7  and  O_6 
REMARK    5  A    between atoms: C_9  and  C_10 
REMARK    6  A    between atoms: N_15  and  C_14 
REMARK    7  A    between atoms: N_20  and  C_19 
REMARK       I    between atoms: C_22  and  N_20 
ROOT
ATOM      1  C   LIG d   1       1.019  84.195 111.926  0.00  0.00     0.161 C 
ATOM      2  C   LIG d   1      -0.071  83.338 112.149  0.00  0.00     0.016 C 
ATOM      3  C   LIG d   1      -0.960  83.477 113.240  0.00  0.00     0.038 C 
ATOM      4  C   LIG d   1      -0.906  84.581 114.103  0.00  0.00     0.028 C 
ATOM      5  C   LIG d   1       0.485  85.196 114.215  0.00  0.00    -0.047 C 
ATOM      6  C   LIG d   1       1.028  85.470 112.794  0.00  0.00     0.091 C 
ENDROOT
BRANCH   1   7
ATOM      7  O   LIG d   1       1.092  84.539 110.528  0.00  0.00    -0.368 OA
BRANCH   7   8
ATOM      8  C   LIG d   1       2.293  84.125 109.831  0.00  0.00     0.119 C 
BRANCH   8   9
ATOM      9  C   LIG d   1       1.863  83.183 108.689  0.00  0.00     0.028 C 
ATOM     10  C   LIG d   1       1.648  81.738 109.170  0.00  0.00     0.006 C 
ENDBRANCH   8   9
BRANCH   8  11
ATOM     11  C   LIG d   1       3.198  83.282 110.733  0.00  0.00     0.028 C 
ATOM     12  C   LIG d   1       4.687  83.419 110.378  0.00  0.00     0.006 C 
ENDBRANCH   8  11
ENDBRANCH   7   8
ENDBRANCH   1   7
BRANCH   6  13
ATOM     13  N   LIG d   1       2.419  85.994 112.809  0.00  0.00    -0.311 N 
ATOM     14  C   LIG d   1       2.841  86.977 112.016  0.00  0.00     0.210 C 
ATOM     15  C   LIG d   1       4.317  87.351 112.179  0.00  0.00     0.109 C 
ATOM     16  O   LIG d   1       2.124  87.596 111.215  0.00  0.00    -0.276 OA
ATOM     17  H   LIG d   1       3.059  85.570 113.452  0.00  0.00     0.149 HD
ENDBRANCH   6  13
BRANCH   5  18
ATOM     18  N   LIG d   1       0.369  86.417 115.035  0.00  0.00     0.381 N 
ATOM     19  H   LIG d   1       0.845  87.173 114.585  0.00  0.00    -0.090 HD
ATOM     20  H   LIG d   1       0.805  86.254 115.925  0.00  0.00    -0.090 HD
ATOM     21  H   LIG d   1      -0.591  86.650 115.165  0.00  0.00    -0.090 HD
ENDBRANCH   5  18
BRANCH   3  22
ATOM     22  C   LIG d   1      -1.891  82.483 113.499  0.00  0.00     0.382 C 
ATOM     23  O   LIG d   1      -2.797  82.240 112.666  0.00  0.00    -0.241 OA
ATOM     24  O   LIG d   1      -1.862  81.856 114.576  0.00  0.00    -0.241 OA
ENDBRANCH   3  22
TORSDOF 7
ENDMDL
MODEL 7
REMARK VINA RESULT:      -5.6      2.357      3.367
REMARK  7 active torsions:
REMARK  status: ('A' for Active; 'I' for Inactive)
REMARK    1  A    between atoms: C_2  and  C_3 
REMARK    2  A    between atoms: C_3  and  O_6 
REMARK    3  A    between atoms: C_3  and  C_4 
REMARK    4  A    between atoms: C_7  and  O_6 
REMARK    5  A    between atoms: C_9  and  C_10 
REMARK    6  A    between atoms: N_15  and  C_14 
REMARK    7  A    between atoms: N_20  and  C_19 
REMARK       I    between atoms: C_22  and  N_20 
ROOT
ATOM      1  C   LIG d   1       2.050  83.144 111.910  0.00  0.00     0.161 C 
ATOM      2  C   LIG d   1       2.605  82.936 110.637  0.00  0.00     0.016 C 
ATOM      3  C   LIG d   1       2.076  83.505 109.455  0.00  0.00     0.038 C 
ATOM      4  C   LIG d   1       1.038  84.448 109.486  0.00  0.00     0.028 C 
ATOM      5  C   LIG d   1       0.122  84.300 110.696  0.00  0.00    -0.047 C 
ATOM      6  C   LIG d   1       0.985  84.258 111.978  0.00  0.00     0.091 C 
ENDROOT
BRANCH   1   7
ATOM      7  O   LIG d   1       3.100  83.396 112.865  0.00  0.00    -0.368 OA
BRANCH   7   8
ATOM      8  C   LIG d   1       3.409  84.788 113.121  0.00  0.00     0.119 C 
BRANCH   8   9
ATOM      9  C   LIG d   1       4.687  85.130 112.332  0.00  0.00     0.028 C 
ATOM     10  C   LIG d   1       4.446  86.211 111.264  0.00  0.00     0.006 C 
ENDBRANCH   8   9
BRANCH   8  11
ATOM     11  C   LIG d   1       3.767  85.019 114.592  0.00  0.00     0.028 C 
ATOM     12  C   LIG d   1       3.251  83.901 115.513  0.00  0.00     0.006 C 
ENDBRANCH   8  11
ENDBRANCH   7   8
ENDBRANCH   1   7
BRANCH   6  13
ATOM     13  N   LIG d   1       0.173  84.031 113.201  0.00  0.00    -0.311 N 
ATOM     14  C   LIG d   1      -0.042  84.968 114.123  0.00  0.00     0.210 C 
ATOM     15  C   LIG d   1      -0.891  84.518 115.317  0.00  0.00     0.109 C 
ATOM     16  O   LIG d   1       0.362  86.138 114.050  0.00  0.00    -0.276 OA
ATOM     17  H   LIG d   1      -0.219  83.118 113.325  0.00  0.00     0.149 HD
ENDBRANCH   6  13
BRANCH   5  18
ATOM     18  N   LIG d   1      -0.829  85.427 110.676  0.00  0.00     0.381 N 
ATOM     19  H   LIG d   1      -1.671  85.169 111.151  0.00  0.00    -0.090 HD
ATOM     20  H   LIG d   1      -1.059  85.642 109.721  0.00  0.00    -0.090 HD
ATOM     21  H   LIG d   1      -0.423  86.224 111.115  0.00  0.00    -0.090 HD
ENDBRANCH   5  18
BRANCH   3  22
ATOM     22  C   LIG d   1       2.561  83.099 108.221  0.00  0.00     0.382 C 
ATOM     23  O   LIG d   1       1.963  83.437 107.171  0.00  0.00    -0.241 OA
ATOM     24  O   LIG d   1       3.563  82.363 108.146  0.00  0.00    -0.241 OA
ENDBRANCH   3  22
TORSDOF 7
ENDMDL
MODEL 8
REMARK VINA RESULT:      -5.6      1.797      2.335
REMARK  7 active torsions:
REMARK  status: ('A' for Active; 'I' for Inactive)
REMARK    1  A    between atoms: C_2  and  C_3 
REMARK    2  A    between atoms: C_3  and  O_6 
REMARK    3  A    between atoms: C_3  and  C_4 
REMARK    4  A    between atoms: C_7  and  O_6 
REMARK    5  A    between atoms: C_9  and  C_10 
REMARK    6  A    between atoms: N_15  and  C_14 
REMARK    7  A    between atoms: N_20  and  C_19 
REMARK       I    between atoms: C_22  and  N_20 
ROOT
ATOM      1  C   LIG d   1       1.832  82.403 111.762  0.00  0.00     0.161 C 
ATOM      2  C   LIG d   1       2.592  81.736 110.787  0.00  0.00     0.016 C 
ATOM      3  C   LIG d   1       2.146  80.577 110.112  0.00  0.00     0.038 C 
ATOM      4  C   LIG d   1       0.838  80.090 110.258  0.00  0.00     0.028 C 
ATOM      5  C   LIG d   1       0.211  80.434 111.605  0.00  0.00    -0.047 C 
ATOM      6  C   LIG d   1       0.359  81.952 111.855  0.00  0.00     0.091 C 
ENDROOT
BRANCH   1   7
ATOM      7  O   LIG d   1       1.907  83.827 111.550  0.00  0.00    -0.368 OA
BRANCH   7   8
ATOM      8  C   LIG d   1       2.578  84.591 112.583  0.00  0.00     0.119 C 
BRANCH   8   9
ATOM      9  C   LIG d   1       1.595  85.673 113.070  0.00  0.00     0.028 C 
ATOM     10  C   LIG d   1       1.183  85.475 114.538  0.00  0.00     0.006 C 
ENDBRANCH   8   9
BRANCH   8  11
ATOM     11  C   LIG d   1       3.778  85.356 112.020  0.00  0.00     0.028 C 
ATOM     12  C   LIG d   1       4.033  85.056 110.534  0.00  0.00     0.006 C 
ENDBRANCH   8  11
ENDBRANCH   7   8
ENDBRANCH   1   7
BRANCH   6  13
ATOM     13  N   LIG d   1      -0.153  82.360 113.189  0.00  0.00    -0.311 N 
ATOM     14  C   LIG d   1      -1.421  82.700 113.415  0.00  0.00     0.210 C 
ATOM     15  C   LIG d   1      -1.734  83.107 114.858  0.00  0.00     0.109 C 
ATOM     16  O   LIG d   1      -2.323  82.672 112.565  0.00  0.00    -0.276 OA
ATOM     17  H   LIG d   1       0.505  82.381 113.943  0.00  0.00     0.149 HD
ENDBRANCH   6  13
BRANCH   5  18
ATOM     18  N   LIG d   1      -1.194  79.988 111.570  0.00  0.00     0.381 N 
ATOM     19  H   LIG d   1      -1.567  79.967 112.498  0.00  0.00    -0.090 HD
ATOM     20  H   LIG d   1      -1.230  79.056 111.194  0.00  0.00    -0.090 HD
ATOM     21  H   LIG d   1      -1.733  80.604 111.002  0.00  0.00    -0.090 HD
ENDBRANCH   5  18
BRANCH   3  22
ATOM     22  C   LIG d   1       3.026  79.868 109.308  0.00  0.00     0.382 C 
ATOM     23  O   LIG d   1       2.790  78.669 109.025  0.00  0.00    -0.241 OA
ATOM     24  O   LIG d   1       4.076  80.399 108.900  0.00  0.00    -0.241 OA
ENDBRANCH   3  22
TORSDOF 7
ENDMDL
MODEL 9
REMARK VINA RESULT:      -5.5      2.301      4.885
REMARK  7 active torsions:
REMARK  status: ('A' for Active; 'I' for Inactive)
REMARK    1  A    between atoms: C_2  and  C_3 
REMARK    2  A    between atoms: C_3  and  O_6 
REMARK    3  A    between atoms: C_3  and  C_4 
REMARK    4  A    between atoms: C_7  and  O_6 
REMARK    5  A    between atoms: C_9  and  C_10 
REMARK    6  A    between atoms: N_15  and  C_14 
REMARK    7  A    between atoms: N_20  and  C_19 
REMARK       I    between atoms: C_22  and  N_20 
ROOT
ATOM      1  C   LIG d   1      -0.349  82.612 111.705  0.00  0.00     0.161 C 
ATOM      2  C   LIG d   1      -0.185  83.857 111.075  0.00  0.00     0.016 C 
ATOM      3  C   LIG d   1      -0.407  85.093 111.726  0.00  0.00     0.038 C 
ATOM      4  C   LIG d   1      -0.662  85.171 113.103  0.00  0.00     0.028 C 
ATOM      5  C   LIG d   1      -1.332  83.922 113.666  0.00  0.00    -0.047 C 
ATOM      6  C   LIG d   1      -0.519  82.680 113.237  0.00  0.00     0.091 C 
ENDROOT
BRANCH   1   7
ATOM      7  O   LIG d   1       0.748  81.742 111.361  0.00  0.00    -0.368 OA
BRANCH   7   8
ATOM      8  C   LIG d   1       1.140  81.733 109.966  0.00  0.00     0.119 C 
BRANCH   8   9
ATOM      9  C   LIG d   1       0.656  80.402 109.358  0.00  0.00     0.028 C 
ATOM     10  C   LIG d   1       1.761  79.332 109.335  0.00  0.00     0.006 C 
ENDBRANCH   8   9
BRANCH   8  11
ATOM     11  C   LIG d   1       2.664  81.718 109.816  0.00  0.00     0.028 C 
ATOM     12  C   LIG d   1       3.391  82.233 111.068  0.00  0.00     0.006 C 
ENDBRANCH   8  11
ENDBRANCH   7   8
ENDBRANCH   1   7
BRANCH   6  13
ATOM     13  N   LIG d   1      -1.153  81.409 113.676  0.00  0.00    -0.311 N 
ATOM     14  C   LIG d   1      -2.440  81.126 113.482  0.00  0.00     0.210 C 
ATOM     15  C   LIG d   1      -2.894  79.770 114.030  0.00  0.00     0.109 C 
ATOM     16  O   LIG d   1      -3.242  81.856 112.880  0.00  0.00    -0.276 OA
ATOM     17  H   LIG d   1      -0.568  80.745 114.145  0.00  0.00     0.149 HD
ENDBRANCH   6  13
BRANCH   5  18
ATOM     18  N   LIG d   1      -1.414  84.083 115.130  0.00  0.00     0.381 N 
ATOM     19  H   LIG d   1      -0.599  83.693 115.560  0.00  0.00    -0.090 HD
ATOM     20  H   LIG d   1      -2.218  83.583 115.467  0.00  0.00    -0.090 HD
ATOM     21  H   LIG d   1      -1.492  85.048 115.364  0.00  0.00    -0.090 HD
ENDBRANCH   5  18
BRANCH   3  22
ATOM     22  C   LIG d   1      -0.412  86.267 110.987  0.00  0.00     0.382 C 
ATOM     23  O   LIG d   1       0.635  86.951 110.890  0.00  0.00    -0.241 OA
ATOM     24  O   LIG d   1      -1.462  86.673 110.454  0.00  0.00    -0.241 OA
ENDBRANCH   3  22
TORSDOF 7
ENDMDL
