MODEL 1
REMARK VINA RESULT:      -6.6      0.000      0.000
REMARK  7 active torsions:
REMARK  status: ('A' for Active; 'I' for Inactive)
REMARK    1  A    between atoms: C_2  and  C_3 
REMARK    2  A    between atoms: C_3  and  O_6 
REMARK    3  A    between atoms: C_3  and  C_4 
REMARK    4  A    between atoms: C_7  and  O_6 
REMARK    5  A    between atoms: C_9  and  C_10 
REMARK    6  A    between atoms: N_15  and  C_14 
REMARK    7  A    between atoms: N_20  and  C_19 
REMARK       I    between atoms: C_22  and  N_20 
ROOT
ATOM      1  C   LIG d   1       0.928  83.896 109.672  0.00  0.00     0.161 C 
ATOM      2  C   LIG d   1       0.456  85.022 110.367  0.00  0.00     0.016 C 
ATOM      3  C   LIG d   1      -0.305  84.939 111.556  0.00  0.00     0.038 C 
ATOM      4  C   LIG d   1      -0.518  83.720 112.217  0.00  0.00     0.028 C 
ATOM      5  C   LIG d   1      -0.491  82.514 111.285  0.00  0.00    -0.047 C 
ATOM      6  C   LIG d   1       0.801  82.563 110.437  0.00  0.00     0.091 C 
ENDROOT
BRANCH   1   7
ATOM      7  O   LIG d   1       2.294  84.112 109.265  0.00  0.00    -0.368 OA
BRANCH   7   8
ATOM      8  C   LIG d   1       3.311  83.776 110.241  0.00  0.00     0.119 C 
BRANCH   8   9
ATOM      9  C   LIG d   1       3.894  85.098 110.776  0.00  0.00     0.028 C 
ATOM     10  C   LIG d   1       3.480  85.377 112.230  0.00  0.00     0.006 C 
ENDBRANCH   8   9
BRANCH   8  11
ATOM     11  C   LIG d   1       4.489  83.046 109.590  0.00  0.00     0.028 C 
ATOM     12  C   LIG d   1       4.114  82.380 108.256  0.00  0.00     0.006 C 
ENDBRANCH   8  11
ENDBRANCH   7   8
ENDBRANCH   1   7
BRANCH   6  13
ATOM     13  N   LIG d   1       0.866  81.463 109.439  0.00  0.00    -0.311 N 
ATOM     14  C   LIG d   1       1.523  80.324 109.647  0.00  0.00     0.210 C 
ATOM     15  C   LIG d   1       1.481  79.332 108.480  0.00  0.00     0.109 C 
ATOM     16  O   LIG d   1       2.110  80.026 110.698  0.00  0.00    -0.276 OA
ATOM     17  H   LIG d   1       0.391  81.608 108.570  0.00  0.00     0.149 HD
ENDBRANCH   6  13
BRANCH   5  18
ATOM     18  N   LIG d   1      -0.588  81.302 112.121  0.00  0.00     0.381 N 
ATOM     19  H   LIG d   1       0.131  80.656 111.866  0.00  0.00    -0.090 HD
ATOM     20  H   LIG d   1      -1.478  80.865 111.958  0.00  0.00    -0.090 HD
ATOM     21  H   LIG d   1      -0.501  81.545 113.084  0.00  0.00    -0.090 HD
ENDBRANCH   5  18
BRANCH   3  22
ATOM     22  C   LIG d   1      -0.896  86.082 112.074  0.00  0.00     0.382 C 
ATOM     23  O   LIG d   1      -0.734  86.379 113.282  0.00  0.00    -0.241 OA
ATOM     24  O   LIG d   1      -1.627  86.795 111.360  0.00  0.00    -0.241 OA
ENDBRANCH   3  22
TORSDOF 7
ENDMDL
MODEL 2
REMARK VINA RESULT:      -6.4      2.491      4.839
REMARK  7 active torsions:
REMARK  status: ('A' for Active; 'I' for Inactive)
REMARK    1  A    between atoms: C_2  and  C_3 
REMARK    2  A    between atoms: C_3  and  O_6 
REMARK    3  A    between atoms: C_3  and  C_4 
REMARK    4  A    between atoms: C_7  and  O_6 
REMARK    5  A    between atoms: C_9  and  C_10 
REMARK    6  A    between atoms: N_15  and  C_14 
REMARK    7  A    between atoms: N_20  and  C_19 
REMARK       I    between atoms: C_22  and  N_20 
ROOT
ATOM      1  C   LIG d   1       1.597  81.154 111.846  0.00  0.00     0.161 C 
ATOM      2  C   LIG d   1       2.600  81.858 111.157  0.00  0.00     0.016 C 
ATOM      3  C   LIG d   1       2.701  81.886 109.747  0.00  0.00     0.038 C 
ATOM      4  C   LIG d   1       1.711  81.334 108.921  0.00  0.00     0.028 C 
ATOM      5  C   LIG d   1       0.952  80.183 109.572  0.00  0.00    -0.047 C 
ATOM      6  C   LIG d   1       0.444  80.638 110.960  0.00  0.00     0.091 C 
ENDROOT
BRANCH   1   7
ATOM      7  O   LIG d   1       1.080  81.966 112.918  0.00  0.00    -0.368 OA
BRANCH   7   8
ATOM      8  C   LIG d   1       1.055  83.395 112.681  0.00  0.00     0.119 C 
BRANCH   8   9
ATOM      9  C   LIG d   1       1.438  84.091 114.001  0.00  0.00     0.028 C 
ATOM     10  C   LIG d   1       0.966  85.554 114.052  0.00  0.00     0.006 C 
ENDBRANCH   8   9
BRANCH   8  11
ATOM     11  C   LIG d   1      -0.362  83.882 112.362  0.00  0.00     0.028 C 
ATOM     12  C   LIG d   1      -0.577  84.153 110.865  0.00  0.00     0.006 C 
ENDBRANCH   8  11
ENDBRANCH   7   8
ENDBRANCH   1   7
BRANCH   6  13
ATOM     13  N   LIG d   1      -0.237  79.545 111.701  0.00  0.00    -0.311 N 
ATOM     14  C   LIG d   1      -1.391  79.705 112.346  0.00  0.00     0.210 C 
ATOM     15  C   LIG d   1      -1.910  78.454 113.062  0.00  0.00     0.109 C 
ATOM     16  O   LIG d   1      -2.050  80.755 112.368  0.00  0.00    -0.276 OA
ATOM     17  H   LIG d   1       0.213  78.650 111.709  0.00  0.00     0.149 HD
ENDBRANCH   6  13
BRANCH   5  18
ATOM     18  N   LIG d   1      -0.138  79.794 108.657  0.00  0.00     0.381 N 
ATOM     19  H   LIG d   1      -0.930  79.486 109.186  0.00  0.00    -0.090 HD
ATOM     20  H   LIG d   1       0.175  79.030 108.085  0.00  0.00    -0.090 HD
ATOM     21  H   LIG d   1      -0.393  80.567 108.083  0.00  0.00    -0.090 HD
ENDBRANCH   5  18
BRANCH   3  22
ATOM     22  C   LIG d   1       3.824  82.439 109.150  0.00  0.00     0.382 C 
ATOM     23  O   LIG d   1       4.307  81.915 108.117  0.00  0.00    -0.241 OA
ATOM     24  O   LIG d   1       4.386  83.429 109.656  0.00  0.00    -0.241 OA
ENDBRANCH   3  22
TORSDOF 7
ENDMDL
MODEL 3
REMARK VINA RESULT:      -6.2      1.763      2.976
REMARK  7 active torsions:
REMARK  status: ('A' for Active; 'I' for Inactive)
REMARK    1  A    between atoms: C_2  and  C_3 
REMARK    2  A    between atoms: C_3  and  O_6 
REMARK    3  A    between atoms: C_3  and  C_4 
REMARK    4  A    between atoms: C_7  and  O_6 
REMARK    5  A    between atoms: C_9  and  C_10 
REMARK    6  A    between atoms: N_15  and  C_14 
REMARK    7  A    between atoms: N_20  and  C_19 
REMARK       I    between atoms: C_22  and  N_20 
ROOT
ATOM      1  C   LIG d   1       1.974  85.677 110.461  0.00  0.00     0.161 C 
ATOM      2  C   LIG d   1       0.932  86.351 111.119  0.00  0.00     0.016 C 
ATOM      3  C   LIG d   1      -0.289  85.735 111.478  0.00  0.00     0.038 C 
ATOM      4  C   LIG d   1      -0.492  84.354 111.336  0.00  0.00     0.028 C 
ATOM      5  C   LIG d   1       0.335  83.732 110.216  0.00  0.00    -0.047 C 
ATOM      6  C   LIG d   1       1.814  84.144 110.397  0.00  0.00     0.091 C 
ENDROOT
BRANCH   1   7
ATOM      7  O   LIG d   1       3.237  86.025 111.062  0.00  0.00    -0.368 OA
BRANCH   7   8
ATOM      8  C   LIG d   1       3.179  86.546 112.412  0.00  0.00     0.119 C 
BRANCH   8   9
ATOM      9  C   LIG d   1       4.269  87.628 112.539  0.00  0.00     0.028 C 
ATOM     10  C   LIG d   1       3.989  88.611 113.688  0.00  0.00     0.006 C 
ENDBRANCH   8   9
BRANCH   8  11
ATOM     11  C   LIG d   1       3.551  85.473 113.440  0.00  0.00     0.028 C 
ATOM     12  C   LIG d   1       2.329  84.911 114.184  0.00  0.00     0.006 C 
ENDBRANCH   8  11
ENDBRANCH   7   8
ENDBRANCH   1   7
BRANCH   6  13
ATOM     13  N   LIG d   1       2.680  83.647 109.297  0.00  0.00    -0.311 N 
ATOM     14  C   LIG d   1       3.376  82.513 109.366  0.00  0.00     0.210 C 
ATOM     15  C   LIG d   1       4.220  82.196 108.128  0.00  0.00     0.109 C 
ATOM     16  O   LIG d   1       3.349  81.724 110.323  0.00  0.00    -0.276 OA
ATOM     17  H   LIG d   1       2.736  84.209 108.470  0.00  0.00     0.149 HD
ENDBRANCH   6  13
BRANCH   5  18
ATOM     18  N   LIG d   1       0.131  82.272 110.270  0.00  0.00     0.381 N 
ATOM     19  H   LIG d   1      -0.484  82.044 111.025  0.00  0.00    -0.090 HD
ATOM     20  H   LIG d   1       1.016  81.826 110.437  0.00  0.00    -0.090 HD
ATOM     21  H   LIG d   1      -0.254  81.950 109.409  0.00  0.00    -0.090 HD
ENDBRANCH   5  18
BRANCH   3  22
ATOM     22  C   LIG d   1      -1.338  86.510 111.948  0.00  0.00     0.382 C 
ATOM     23  O   LIG d   1      -1.912  87.321 111.181  0.00  0.00    -0.241 OA
ATOM     24  O   LIG d   1      -1.689  86.441 113.141  0.00  0.00    -0.241 OA
ENDBRANCH   3  22
TORSDOF 7
ENDMDL
MODEL 4
REMARK VINA RESULT:      -5.6      2.005      3.725
REMARK  7 active torsions:
REMARK  status: ('A' for Active; 'I' for Inactive)
REMARK    1  A    between atoms: C_2  and  C_3 
REMARK    2  A    between atoms: C_3  and  O_6 
REMARK    3  A    between atoms: C_3  and  C_4 
REMARK    4  A    between atoms: C_7  and  O_6 
REMARK    5  A    between atoms: C_9  and  C_10 
REMARK    6  A    between atoms: N_15  and  C_14 
REMARK    7  A    between atoms: N_20  and  C_19 
REMARK       I    between atoms: C_22  and  N_20 
ROOT
ATOM      1  C   LIG d   1       1.403  83.851 111.669  0.00  0.00     0.161 C 
ATOM      2  C   LIG d   1       0.385  84.559 112.330  0.00  0.00     0.016 C 
ATOM      3  C   LIG d   1      -0.418  85.538 111.700  0.00  0.00     0.038 C 
ATOM      4  C   LIG d   1      -0.357  85.768 110.317  0.00  0.00     0.028 C 
ATOM      5  C   LIG d   1       1.001  85.438 109.707  0.00  0.00    -0.047 C 
ATOM      6  C   LIG d   1       1.409  84.010 110.134  0.00  0.00     0.091 C 
ENDROOT
BRANCH   1   7
ATOM      7  O   LIG d   1       1.341  82.457 112.028  0.00  0.00    -0.368 OA
BRANCH   7   8
ATOM      8  C   LIG d   1       0.532  81.613 111.172  0.00  0.00     0.119 C 
BRANCH   8   9
ATOM      9  C   LIG d   1      -0.669  81.124 112.006  0.00  0.00     0.028 C 
ATOM     10  C   LIG d   1      -0.760  79.589 112.058  0.00  0.00     0.006 C 
ENDBRANCH   8   9
BRANCH   8  11
ATOM     11  C   LIG d   1       1.287  80.345 110.765  0.00  0.00     0.028 C 
ATOM     12  C   LIG d   1       2.785  80.409 111.104  0.00  0.00     0.006 C 
ENDBRANCH   8  11
ENDBRANCH   7   8
ENDBRANCH   1   7
BRANCH   6  13
ATOM     13  N   LIG d   1       2.764  83.639 109.650  0.00  0.00    -0.311 N 
ATOM     14  C   LIG d   1       2.977  82.894 108.566  0.00  0.00     0.210 C 
ATOM     15  C   LIG d   1       4.450  82.612 108.253  0.00  0.00     0.109 C 
ATOM     16  O   LIG d   1       2.086  82.468 107.815  0.00  0.00    -0.276 OA
ATOM     17  H   LIG d   1       3.546  83.969 110.182  0.00  0.00     0.149 HD
ENDBRANCH   6  13
BRANCH   5  18
ATOM     18  N   LIG d   1       0.882  85.593 108.245  0.00  0.00     0.381 N 
ATOM     19  H   LIG d   1       1.504  86.310 107.929  0.00  0.00    -0.090 HD
ATOM     20  H   LIG d   1      -0.057  85.870 108.023  0.00  0.00    -0.090 HD
ATOM     21  H   LIG d   1       1.099  84.732 107.792  0.00  0.00    -0.090 HD
ENDBRANCH   5  18
BRANCH   3  22
ATOM     22  C   LIG d   1      -1.266  86.326 112.462  0.00  0.00     0.382 C 
ATOM     23  O   LIG d   1      -2.104  87.071 111.900  0.00  0.00    -0.241 OA
ATOM     24  O   LIG d   1      -1.173  86.335 113.704  0.00  0.00    -0.241 OA
ENDBRANCH   3  22
TORSDOF 7
ENDMDL
MODEL 5
REMARK VINA RESULT:      -5.4      0.863      2.052
REMARK  7 active torsions:
REMARK  status: ('A' for Active; 'I' for Inactive)
REMARK    1  A    between atoms: C_2  and  C_3 
REMARK    2  A    between atoms: C_3  and  O_6 
REMARK    3  A    between atoms: C_3  and  C_4 
REMARK    4  A    between atoms: C_7  and  O_6 
REMARK    5  A    between atoms: C_9  and  C_10 
REMARK    6  A    between atoms: N_15  and  C_14 
REMARK    7  A    between atoms: N_20  and  C_19 
REMARK       I    between atoms: C_22  and  N_20 
ROOT
ATOM      1  C   LIG d   1       1.240  83.396 110.723  0.00  0.00     0.161 C 
ATOM      2  C   LIG d   1       0.837  84.576 111.372  0.00  0.00     0.016 C 
ATOM      3  C   LIG d   1      -0.304  84.656 112.202  0.00  0.00     0.038 C 
ATOM      4  C   LIG d   1      -1.040  83.518 112.564  0.00  0.00     0.028 C 
ATOM      5  C   LIG d   1      -0.969  82.398 111.532  0.00  0.00    -0.047 C 
ATOM      6  C   LIG d   1       0.514  82.119 111.195  0.00  0.00     0.091 C 
ENDROOT
BRANCH   1   7
ATOM      7  O   LIG d   1       2.667  83.235 110.845  0.00  0.00    -0.368 OA
BRANCH   7   8
ATOM      8  C   LIG d   1       3.472  83.910 109.847  0.00  0.00     0.119 C 
BRANCH   8   9
ATOM      9  C   LIG d   1       4.334  82.841 109.147  0.00  0.00     0.028 C 
ATOM     10  C   LIG d   1       3.637  82.238 107.916  0.00  0.00     0.006 C 
ENDBRANCH   8   9
BRANCH   8  11
ATOM     11  C   LIG d   1       4.469  84.875 110.494  0.00  0.00     0.028 C 
ATOM     12  C   LIG d   1       3.783  86.053 111.204  0.00  0.00     0.006 C 
ENDBRANCH   8  11
ENDBRANCH   7   8
ENDBRANCH   1   7
BRANCH   6  13
ATOM     13  N   LIG d   1       0.670  81.094 110.130  0.00  0.00    -0.311 N 
ATOM     14  C   LIG d   1       1.666  80.210 110.104  0.00  0.00     0.210 C 
ATOM     15  C   LIG d   1       1.651  79.254 108.907  0.00  0.00     0.109 C 
ATOM     16  O   LIG d   1       2.542  80.106 110.976  0.00  0.00    -0.276 OA
ATOM     17  H   LIG d   1      -0.014  81.087 109.399  0.00  0.00     0.149 HD
ENDBRANCH   6  13
BRANCH   5  18
ATOM     18  N   LIG d   1      -1.663  81.226 112.097  0.00  0.00     0.381 N 
ATOM     19  H   LIG d   1      -1.178  80.904 112.911  0.00  0.00    -0.090 HD
ATOM     20  H   LIG d   1      -1.661  80.487 111.416  0.00  0.00    -0.090 HD
ATOM     21  H   LIG d   1      -2.601  81.466 112.334  0.00  0.00    -0.090 HD
ENDBRANCH   5  18
BRANCH   3  22
ATOM     22  C   LIG d   1      -0.744  85.894 112.648  0.00  0.00     0.382 C 
ATOM     23  O   LIG d   1      -1.552  86.559 111.956  0.00  0.00    -0.241 OA
ATOM     24  O   LIG d   1      -0.308  86.373 113.712  0.00  0.00    -0.241 OA
ENDBRANCH   3  22
TORSDOF 7
ENDMDL
MODEL 6
REMARK VINA RESULT:      -5.3      1.421      2.230
REMARK  7 active torsions:
REMARK  status: ('A' for Active; 'I' for Inactive)
REMARK    1  A    between atoms: C_2  and  C_3 
REMARK    2  A    between atoms: C_3  and  O_6 
REMARK    3  A    between atoms: C_3  and  C_4 
REMARK    4  A    between atoms: C_7  and  O_6 
REMARK    5  A    between atoms: C_9  and  C_10 
REMARK    6  A    between atoms: N_15  and  C_14 
REMARK    7  A    between atoms: N_20  and  C_19 
REMARK       I    between atoms: C_22  and  N_20 
ROOT
ATOM      1  C   LIG d   1       1.433  83.670 110.205  0.00  0.00     0.161 C 
ATOM      2  C   LIG d   1       1.428  84.731 111.126  0.00  0.00     0.016 C 
ATOM      3  C   LIG d   1       0.630  84.744 112.293  0.00  0.00     0.038 C 
ATOM      4  C   LIG d   1      -0.110  83.623 112.698  0.00  0.00     0.028 C 
ATOM      5  C   LIG d   1      -0.528  82.722 111.541  0.00  0.00    -0.047 C 
ATOM      6  C   LIG d   1       0.718  82.391 110.687  0.00  0.00     0.091 C 
ENDROOT
BRANCH   1   7
ATOM      7  O   LIG d   1       2.788  83.369 109.814  0.00  0.00    -0.368 OA
BRANCH   7   8
ATOM      8  C   LIG d   1       2.950  82.302 108.848  0.00  0.00     0.119 C 
BRANCH   8   9
ATOM      9  C   LIG d   1       4.251  81.555 109.198  0.00  0.00     0.028 C 
ATOM     10  C   LIG d   1       4.135  80.037 108.975  0.00  0.00     0.006 C 
ENDBRANCH   8   9
BRANCH   8  11
ATOM     11  C   LIG d   1       3.168  82.857 107.437  0.00  0.00     0.028 C 
ATOM     12  C   LIG d   1       1.863  83.319 106.770  0.00  0.00     0.006 C 
ENDBRANCH   8  11
ENDBRANCH   7   8
ENDBRANCH   1   7
BRANCH   6  13
ATOM     13  N   LIG d   1       0.383  81.583 109.486  0.00  0.00    -0.311 N 
ATOM     14  C   LIG d   1       0.444  80.252 109.457  0.00  0.00     0.210 C 
ATOM     15  C   LIG d   1       0.077  79.617 108.113  0.00  0.00     0.109 C 
ATOM     16  O   LIG d   1       0.737  79.537 110.427  0.00  0.00    -0.276 OA
ATOM     17  H   LIG d   1       0.105  82.081 108.663  0.00  0.00     0.149 HD
ENDBRANCH   6  13
BRANCH   5  18
ATOM     18  N   LIG d   1      -1.169  81.525 112.117  0.00  0.00     0.381 N 
ATOM     19  H   LIG d   1      -1.567  80.970 111.386  0.00  0.00    -0.090 HD
ATOM     20  H   LIG d   1      -1.910  81.817 112.730  0.00  0.00    -0.090 HD
ATOM     21  H   LIG d   1      -0.499  80.990 112.624  0.00  0.00    -0.090 HD
ENDBRANCH   5  18
BRANCH   3  22
ATOM     22  C   LIG d   1       0.534  85.904 113.047  0.00  0.00     0.382 C 
ATOM     23  O   LIG d   1       1.567  86.562 113.318  0.00  0.00    -0.241 OA
ATOM     24  O   LIG d   1      -0.566  86.276 113.497  0.00  0.00    -0.241 OA
ENDBRANCH   3  22
TORSDOF 7
ENDMDL
MODEL 7
REMARK VINA RESULT:      -4.9     24.742     27.320
REMARK  7 active torsions:
REMARK  status: ('A' for Active; 'I' for Inactive)
REMARK    1  A    between atoms: C_2  and  C_3 
REMARK    2  A    between atoms: C_3  and  O_6 
REMARK    3  A    between atoms: C_3  and  C_4 
REMARK    4  A    between atoms: C_7  and  O_6 
REMARK    5  A    between atoms: C_9  and  C_10 
REMARK    6  A    between atoms: N_15  and  C_14 
REMARK    7  A    between atoms: N_20  and  C_19 
REMARK       I    between atoms: C_22  and  N_20 
ROOT
ATOM      1  C   LIG d   1     -25.587  85.923 113.113  0.00  0.00     0.161 C 
ATOM      2  C   LIG d   1     -24.476  86.763 113.298  0.00  0.00     0.016 C 
ATOM      3  C   LIG d   1     -23.138  86.307 113.245  0.00  0.00     0.038 C 
ATOM      4  C   LIG d   1     -22.816  85.000 112.851  0.00  0.00     0.028 C 
ATOM      5  C   LIG d   1     -23.918  83.988 113.148  0.00  0.00    -0.047 C 
ATOM      6  C   LIG d   1     -25.252  84.517 112.573  0.00  0.00     0.091 C 
ENDROOT
BRANCH   1   7
ATOM      7  O   LIG d   1     -26.552  86.571 112.261  0.00  0.00    -0.368 OA
BRANCH   7   8
ATOM      8  C   LIG d   1     -27.623  87.277 112.934  0.00  0.00     0.119 C 
BRANCH   8   9
ATOM      9  C   LIG d   1     -28.865  86.365 112.912  0.00  0.00     0.028 C 
ATOM     10  C   LIG d   1     -29.124  85.694 114.271  0.00  0.00     0.006 C 
ENDBRANCH   8   9
BRANCH   8  11
ATOM     11  C   LIG d   1     -28.031  88.536 112.162  0.00  0.00     0.028 C 
ATOM     12  C   LIG d   1     -26.860  89.171 111.395  0.00  0.00     0.006 C 
ENDBRANCH   8  11
ENDBRANCH   7   8
ENDBRANCH   1   7
BRANCH   6  13
ATOM     13  N   LIG d   1     -26.399  83.628 112.893  0.00  0.00    -0.311 N 
ATOM     14  C   LIG d   1     -27.300  83.240 111.991  0.00  0.00     0.210 C 
ATOM     15  C   LIG d   1     -28.413  82.340 112.535  0.00  0.00     0.109 C 
ATOM     16  O   LIG d   1     -27.264  83.531 110.786  0.00  0.00    -0.276 OA
ATOM     17  H   LIG d   1     -26.487  83.319 113.841  0.00  0.00     0.149 HD
ENDBRANCH   6  13
BRANCH   5  18
ATOM     18  N   LIG d   1     -23.508  82.698 112.563  0.00  0.00     0.381 N 
ATOM     19  H   LIG d   1     -22.854  82.854 111.823  0.00  0.00    -0.090 HD
ATOM     20  H   LIG d   1     -24.317  82.243 112.179  0.00  0.00    -0.090 HD
ATOM     21  H   LIG d   1     -23.096  82.121 113.264  0.00  0.00    -0.090 HD
ENDBRANCH   5  18
BRANCH   3  22
ATOM     22  C   LIG d   1     -22.108  87.153 113.627  0.00  0.00     0.382 C 
ATOM     23  O   LIG d   1     -22.340  88.115 114.398  0.00  0.00    -0.241 OA
ATOM     24  O   LIG d   1     -20.959  86.992 113.175  0.00  0.00    -0.241 OA
ENDBRANCH   3  22
TORSDOF 7
ENDMDL
MODEL 8
REMARK VINA RESULT:      -4.8     24.405     26.932
REMARK  7 active torsions:
REMARK  status: ('A' for Active; 'I' for Inactive)
REMARK    1  A    between atoms: C_2  and  C_3 
REMARK    2  A    between atoms: C_3  and  O_6 
REMARK    3  A    between atoms: C_3  and  C_4 
REMARK    4  A    between atoms: C_7  and  O_6 
REMARK    5  A    between atoms: C_9  and  C_10 
REMARK    6  A    between atoms: N_15  and  C_14 
REMARK    7  A    between atoms: N_20  and  C_19 
REMARK       I    between atoms: C_22  and  N_20 
ROOT
ATOM      1  C   LIG d   1     -25.202  85.184 114.555  0.00  0.00     0.161 C 
ATOM      2  C   LIG d   1     -24.280  86.233 114.398  0.00  0.00     0.016 C 
ATOM      3  C   LIG d   1     -23.106  86.127 113.618  0.00  0.00     0.038 C 
ATOM      4  C   LIG d   1     -22.849  85.007 112.813  0.00  0.00     0.028 C 
ATOM      5  C   LIG d   1     -23.495  83.727 113.332  0.00  0.00    -0.047 C 
ATOM      6  C   LIG d   1     -24.995  83.993 113.596  0.00  0.00     0.091 C 
ENDROOT
BRANCH   1   7
ATOM      7  O   LIG d   1     -26.545  85.693 114.439  0.00  0.00    -0.368 OA
BRANCH   7   8
ATOM      8  C   LIG d   1     -27.017  85.947 113.093  0.00  0.00     0.119 C 
BRANCH   8   9
ATOM      9  C   LIG d   1     -27.418  87.433 113.015  0.00  0.00     0.028 C 
ATOM     10  C   LIG d   1     -26.312  88.307 112.400  0.00  0.00     0.006 C 
ENDBRANCH   8   9
BRANCH   8  11
ATOM     11  C   LIG d   1     -28.300  85.165 112.796  0.00  0.00     0.028 C 
ATOM     12  C   LIG d   1     -28.915  84.529 114.053  0.00  0.00     0.006 C 
ENDBRANCH   8  11
ENDBRANCH   7   8
ENDBRANCH   1   7
BRANCH   6  13
ATOM     13  N   LIG d   1     -25.684  82.816 114.185  0.00  0.00    -0.311 N 
ATOM     14  C   LIG d   1     -26.404  81.954 113.470  0.00  0.00     0.210 C 
ATOM     15  C   LIG d   1     -27.047  80.822 114.277  0.00  0.00     0.109 C 
ATOM     16  O   LIG d   1     -26.545  82.001 112.238  0.00  0.00    -0.276 OA
ATOM     17  H   LIG d   1     -25.597  82.684 115.174  0.00  0.00     0.149 HD
ENDBRANCH   6  13
BRANCH   5  18
ATOM     18  N   LIG d   1     -23.263  82.672 112.329  0.00  0.00     0.381 N 
ATOM     19  H   LIG d   1     -22.282  82.493 112.245  0.00  0.00    -0.090 HD
ATOM     20  H   LIG d   1     -23.602  82.990 111.438  0.00  0.00    -0.090 HD
ATOM     21  H   LIG d   1     -23.738  81.838 112.595  0.00  0.00    -0.090 HD
ENDBRANCH   5  18
BRANCH   3  22
ATOM     22  C   LIG d   1     -22.154  87.134 113.669  0.00  0.00     0.382 C 
ATOM     23  O   LIG d   1     -22.422  88.222 114.233  0.00  0.00    -0.241 OA
ATOM     24  O   LIG d   1     -21.046  86.985 113.119  0.00  0.00    -0.241 OA
ENDBRANCH   3  22
TORSDOF 7
ENDMDL
MODEL 9
REMARK VINA RESULT:      -4.1     29.219     31.211
REMARK  7 active torsions:
REMARK  status: ('A' for Active; 'I' for Inactive)
REMARK    1  A    between atoms: C_2  and  C_3 
REMARK    2  A    between atoms: C_3  and  O_6 
REMARK    3  A    between atoms: C_3  and  C_4 
REMARK    4  A    between atoms: C_7  and  O_6 
REMARK    5  A    between atoms: C_9  and  C_10 
REMARK    6  A    between atoms: N_15  and  C_14 
REMARK    7  A    between atoms: N_20  and  C_19 
REMARK       I    between atoms: C_22  and  N_20 
ROOT
ATOM      1  C   LIG d   1     -27.314  72.332 109.045  0.00  0.00     0.161 C 
ATOM      2  C   LIG d   1     -26.709  71.077 108.864  0.00  0.00     0.016 C 
ATOM      3  C   LIG d   1     -27.172  70.116 107.936  0.00  0.00     0.038 C 
ATOM      4  C   LIG d   1     -28.187  70.407 107.012  0.00  0.00     0.028 C 
ATOM      5  C   LIG d   1     -29.158  71.478 107.497  0.00  0.00    -0.047 C 
ATOM      6  C   LIG d   1     -28.353  72.710 107.969  0.00  0.00     0.091 C 
ENDROOT
BRANCH   1   7
ATOM      7  O   LIG d   1     -26.301  73.353 109.143  0.00  0.00    -0.368 OA
BRANCH   7   8
ATOM      8  C   LIG d   1     -26.037  73.862 110.474  0.00  0.00     0.119 C 
BRANCH   8   9
ATOM      9  C   LIG d   1     -27.231  73.470 111.365  0.00  0.00     0.028 C 
ATOM     10  C   LIG d   1     -26.789  72.961 112.748  0.00  0.00     0.006 C 
ENDBRANCH   8   9
BRANCH   8  11
ATOM     11  C   LIG d   1     -26.005  75.393 110.488  0.00  0.00     0.028 C 
ATOM     12  C   LIG d   1     -24.786  75.957 111.234  0.00  0.00     0.006 C 
ENDBRANCH   8  11
ENDBRANCH   7   8
ENDBRANCH   1   7
BRANCH   6  13
ATOM     13  N   LIG d   1     -29.223  73.772 108.537  0.00  0.00    -0.311 N 
ATOM     14  C   LIG d   1     -29.057  75.069 108.285  0.00  0.00     0.210 C 
ATOM     15  C   LIG d   1     -30.052  75.998 108.988  0.00  0.00     0.109 C 
ATOM     16  O   LIG d   1     -28.200  75.536 107.520  0.00  0.00    -0.276 OA
ATOM     17  H   LIG d   1     -29.963  73.479 109.144  0.00  0.00     0.149 HD
ENDBRANCH   6  13
BRANCH   5  18
ATOM     18  N   LIG d   1     -30.079  71.780 106.385  0.00  0.00     0.381 N 
ATOM     19  H   LIG d   1     -29.793  72.622 105.927  0.00  0.00    -0.090 HD
ATOM     20  H   LIG d   1     -31.002  71.921 106.756  0.00  0.00    -0.090 HD
ATOM     21  H   LIG d   1     -30.087  71.026 105.734  0.00  0.00    -0.090 HD
ENDBRANCH   5  18
BRANCH   3  22
ATOM     22  C   LIG d   1     -26.644  68.834 107.952  0.00  0.00     0.382 C 
ATOM     23  O   LIG d   1     -27.024  68.011 108.820  0.00  0.00    -0.241 OA
ATOM     24  O   LIG d   1     -25.760  68.504 107.139  0.00  0.00    -0.241 OA
ENDBRANCH   3  22
TORSDOF 7
ENDMDL
