MODEL 1
REMARK VINA RESULT:      -7.1      0.000      0.000
REMARK  7 active torsions:
REMARK  status: ('A' for Active; 'I' for Inactive)
REMARK    1  A    between atoms: C_2  and  C_3 
REMARK    2  A    between atoms: C_3  and  O_6 
REMARK    3  A    between atoms: C_3  and  C_4 
REMARK    4  A    between atoms: C_7  and  O_6 
REMARK    5  A    between atoms: C_9  and  C_10 
REMARK    6  A    between atoms: N_15  and  C_14 
REMARK    7  A    between atoms: N_20  and  C_19 
REMARK       I    between atoms: C_22  and  N_20 
ROOT
ATOM      1  C   LIG d   1       1.861  82.396 111.698  0.00  0.00     0.161 C 
ATOM      2  C   LIG d   1       2.858  82.586 110.727  0.00  0.00     0.016 C 
ATOM      3  C   LIG d   1       2.818  81.994 109.444  0.00  0.00     0.038 C 
ATOM      4  C   LIG d   1       1.695  81.288 108.988  0.00  0.00     0.028 C 
ATOM      5  C   LIG d   1       0.885  80.648 110.110  0.00  0.00    -0.047 C 
ATOM      6  C   LIG d   1       0.574  81.720 111.180  0.00  0.00     0.091 C 
ENDROOT
BRANCH   1   7
ATOM      7  O   LIG d   1       1.547  83.654 112.329  0.00  0.00    -0.368 OA
BRANCH   7   8
ATOM      8  C   LIG d   1       1.357  84.782 111.440  0.00  0.00     0.119 C 
BRANCH   8   9
ATOM      9  C   LIG d   1       2.268  85.922 111.938  0.00  0.00     0.028 C 
ATOM     10  C   LIG d   1       3.593  85.996 111.161  0.00  0.00     0.006 C 
ENDBRANCH   8   9
BRANCH   8  11
ATOM     11  C   LIG d   1      -0.069  85.332 111.535  0.00  0.00     0.028 C 
ATOM     12  C   LIG d   1      -0.778  85.385 110.172  0.00  0.00     0.006 C 
ENDBRANCH   8  11
ENDBRANCH   7   8
ENDBRANCH   1   7
BRANCH   6  13
ATOM     13  N   LIG d   1      -0.144  81.159 112.354  0.00  0.00    -0.311 N 
ATOM     14  C   LIG d   1      -1.396  81.482 112.671  0.00  0.00     0.210 C 
ATOM     15  C   LIG d   1      -1.939  80.804 113.932  0.00  0.00     0.109 C 
ATOM     16  O   LIG d   1      -2.120  82.241 112.009  0.00  0.00    -0.276 OA
ATOM     17  H   LIG d   1       0.359  80.510 112.928  0.00  0.00     0.149 HD
ENDBRANCH   6  13
BRANCH   5  18
ATOM     18  N   LIG d   1      -0.329  80.065 109.507  0.00  0.00     0.381 N 
ATOM     19  H   LIG d   1      -0.691  80.683 108.809  0.00  0.00    -0.090 HD
ATOM     20  H   LIG d   1      -1.026  79.953 110.222  0.00  0.00    -0.090 HD
ATOM     21  H   LIG d   1      -0.116  79.180 109.101  0.00  0.00    -0.090 HD
ENDBRANCH   5  18
BRANCH   3  22
ATOM     22  C   LIG d   1       3.928  82.072 108.616  0.00  0.00     0.382 C 
ATOM     23  O   LIG d   1       4.239  81.096 107.891  0.00  0.00    -0.241 OA
ATOM     24  O   LIG d   1       4.648  83.088 108.619  0.00  0.00    -0.241 OA
ENDBRANCH   3  22
TORSDOF 7
ENDMDL
MODEL 2
REMARK VINA RESULT:      -6.7      2.426      5.502
REMARK  7 active torsions:
REMARK  status: ('A' for Active; 'I' for Inactive)
REMARK    1  A    between atoms: C_2  and  C_3 
REMARK    2  A    between atoms: C_3  and  O_6 
REMARK    3  A    between atoms: C_3  and  C_4 
REMARK    4  A    between atoms: C_7  and  O_6 
REMARK    5  A    between atoms: C_9  and  C_10 
REMARK    6  A    between atoms: N_15  and  C_14 
REMARK    7  A    between atoms: N_20  and  C_19 
REMARK       I    between atoms: C_22  and  N_20 
ROOT
ATOM      1  C   LIG d   1       1.748  83.121 112.343  0.00  0.00     0.161 C 
ATOM      2  C   LIG d   1       0.739  82.144 112.295  0.00  0.00     0.016 C 
ATOM      3  C   LIG d   1      -0.587  82.415 111.886  0.00  0.00     0.038 C 
ATOM      4  C   LIG d   1      -0.958  83.656 111.348  0.00  0.00     0.028 C 
ATOM      5  C   LIG d   1      -0.100  84.814 111.848  0.00  0.00    -0.047 C 
ATOM      6  C   LIG d   1       1.390  84.454 111.654  0.00  0.00     0.091 C 
ENDROOT
BRANCH   1   7
ATOM      7  O   LIG d   1       2.971  82.587 111.796  0.00  0.00    -0.368 OA
BRANCH   7   8
ATOM      8  C   LIG d   1       3.052  82.533 110.350  0.00  0.00     0.119 C 
BRANCH   8   9
ATOM      9  C   LIG d   1       3.236  81.056 109.952  0.00  0.00     0.028 C 
ATOM     10  C   LIG d   1       1.999  80.482 109.241  0.00  0.00     0.006 C 
ENDBRANCH   8   9
BRANCH   8  11
ATOM     11  C   LIG d   1       4.303  83.250 109.836  0.00  0.00     0.028 C 
ATOM     12  C   LIG d   1       4.591  82.958 108.354  0.00  0.00     0.006 C 
ENDBRANCH   8  11
ENDBRANCH   7   8
ENDBRANCH   1   7
BRANCH   6  13
ATOM     13  N   LIG d   1       2.300  85.498 112.195  0.00  0.00    -0.311 N 
ATOM     14  C   LIG d   1       2.756  86.519 111.472  0.00  0.00     0.210 C 
ATOM     15  C   LIG d   1       3.698  87.470 112.217  0.00  0.00     0.109 C 
ATOM     16  O   LIG d   1       2.443  86.746 110.293  0.00  0.00    -0.276 OA
ATOM     17  H   LIG d   1       2.579  85.408 113.152  0.00  0.00     0.149 HD
ENDBRANCH   6  13
BRANCH   5  18
ATOM     18  N   LIG d   1      -0.506  86.022 111.105  0.00  0.00     0.381 N 
ATOM     19  H   LIG d   1       0.295  86.436 110.671  0.00  0.00    -0.090 HD
ATOM     20  H   LIG d   1      -0.893  86.686 111.752  0.00  0.00    -0.090 HD
ATOM     21  H   LIG d   1      -1.183  85.786 110.414  0.00  0.00    -0.090 HD
ENDBRANCH   5  18
BRANCH   3  22
ATOM     22  C   LIG d   1      -1.567  81.448 112.051  0.00  0.00     0.382 C 
ATOM     23  O   LIG d   1      -1.314  80.247 111.789  0.00  0.00    -0.241 OA
ATOM     24  O   LIG d   1      -2.715  81.768 112.414  0.00  0.00    -0.241 OA
ENDBRANCH   3  22
TORSDOF 7
ENDMDL
MODEL 3
REMARK VINA RESULT:      -6.6      1.493      5.002
REMARK  7 active torsions:
REMARK  status: ('A' for Active; 'I' for Inactive)
REMARK    1  A    between atoms: C_2  and  C_3 
REMARK    2  A    between atoms: C_3  and  O_6 
REMARK    3  A    between atoms: C_3  and  C_4 
REMARK    4  A    between atoms: C_7  and  O_6 
REMARK    5  A    between atoms: C_9  and  C_10 
REMARK    6  A    between atoms: N_15  and  C_14 
REMARK    7  A    between atoms: N_20  and  C_19 
REMARK       I    between atoms: C_22  and  N_20 
ROOT
ATOM      1  C   LIG d   1       0.183  82.887 111.113  0.00  0.00     0.161 C 
ATOM      2  C   LIG d   1      -0.867  82.632 112.010  0.00  0.00     0.016 C 
ATOM      3  C   LIG d   1      -1.444  81.353 112.189  0.00  0.00     0.038 C 
ATOM      4  C   LIG d   1      -0.903  80.206 111.590  0.00  0.00     0.028 C 
ATOM      5  C   LIG d   1      -0.162  80.494 110.289  0.00  0.00    -0.047 C 
ATOM      6  C   LIG d   1       0.859  81.627 110.533  0.00  0.00     0.091 C 
ENDROOT
BRANCH   1   7
ATOM      7  O   LIG d   1       1.164  83.738 111.739  0.00  0.00    -0.368 OA
BRANCH   7   8
ATOM      8  C   LIG d   1       1.242  85.096 111.239  0.00  0.00     0.119 C 
BRANCH   8   9
ATOM      9  C   LIG d   1       0.170  85.247 110.142  0.00  0.00     0.028 C 
ATOM     10  C   LIG d   1       0.784  85.414 108.741  0.00  0.00     0.006 C 
ENDBRANCH   8   9
BRANCH   8  11
ATOM     11  C   LIG d   1       2.579  85.355 110.538  0.00  0.00     0.028 C 
ATOM     12  C   LIG d   1       3.789  84.959 111.399  0.00  0.00     0.006 C 
ENDBRANCH   8  11
ENDBRANCH   7   8
ENDBRANCH   1   7
BRANCH   6  13
ATOM     13  N   LIG d   1       1.569  82.029 109.291  0.00  0.00    -0.311 N 
ATOM     14  C   LIG d   1       2.895  82.032 109.172  0.00  0.00     0.210 C 
ATOM     15  C   LIG d   1       3.422  82.501 107.812  0.00  0.00     0.109 C 
ATOM     16  O   LIG d   1       3.685  81.661 110.053  0.00  0.00    -0.276 OA
ATOM     17  H   LIG d   1       1.004  82.315 108.515  0.00  0.00     0.149 HD
ENDBRANCH   6  13
BRANCH   5  18
ATOM     18  N   LIG d   1       0.466  79.235 109.845  0.00  0.00     0.381 N 
ATOM     19  H   LIG d   1       1.443  79.380 109.692  0.00  0.00    -0.090 HD
ATOM     20  H   LIG d   1       0.048  78.952 108.976  0.00  0.00    -0.090 HD
ATOM     21  H   LIG d   1       0.332  78.526 110.533  0.00  0.00    -0.090 HD
ENDBRANCH   5  18
BRANCH   3  22
ATOM     22  C   LIG d   1      -2.599  81.220 112.945  0.00  0.00     0.382 C 
ATOM     23  O   LIG d   1      -3.712  81.515 112.446  0.00  0.00    -0.241 OA
ATOM     24  O   LIG d   1      -2.537  80.850 114.133  0.00  0.00    -0.241 OA
ENDBRANCH   3  22
TORSDOF 7
ENDMDL
MODEL 4
REMARK VINA RESULT:      -6.0      1.956      5.012
REMARK  7 active torsions:
REMARK  status: ('A' for Active; 'I' for Inactive)
REMARK    1  A    between atoms: C_2  and  C_3 
REMARK    2  A    between atoms: C_3  and  O_6 
REMARK    3  A    between atoms: C_3  and  C_4 
REMARK    4  A    between atoms: C_7  and  O_6 
REMARK    5  A    between atoms: C_9  and  C_10 
REMARK    6  A    between atoms: N_15  and  C_14 
REMARK    7  A    between atoms: N_20  and  C_19 
REMARK       I    between atoms: C_22  and  N_20 
ROOT
ATOM      1  C   LIG d   1       1.342  82.460 111.681  0.00  0.00     0.161 C 
ATOM      2  C   LIG d   1       0.225  82.234 112.501  0.00  0.00     0.016 C 
ATOM      3  C   LIG d   1      -0.749  81.244 112.235  0.00  0.00     0.038 C 
ATOM      4  C   LIG d   1      -0.589  80.305 111.205  0.00  0.00     0.028 C 
ATOM      5  C   LIG d   1       0.266  80.814 110.050  0.00  0.00    -0.047 C 
ATOM      6  C   LIG d   1       1.592  81.373 110.615  0.00  0.00     0.091 C 
ENDROOT
BRANCH   1   7
ATOM      7  O   LIG d   1       2.518  82.643 112.495  0.00  0.00    -0.368 OA
BRANCH   7   8
ATOM      8  C   LIG d   1       2.977  84.007 112.654  0.00  0.00     0.119 C 
BRANCH   8   9
ATOM      9  C   LIG d   1       4.016  84.278 111.548  0.00  0.00     0.028 C 
ATOM     10  C   LIG d   1       3.534  85.330 110.535  0.00  0.00     0.006 C 
ENDBRANCH   8   9
BRANCH   8  11
ATOM     11  C   LIG d   1       3.733  84.191 113.973  0.00  0.00     0.028 C 
ATOM     12  C   LIG d   1       4.140  85.651 114.229  0.00  0.00     0.006 C 
ENDBRANCH   8  11
ENDBRANCH   7   8
ENDBRANCH   1   7
BRANCH   6  13
ATOM     13  N   LIG d   1       2.452  81.967 109.559  0.00  0.00    -0.311 N 
ATOM     14  C   LIG d   1       3.386  81.282 108.901  0.00  0.00     0.210 C 
ATOM     15  C   LIG d   1       4.174  82.091 107.866  0.00  0.00     0.109 C 
ATOM     16  O   LIG d   1       3.614  80.072 109.054  0.00  0.00    -0.276 OA
ATOM     17  H   LIG d   1       2.313  82.936 109.349  0.00  0.00     0.149 HD
ENDBRANCH   6  13
BRANCH   5  18
ATOM     18  N   LIG d   1       0.465  79.690 109.114  0.00  0.00     0.381 N 
ATOM     19  H   LIG d   1       1.420  79.660 108.819  0.00  0.00    -0.090 HD
ATOM     20  H   LIG d   1      -0.112  79.836 108.304  0.00  0.00    -0.090 HD
ATOM     21  H   LIG d   1       0.219  78.832 109.556  0.00  0.00    -0.090 HD
ENDBRANCH   5  18
BRANCH   3  22
ATOM     22  C   LIG d   1      -1.918  81.212 112.980  0.00  0.00     0.382 C 
ATOM     23  O   LIG d   1      -2.977  81.689 112.506  0.00  0.00    -0.241 OA
ATOM     24  O   LIG d   1      -1.916  80.752 114.138  0.00  0.00    -0.241 OA
ENDBRANCH   3  22
TORSDOF 7
ENDMDL
MODEL 5
REMARK VINA RESULT:      -5.7      1.748      5.063
REMARK  7 active torsions:
REMARK  status: ('A' for Active; 'I' for Inactive)
REMARK    1  A    between atoms: C_2  and  C_3 
REMARK    2  A    between atoms: C_3  and  O_6 
REMARK    3  A    between atoms: C_3  and  C_4 
REMARK    4  A    between atoms: C_7  and  O_6 
REMARK    5  A    between atoms: C_9  and  C_10 
REMARK    6  A    between atoms: N_15  and  C_14 
REMARK    7  A    between atoms: N_20  and  C_19 
REMARK       I    between atoms: C_22  and  N_20 
ROOT
ATOM      1  C   LIG d   1       0.218  83.033 111.342  0.00  0.00     0.161 C 
ATOM      2  C   LIG d   1      -0.841  82.697 112.202  0.00  0.00     0.016 C 
ATOM      3  C   LIG d   1      -1.412  81.405 112.266  0.00  0.00     0.038 C 
ATOM      4  C   LIG d   1      -0.858  80.315 111.577  0.00  0.00     0.028 C 
ATOM      5  C   LIG d   1      -0.105  80.716 110.313  0.00  0.00    -0.047 C 
ATOM      6  C   LIG d   1       0.907  81.830 110.665  0.00  0.00     0.091 C 
ENDROOT
BRANCH   1   7
ATOM      7  O   LIG d   1       1.186  83.833 112.049  0.00  0.00    -0.368 OA
BRANCH   7   8
ATOM      8  C   LIG d   1       2.429  83.173 112.393  0.00  0.00     0.119 C 
BRANCH   8   9
ATOM      9  C   LIG d   1       2.470  83.034 113.928  0.00  0.00     0.028 C 
ATOM     10  C   LIG d   1       3.646  83.801 114.555  0.00  0.00     0.006 C 
ENDBRANCH   8   9
BRANCH   8  11
ATOM     11  C   LIG d   1       3.639  84.039 112.032  0.00  0.00     0.028 C 
ATOM     12  C   LIG d   1       3.286  85.186 111.072  0.00  0.00     0.006 C 
ENDBRANCH   8  11
ENDBRANCH   7   8
ENDBRANCH   1   7
BRANCH   6  13
ATOM     13  N   LIG d   1       1.627  82.340 109.468  0.00  0.00    -0.311 N 
ATOM     14  C   LIG d   1       2.830  81.906 109.097  0.00  0.00     0.210 C 
ATOM     15  C   LIG d   1       3.402  82.578 107.844  0.00  0.00     0.109 C 
ATOM     16  O   LIG d   1       3.465  81.005 109.667  0.00  0.00    -0.276 OA
ATOM     17  H   LIG d   1       1.171  83.050 108.930  0.00  0.00     0.149 HD
ENDBRANCH   6  13
BRANCH   5  18
ATOM     18  N   LIG d   1       0.535  79.503 109.772  0.00  0.00     0.381 N 
ATOM     19  H   LIG d   1       0.608  78.809 110.489  0.00  0.00    -0.090 HD
ATOM     20  H   LIG d   1       1.462  79.735 109.462  0.00  0.00    -0.090 HD
ATOM     21  H   LIG d   1       0.002  79.147 109.009  0.00  0.00    -0.090 HD
ENDBRANCH   5  18
BRANCH   3  22
ATOM     22  C   LIG d   1      -2.574  81.202 112.995  0.00  0.00     0.382 C 
ATOM     23  O   LIG d   1      -2.533  80.567 114.076  0.00  0.00    -0.241 OA
ATOM     24  O   LIG d   1      -3.669  81.607 112.562  0.00  0.00    -0.241 OA
ENDBRANCH   3  22
TORSDOF 7
ENDMDL
MODEL 6
REMARK VINA RESULT:      -5.1      1.882      4.788
REMARK  7 active torsions:
REMARK  status: ('A' for Active; 'I' for Inactive)
REMARK    1  A    between atoms: C_2  and  C_3 
REMARK    2  A    between atoms: C_3  and  O_6 
REMARK    3  A    between atoms: C_3  and  C_4 
REMARK    4  A    between atoms: C_7  and  O_6 
REMARK    5  A    between atoms: C_9  and  C_10 
REMARK    6  A    between atoms: N_15  and  C_14 
REMARK    7  A    between atoms: N_20  and  C_19 
REMARK       I    between atoms: C_22  and  N_20 
ROOT
ATOM      1  C   LIG d   1       0.831  82.573 111.629  0.00  0.00     0.161 C 
ATOM      2  C   LIG d   1      -0.340  82.410 112.387  0.00  0.00     0.016 C 
ATOM      3  C   LIG d   1      -1.188  81.284 112.277  0.00  0.00     0.038 C 
ATOM      4  C   LIG d   1      -0.839  80.166 111.505  0.00  0.00     0.028 C 
ATOM      5  C   LIG d   1       0.082  80.500 110.337  0.00  0.00    -0.047 C 
ATOM      6  C   LIG d   1       1.286  81.313 110.863  0.00  0.00     0.091 C 
ENDROOT
BRANCH   1   7
ATOM      7  O   LIG d   1       1.895  83.059 112.472  0.00  0.00    -0.368 OA
BRANCH   7   8
ATOM      8  C   LIG d   1       2.289  84.438 112.269  0.00  0.00     0.119 C 
BRANCH   8   9
ATOM      9  C   LIG d   1       1.335  85.043 111.222  0.00  0.00     0.028 C 
ATOM     10  C   LIG d   1       0.454  86.160 111.807  0.00  0.00     0.006 C 
ENDBRANCH   8   9
BRANCH   8  11
ATOM     11  C   LIG d   1       3.686  84.532 111.647  0.00  0.00     0.028 C 
ATOM     12  C   LIG d   1       3.988  85.924 111.069  0.00  0.00     0.006 C 
ENDBRANCH   8  11
ENDBRANCH   7   8
ENDBRANCH   1   7
BRANCH   6  13
ATOM     13  N   LIG d   1       2.194  81.754 109.772  0.00  0.00    -0.311 N 
ATOM     14  C   LIG d   1       1.841  82.631 108.834  0.00  0.00     0.210 C 
ATOM     15  C   LIG d   1       2.921  82.932 107.790  0.00  0.00     0.109 C 
ATOM     16  O   LIG d   1       0.747  83.213 108.786  0.00  0.00    -0.276 OA
ATOM     17  H   LIG d   1       3.112  81.355 109.753  0.00  0.00     0.149 HD
ENDBRANCH   6  13
BRANCH   5  18
ATOM     18  N   LIG d   1       0.476  79.228 109.702  0.00  0.00     0.381 N 
ATOM     19  H   LIG d   1      -0.115  78.490 110.028  0.00  0.00    -0.090 HD
ATOM     20  H   LIG d   1       1.422  79.014 109.963  0.00  0.00    -0.090 HD
ATOM     21  H   LIG d   1       0.406  79.306 108.711  0.00  0.00    -0.090 HD
ENDBRANCH   5  18
BRANCH   3  22
ATOM     22  C   LIG d   1      -2.420  81.286 112.914  0.00  0.00     0.382 C 
ATOM     23  O   LIG d   1      -2.496  80.997 114.132  0.00  0.00    -0.241 OA
ATOM     24  O   LIG d   1      -3.461  81.531 112.275  0.00  0.00    -0.241 OA
ENDBRANCH   3  22
TORSDOF 7
ENDMDL
MODEL 7
REMARK VINA RESULT:      -5.1      2.502      5.277
REMARK  7 active torsions:
REMARK  status: ('A' for Active; 'I' for Inactive)
REMARK    1  A    between atoms: C_2  and  C_3 
REMARK    2  A    between atoms: C_3  and  O_6 
REMARK    3  A    between atoms: C_3  and  C_4 
REMARK    4  A    between atoms: C_7  and  O_6 
REMARK    5  A    between atoms: C_9  and  C_10 
REMARK    6  A    between atoms: N_15  and  C_14 
REMARK    7  A    between atoms: N_20  and  C_19 
REMARK       I    between atoms: C_22  and  N_20 
ROOT
ATOM      1  C   LIG d   1       2.699  83.679 111.274  0.00  0.00     0.161 C 
ATOM      2  C   LIG d   1       2.703  84.846 112.056  0.00  0.00     0.016 C 
ATOM      3  C   LIG d   1       2.218  86.092 111.596  0.00  0.00     0.038 C 
ATOM      4  C   LIG d   1       1.553  86.221 110.368  0.00  0.00     0.028 C 
ATOM      5  C   LIG d   1       1.976  85.180 109.337  0.00  0.00    -0.047 C 
ATOM      6  C   LIG d   1       1.876  83.775 109.973  0.00  0.00     0.091 C 
ENDROOT
BRANCH   1   7
ATOM      7  O   LIG d   1       2.254  82.561 112.068  0.00  0.00    -0.368 OA
BRANCH   7   8
ATOM      8  C   LIG d   1       1.108  82.802 112.921  0.00  0.00     0.119 C 
BRANCH   8   9
ATOM      9  C   LIG d   1       1.326  82.008 114.224  0.00  0.00     0.028 C 
ATOM     10  C   LIG d   1       2.816  81.821 114.555  0.00  0.00     0.006 C 
ENDBRANCH   8   9
BRANCH   8  11
ATOM     11  C   LIG d   1      -0.174  82.230 112.308  0.00  0.00     0.028 C 
ATOM     12  C   LIG d   1       0.089  81.016 111.403  0.00  0.00     0.006 C 
ENDBRANCH   8  11
ENDBRANCH   7   8
ENDBRANCH   1   7
BRANCH   6  13
ATOM     13  N   LIG d   1       2.352  82.704 109.059  0.00  0.00    -0.311 N 
ATOM     14  C   LIG d   1       3.627  82.557 108.704  0.00  0.00     0.210 C 
ATOM     15  C   LIG d   1       3.900  81.401 107.737  0.00  0.00     0.109 C 
ATOM     16  O   LIG d   1       4.563  83.255 109.123  0.00  0.00    -0.276 OA
ATOM     17  H   LIG d   1       1.664  82.073 108.697  0.00  0.00     0.149 HD
ENDBRANCH   6  13
BRANCH   5  18
ATOM     18  N   LIG d   1       1.108  85.344 108.156  0.00  0.00     0.381 N 
ATOM     19  H   LIG d   1       0.166  85.510 108.449  0.00  0.00    -0.090 HD
ATOM     20  H   LIG d   1       1.126  84.494 107.619  0.00  0.00    -0.090 HD
ATOM     21  H   LIG d   1       1.430  86.104 107.599  0.00  0.00    -0.090 HD
ENDBRANCH   5  18
BRANCH   3  22
ATOM     22  C   LIG d   1       2.433  87.234 112.352  0.00  0.00     0.382 C 
ATOM     23  O   LIG d   1       2.360  88.365 111.814  0.00  0.00    -0.241 OA
ATOM     24  O   LIG d   1       2.742  87.147 113.556  0.00  0.00    -0.241 OA
ENDBRANCH   3  22
TORSDOF 7
ENDMDL
MODEL 8
REMARK VINA RESULT:      -4.8      2.401      4.228
REMARK  7 active torsions:
REMARK  status: ('A' for Active; 'I' for Inactive)
REMARK    1  A    between atoms: C_2  and  C_3 
REMARK    2  A    between atoms: C_3  and  O_6 
REMARK    3  A    between atoms: C_3  and  C_4 
REMARK    4  A    between atoms: C_7  and  O_6 
REMARK    5  A    between atoms: C_9  and  C_10 
REMARK    6  A    between atoms: N_15  and  C_14 
REMARK    7  A    between atoms: N_20  and  C_19 
REMARK       I    between atoms: C_22  and  N_20 
ROOT
ATOM      1  C   LIG d   1       1.247  82.715 110.140  0.00  0.00     0.161 C 
ATOM      2  C   LIG d   1       1.094  81.394 109.688  0.00  0.00     0.016 C 
ATOM      3  C   LIG d   1       2.142  80.646 109.103  0.00  0.00     0.038 C 
ATOM      4  C   LIG d   1       3.462  81.120 109.069  0.00  0.00     0.028 C 
ATOM      5  C   LIG d   1       3.559  82.642 109.056  0.00  0.00    -0.047 C 
ATOM      6  C   LIG d   1       2.707  83.210 110.213  0.00  0.00     0.091 C 
ENDROOT
BRANCH   1   7
ATOM      7  O   LIG d   1       0.600  82.871 111.419  0.00  0.00    -0.368 OA
BRANCH   7   8
ATOM      8  C   LIG d   1      -0.801  83.235 111.385  0.00  0.00     0.119 C 
BRANCH   8   9
ATOM      9  C   LIG d   1      -0.909  84.706 111.832  0.00  0.00     0.028 C 
ATOM     10  C   LIG d   1      -0.881  85.684 110.646  0.00  0.00     0.006 C 
ENDBRANCH   8   9
BRANCH   8  11
ATOM     11  C   LIG d   1      -1.610  82.439 112.413  0.00  0.00     0.028 C 
ATOM     12  C   LIG d   1      -0.855  81.208 112.940  0.00  0.00     0.006 C 
ENDBRANCH   8  11
ENDBRANCH   7   8
ENDBRANCH   1   7
BRANCH   6  13
ATOM     13  N   LIG d   1       2.678  84.696 110.221  0.00  0.00    -0.311 N 
ATOM     14  C   LIG d   1       2.709  85.424 111.336  0.00  0.00     0.210 C 
ATOM     15  C   LIG d   1       2.651  86.939 111.120  0.00  0.00     0.109 C 
ATOM     16  O   LIG d   1       2.811  84.960 112.481  0.00  0.00    -0.276 OA
ATOM     17  H   LIG d   1       2.628  85.155 109.333  0.00  0.00     0.149 HD
ENDBRANCH   6  13
BRANCH   5  18
ATOM     18  N   LIG d   1       4.987  82.999 109.160  0.00  0.00     0.381 N 
ATOM     19  H   LIG d   1       5.535  82.364 108.614  0.00  0.00    -0.090 HD
ATOM     20  H   LIG d   1       5.273  82.917 110.120  0.00  0.00    -0.090 HD
ATOM     21  H   LIG d   1       5.129  83.932 108.841  0.00  0.00    -0.090 HD
ENDBRANCH   5  18
BRANCH   3  22
ATOM     22  C   LIG d   1       1.866  79.425 108.508  0.00  0.00     0.382 C 
ATOM     23  O   LIG d   1       2.737  78.522 108.495  0.00  0.00    -0.241 OA
ATOM     24  O   LIG d   1       0.772  79.230 107.945  0.00  0.00    -0.241 OA
ENDBRANCH   3  22
TORSDOF 7
ENDMDL
