MODEL 1
REMARK VINA RESULT:      -6.8      0.000      0.000
REMARK  7 active torsions:
REMARK  status: ('A' for Active; 'I' for Inactive)
REMARK    1  A    between atoms: C_2  and  C_3 
REMARK    2  A    between atoms: C_3  and  O_6 
REMARK    3  A    between atoms: C_3  and  C_4 
REMARK    4  A    between atoms: C_7  and  O_6 
REMARK    5  A    between atoms: C_9  and  C_10 
REMARK    6  A    between atoms: N_15  and  C_14 
REMARK    7  A    between atoms: N_20  and  C_19 
REMARK       I    between atoms: C_22  and  N_20 
ROOT
ATOM      1  C   LIG d   1       0.844  83.796 109.692  0.00  0.00     0.161 C 
ATOM      2  C   LIG d   1       0.492  85.072 110.163  0.00  0.00     0.016 C 
ATOM      3  C   LIG d   1      -0.359  85.285 111.271  0.00  0.00     0.038 C 
ATOM      4  C   LIG d   1      -0.799  84.228 112.082  0.00  0.00     0.028 C 
ATOM      5  C   LIG d   1      -0.880  82.894 111.348  0.00  0.00    -0.047 C 
ATOM      6  C   LIG d   1       0.464  82.632 110.632  0.00  0.00     0.091 C 
ENDROOT
BRANCH   1   7
ATOM      7  O   LIG d   1       2.253  83.757 109.391  0.00  0.00    -0.368 OA
BRANCH   7   8
ATOM      8  C   LIG d   1       3.138  83.524 110.515  0.00  0.00     0.119 C 
BRANCH   8   9
ATOM      9  C   LIG d   1       3.683  84.893 110.966  0.00  0.00     0.028 C 
ATOM     10  C   LIG d   1       3.447  85.154 112.464  0.00  0.00     0.006 C 
ENDBRANCH   8   9
BRANCH   8  11
ATOM     11  C   LIG d   1       4.370  82.716 110.095  0.00  0.00     0.028 C 
ATOM     12  C   LIG d   1       4.292  82.222 108.642  0.00  0.00     0.006 C 
ENDBRANCH   8  11
ENDBRANCH   7   8
ENDBRANCH   1   7
BRANCH   6  13
ATOM     13  N   LIG d   1       0.441  81.388 109.820  0.00  0.00    -0.311 N 
ATOM     14  C   LIG d   1       1.252  80.354 110.039  0.00  0.00     0.210 C 
ATOM     15  C   LIG d   1       1.076  79.178 109.073  0.00  0.00     0.109 C 
ATOM     16  O   LIG d   1       2.078  80.287 110.962  0.00  0.00    -0.276 OA
ATOM     17  H   LIG d   1      -0.220  81.345 109.069  0.00  0.00     0.149 HD
ENDBRANCH   6  13
BRANCH   5  18
ATOM     18  N   LIG d   1      -1.217  81.858 112.342  0.00  0.00     0.381 N 
ATOM     19  H   LIG d   1      -0.459  81.211 112.428  0.00  0.00    -0.090 HD
ATOM     20  H   LIG d   1      -2.027  81.354 112.025  0.00  0.00    -0.090 HD
ATOM     21  H   LIG d   1      -1.405  82.280 113.224  0.00  0.00    -0.090 HD
ENDBRANCH   5  18
BRANCH   3  22
ATOM     22  C   LIG d   1      -0.812  86.564 111.554  0.00  0.00     0.382 C 
ATOM     23  O   LIG d   1       0.004  87.462 111.873  0.00  0.00    -0.241 OA
ATOM     24  O   LIG d   1      -2.031  86.821 111.536  0.00  0.00    -0.241 OA
ENDBRANCH   3  22
TORSDOF 7
ENDMDL
MODEL 2
REMARK VINA RESULT:      -6.3      2.201      4.582
REMARK  7 active torsions:
REMARK  status: ('A' for Active; 'I' for Inactive)
REMARK    1  A    between atoms: C_2  and  C_3 
REMARK    2  A    between atoms: C_3  and  O_6 
REMARK    3  A    between atoms: C_3  and  C_4 
REMARK    4  A    between atoms: C_7  and  O_6 
REMARK    5  A    between atoms: C_9  and  C_10 
REMARK    6  A    between atoms: N_15  and  C_14 
REMARK    7  A    between atoms: N_20  and  C_19 
REMARK       I    between atoms: C_22  and  N_20 
ROOT
ATOM      1  C   LIG d   1       1.679  82.741 111.960  0.00  0.00     0.161 C 
ATOM      2  C   LIG d   1       2.560  82.926 110.881  0.00  0.00     0.016 C 
ATOM      3  C   LIG d   1       2.421  82.263 109.640  0.00  0.00     0.038 C 
ATOM      4  C   LIG d   1       1.298  81.479 109.340  0.00  0.00     0.028 C 
ATOM      5  C   LIG d   1       0.643  80.862 110.572  0.00  0.00    -0.047 C 
ATOM      6  C   LIG d   1       0.385  81.975 111.613  0.00  0.00     0.091 C 
ENDROOT
BRANCH   1   7
ATOM      7  O   LIG d   1       1.363  84.014 112.556  0.00  0.00    -0.368 OA
BRANCH   7   8
ATOM      8  C   LIG d   1       1.648  85.184 111.751  0.00  0.00     0.119 C 
BRANCH   8   9
ATOM      9  C   LIG d   1       2.296  86.235 112.674  0.00  0.00     0.028 C 
ATOM     10  C   LIG d   1       3.603  86.799 112.094  0.00  0.00     0.006 C 
ENDBRANCH   8   9
BRANCH   8  11
ATOM     11  C   LIG d   1       0.360  85.834 111.237  0.00  0.00     0.028 C 
ATOM     12  C   LIG d   1       0.123  85.584 109.739  0.00  0.00     0.006 C 
ENDBRANCH   8  11
ENDBRANCH   7   8
ENDBRANCH   1   7
BRANCH   6  13
ATOM     13  N   LIG d   1      -0.177  81.444 112.883  0.00  0.00    -0.311 N 
ATOM     14  C   LIG d   1      -1.472  81.489 113.187  0.00  0.00     0.210 C 
ATOM     15  C   LIG d   1      -1.837  80.904 114.555  0.00  0.00     0.109 C 
ATOM     16  O   LIG d   1      -2.359  81.929 112.439  0.00  0.00    -0.276 OA
ATOM     17  H   LIG d   1       0.469  81.040 113.533  0.00  0.00     0.149 HD
ENDBRANCH   6  13
BRANCH   5  18
ATOM     18  N   LIG d   1      -0.591  80.187 110.129  0.00  0.00     0.381 N 
ATOM     19  H   LIG d   1      -0.876  80.549 109.241  0.00  0.00    -0.090 HD
ATOM     20  H   LIG d   1      -1.321  80.374 110.795  0.00  0.00    -0.090 HD
ATOM     21  H   LIG d   1      -0.438  79.205 110.062  0.00  0.00    -0.090 HD
ENDBRANCH   5  18
BRANCH   3  22
ATOM     22  C   LIG d   1       3.435  82.350 108.698  0.00  0.00     0.382 C 
ATOM     23  O   LIG d   1       3.168  82.227 107.478  0.00  0.00    -0.241 OA
ATOM     24  O   LIG d   1       4.618  82.505 109.054  0.00  0.00    -0.241 OA
ENDBRANCH   3  22
TORSDOF 7
ENDMDL
MODEL 3
REMARK VINA RESULT:      -6.3      2.485      4.116
REMARK  7 active torsions:
REMARK  status: ('A' for Active; 'I' for Inactive)
REMARK    1  A    between atoms: C_2  and  C_3 
REMARK    2  A    between atoms: C_3  and  O_6 
REMARK    3  A    between atoms: C_3  and  C_4 
REMARK    4  A    between atoms: C_7  and  O_6 
REMARK    5  A    between atoms: C_9  and  C_10 
REMARK    6  A    between atoms: N_15  and  C_14 
REMARK    7  A    between atoms: N_20  and  C_19 
REMARK       I    between atoms: C_22  and  N_20 
ROOT
ATOM      1  C   LIG d   1      -0.087  83.020 111.409  0.00  0.00     0.161 C 
ATOM      2  C   LIG d   1      -1.082  82.696 112.347  0.00  0.00     0.016 C 
ATOM      3  C   LIG d   1      -1.449  81.368 112.663  0.00  0.00     0.038 C 
ATOM      4  C   LIG d   1      -0.737  80.264 112.171  0.00  0.00     0.028 C 
ATOM      5  C   LIG d   1      -0.055  80.531 110.834  0.00  0.00    -0.047 C 
ATOM      6  C   LIG d   1       0.777  81.829 110.945  0.00  0.00     0.091 C 
ENDROOT
BRANCH   1   7
ATOM      7  O   LIG d   1       0.749  84.073 111.928  0.00  0.00    -0.368 OA
BRANCH   7   8
ATOM      8  C   LIG d   1       0.942  85.219 111.063  0.00  0.00     0.119 C 
BRANCH   8   9
ATOM      9  C   LIG d   1       2.458  85.479 110.970  0.00  0.00     0.028 C 
ATOM     10  C   LIG d   1       3.269  84.564 111.903  0.00  0.00     0.006 C 
ENDBRANCH   8   9
BRANCH   8  11
ATOM     11  C   LIG d   1       0.349  86.489 111.681  0.00  0.00     0.028 C 
ATOM     12  C   LIG d   1      -1.170  86.397 111.889  0.00  0.00     0.006 C 
ENDBRANCH   8  11
ENDBRANCH   7   8
ENDBRANCH   1   7
BRANCH   6  13
ATOM     13  N   LIG d   1       1.410  82.208 109.655  0.00  0.00    -0.311 N 
ATOM     14  C   LIG d   1       2.646  81.849 109.311  0.00  0.00     0.210 C 
ATOM     15  C   LIG d   1       3.112  82.363 107.945  0.00  0.00     0.109 C 
ATOM     16  O   LIG d   1       3.388  81.126 109.993  0.00  0.00    -0.276 OA
ATOM     17  H   LIG d   1       0.867  82.769 109.028  0.00  0.00     0.149 HD
ENDBRANCH   6  13
BRANCH   5  18
ATOM     18  N   LIG d   1       0.762  79.347 110.506  0.00  0.00     0.381 N 
ATOM     19  H   LIG d   1       0.458  78.564 111.050  0.00  0.00    -0.090 HD
ATOM     20  H   LIG d   1       1.721  79.539 110.739  0.00  0.00    -0.090 HD
ATOM     21  H   LIG d   1       0.684  79.137 109.536  0.00  0.00    -0.090 HD
ENDBRANCH   5  18
BRANCH   3  22
ATOM     22  C   LIG d   1      -2.566  81.133 113.451  0.00  0.00     0.382 C 
ATOM     23  O   LIG d   1      -2.444  80.546 114.553  0.00  0.00    -0.241 OA
ATOM     24  O   LIG d   1      -3.700  81.461 113.052  0.00  0.00    -0.241 OA
ENDBRANCH   3  22
TORSDOF 7
ENDMDL
MODEL 4
REMARK VINA RESULT:      -6.3      1.506      2.021
REMARK  7 active torsions:
REMARK  status: ('A' for Active; 'I' for Inactive)
REMARK    1  A    between atoms: C_2  and  C_3 
REMARK    2  A    between atoms: C_3  and  O_6 
REMARK    3  A    between atoms: C_3  and  C_4 
REMARK    4  A    between atoms: C_7  and  O_6 
REMARK    5  A    between atoms: C_9  and  C_10 
REMARK    6  A    between atoms: N_15  and  C_14 
REMARK    7  A    between atoms: N_20  and  C_19 
REMARK       I    between atoms: C_22  and  N_20 
ROOT
ATOM      1  C   LIG d   1       0.920  82.866 109.832  0.00  0.00     0.161 C 
ATOM      2  C   LIG d   1       1.139  84.234 110.065  0.00  0.00     0.016 C 
ATOM      3  C   LIG d   1       0.539  84.949 111.127  0.00  0.00     0.038 C 
ATOM      4  C   LIG d   1      -0.208  84.306 112.125  0.00  0.00     0.028 C 
ATOM      5  C   LIG d   1      -0.870  83.016 111.650  0.00  0.00    -0.047 C 
ATOM      6  C   LIG d   1       0.197  82.124 110.976  0.00  0.00     0.091 C 
ENDROOT
BRANCH   1   7
ATOM      7  O   LIG d   1       2.169  82.217 109.524  0.00  0.00    -0.368 OA
BRANCH   7   8
ATOM      8  C   LIG d   1       3.045  81.955 110.648  0.00  0.00     0.119 C 
BRANCH   8   9
ATOM      9  C   LIG d   1       4.353  82.733 110.406  0.00  0.00     0.028 C 
ATOM     10  C   LIG d   1       4.775  82.726 108.927  0.00  0.00     0.006 C 
ENDBRANCH   8   9
BRANCH   8  11
ATOM     11  C   LIG d   1       3.455  80.480 110.704  0.00  0.00     0.028 C 
ATOM     12  C   LIG d   1       2.798  79.637 109.599  0.00  0.00     0.006 C 
ENDBRANCH   8  11
ENDBRANCH   7   8
ENDBRANCH   1   7
BRANCH   6  13
ATOM     13  N   LIG d   1      -0.383  80.879 110.407  0.00  0.00    -0.311 N 
ATOM     14  C   LIG d   1      -0.553  79.761 111.112  0.00  0.00     0.210 C 
ATOM     15  C   LIG d   1      -1.148  78.587 110.328  0.00  0.00     0.109 C 
ATOM     16  O   LIG d   1      -0.296  79.640 112.319  0.00  0.00    -0.276 OA
ATOM     17  H   LIG d   1      -0.648  80.898 109.442  0.00  0.00     0.149 HD
ENDBRANCH   6  13
BRANCH   5  18
ATOM     18  N   LIG d   1      -1.499  82.380 112.823  0.00  0.00     0.381 N 
ATOM     19  H   LIG d   1      -1.298  82.913 113.645  0.00  0.00    -0.090 HD
ATOM     20  H   LIG d   1      -1.112  81.460 112.940  0.00  0.00    -0.090 HD
ATOM     21  H   LIG d   1      -2.484  82.319 112.690  0.00  0.00    -0.090 HD
ENDBRANCH   5  18
BRANCH   3  22
ATOM     22  C   LIG d   1       0.650  86.330 111.175  0.00  0.00     0.382 C 
ATOM     23  O   LIG d   1       1.694  86.890 110.759  0.00  0.00    -0.241 OA
ATOM     24  O   LIG d   1      -0.261  87.021 111.669  0.00  0.00    -0.241 OA
ENDBRANCH   3  22
TORSDOF 7
ENDMDL
MODEL 5
REMARK VINA RESULT:      -5.8      2.651      4.763
REMARK  7 active torsions:
REMARK  status: ('A' for Active; 'I' for Inactive)
REMARK    1  A    between atoms: C_2  and  C_3 
REMARK    2  A    between atoms: C_3  and  O_6 
REMARK    3  A    between atoms: C_3  and  C_4 
REMARK    4  A    between atoms: C_7  and  O_6 
REMARK    5  A    between atoms: C_9  and  C_10 
REMARK    6  A    between atoms: N_15  and  C_14 
REMARK    7  A    between atoms: N_20  and  C_19 
REMARK       I    between atoms: C_22  and  N_20 
ROOT
ATOM      1  C   LIG d   1       2.012  84.031 111.788  0.00  0.00     0.161 C 
ATOM      2  C   LIG d   1       1.141  82.952 112.014  0.00  0.00     0.016 C 
ATOM      3  C   LIG d   1      -0.266  83.085 112.062  0.00  0.00     0.038 C 
ATOM      4  C   LIG d   1      -0.909  84.288 111.736  0.00  0.00     0.028 C 
ATOM      5  C   LIG d   1      -0.052  85.523 111.996  0.00  0.00    -0.047 C 
ATOM      6  C   LIG d   1       1.324  85.330 111.319  0.00  0.00     0.091 C 
ENDROOT
BRANCH   1   7
ATOM      7  O   LIG d   1       3.038  83.642 110.853  0.00  0.00    -0.368 OA
BRANCH   7   8
ATOM      8  C   LIG d   1       2.803  82.414 110.123  0.00  0.00     0.119 C 
BRANCH   8   9
ATOM      9  C   LIG d   1       4.007  81.485 110.378  0.00  0.00     0.028 C 
ATOM     10  C   LIG d   1       3.698  80.018 110.038  0.00  0.00     0.006 C 
ENDBRANCH   8   9
BRANCH   8  11
ATOM     11  C   LIG d   1       2.793  82.658 108.611  0.00  0.00     0.028 C 
ATOM     12  C   LIG d   1       1.431  83.150 108.096  0.00  0.00     0.006 C 
ENDBRANCH   8  11
ENDBRANCH   7   8
ENDBRANCH   1   7
BRANCH   6  13
ATOM     13  N   LIG d   1       2.254  86.456 111.595  0.00  0.00    -0.311 N 
ATOM     14  C   LIG d   1       2.345  87.058 112.780  0.00  0.00     0.210 C 
ATOM     15  C   LIG d   1       3.353  88.210 112.844  0.00  0.00     0.109 C 
ATOM     16  O   LIG d   1       1.710  86.727 113.792  0.00  0.00    -0.276 OA
ATOM     17  H   LIG d   1       2.829  86.768 110.838  0.00  0.00     0.149 HD
ENDBRANCH   6  13
BRANCH   5  18
ATOM     18  N   LIG d   1      -0.790  86.693 111.484  0.00  0.00     0.381 N 
ATOM     19  H   LIG d   1      -0.160  87.309 111.009  0.00  0.00    -0.090 HD
ATOM     20  H   LIG d   1      -1.192  87.189 112.260  0.00  0.00    -0.090 HD
ATOM     21  H   LIG d   1      -1.509  86.397 110.861  0.00  0.00    -0.090 HD
ENDBRANCH   5  18
BRANCH   3  22
ATOM     22  C   LIG d   1      -1.043  82.015 112.480  0.00  0.00     0.382 C 
ATOM     23  O   LIG d   1      -2.272  82.173 112.679  0.00  0.00    -0.241 OA
ATOM     24  O   LIG d   1      -0.523  80.906 112.704  0.00  0.00    -0.241 OA
ENDBRANCH   3  22
TORSDOF 7
ENDMDL
MODEL 6
REMARK VINA RESULT:      -5.7      2.550      5.912
REMARK  7 active torsions:
REMARK  status: ('A' for Active; 'I' for Inactive)
REMARK    1  A    between atoms: C_2  and  C_3 
REMARK    2  A    between atoms: C_3  and  O_6 
REMARK    3  A    between atoms: C_3  and  C_4 
REMARK    4  A    between atoms: C_7  and  O_6 
REMARK    5  A    between atoms: C_9  and  C_10 
REMARK    6  A    between atoms: N_15  and  C_14 
REMARK    7  A    between atoms: N_20  and  C_19 
REMARK       I    between atoms: C_22  and  N_20 
ROOT
ATOM      1  C   LIG d   1       0.296  82.474 110.662  0.00  0.00     0.161 C 
ATOM      2  C   LIG d   1       1.301  81.540 110.359  0.00  0.00     0.016 C 
ATOM      3  C   LIG d   1       2.672  81.874 110.271  0.00  0.00     0.038 C 
ATOM      4  C   LIG d   1       3.152  83.142 110.631  0.00  0.00     0.028 C 
ATOM      5  C   LIG d   1       2.121  84.252 110.455  0.00  0.00    -0.047 C 
ATOM      6  C   LIG d   1       0.812  83.838 111.167  0.00  0.00     0.091 C 
ENDROOT
BRANCH   1   7
ATOM      7  O   LIG d   1      -0.629  81.907 111.610  0.00  0.00    -0.368 OA
BRANCH   7   8
ATOM      8  C   LIG d   1      -0.135  80.792 112.393  0.00  0.00     0.119 C 
BRANCH   8   9
ATOM      9  C   LIG d   1      -1.217  79.696 112.372  0.00  0.00     0.028 C 
ATOM     10  C   LIG d   1      -2.455  80.076 113.201  0.00  0.00     0.006 C 
ENDBRANCH   8   9
BRANCH   8  11
ATOM     11  C   LIG d   1       0.025  81.175 113.868  0.00  0.00     0.028 C 
ATOM     12  C   LIG d   1       1.398  81.794 114.177  0.00  0.00     0.006 C 
ENDBRANCH   8  11
ENDBRANCH   7   8
ENDBRANCH   1   7
BRANCH   6  13
ATOM     13  N   LIG d   1      -0.277  84.831 110.972  0.00  0.00    -0.311 N 
ATOM     14  C   LIG d   1      -0.470  85.874 111.778  0.00  0.00     0.210 C 
ATOM     15  C   LIG d   1      -1.662  86.763 111.409  0.00  0.00     0.109 C 
ATOM     16  O   LIG d   1       0.252  86.165 112.743  0.00  0.00    -0.276 OA
ATOM     17  H   LIG d   1      -0.890  84.688 110.194  0.00  0.00     0.149 HD
ENDBRANCH   6  13
BRANCH   5  18
ATOM     18  N   LIG d   1       2.706  85.493 110.995  0.00  0.00     0.381 N 
ATOM     19  H   LIG d   1       2.003  86.017 111.477  0.00  0.00    -0.090 HD
ATOM     20  H   LIG d   1       3.047  86.051 110.232  0.00  0.00    -0.090 HD
ATOM     21  H   LIG d   1       3.453  85.275 111.617  0.00  0.00    -0.090 HD
ENDBRANCH   5  18
BRANCH   3  22
ATOM     22  C   LIG d   1       3.575  80.943 109.780  0.00  0.00     0.382 C 
ATOM     23  O   LIG d   1       3.314  79.718 109.851  0.00  0.00    -0.241 OA
ATOM     24  O   LIG d   1       4.667  81.311 109.306  0.00  0.00    -0.241 OA
ENDBRANCH   3  22
TORSDOF 7
ENDMDL
MODEL 7
REMARK VINA RESULT:      -5.6      1.801      4.798
REMARK  7 active torsions:
REMARK  status: ('A' for Active; 'I' for Inactive)
REMARK    1  A    between atoms: C_2  and  C_3 
REMARK    2  A    between atoms: C_3  and  O_6 
REMARK    3  A    between atoms: C_3  and  C_4 
REMARK    4  A    between atoms: C_7  and  O_6 
REMARK    5  A    between atoms: C_9  and  C_10 
REMARK    6  A    between atoms: N_15  and  C_14 
REMARK    7  A    between atoms: N_20  and  C_19 
REMARK       I    between atoms: C_22  and  N_20 
ROOT
ATOM      1  C   LIG d   1       1.340  83.436 110.791  0.00  0.00     0.161 C 
ATOM      2  C   LIG d   1       2.621  83.271 110.241  0.00  0.00     0.016 C 
ATOM      3  C   LIG d   1       2.985  82.172 109.430  0.00  0.00     0.038 C 
ATOM      4  C   LIG d   1       2.041  81.233 108.987  0.00  0.00     0.028 C 
ATOM      5  C   LIG d   1       0.851  81.081 109.929  0.00  0.00    -0.047 C 
ATOM      6  C   LIG d   1       0.267  82.480 110.229  0.00  0.00     0.091 C 
ENDROOT
BRANCH   1   7
ATOM      7  O   LIG d   1       0.917  84.806 110.645  0.00  0.00    -0.368 OA
BRANCH   7   8
ATOM      8  C   LIG d   1       0.811  85.575 111.868  0.00  0.00     0.119 C 
BRANCH   8   9
ATOM      9  C   LIG d   1      -0.641  86.078 111.974  0.00  0.00     0.028 C 
ATOM     10  C   LIG d   1      -1.402  85.960 110.643  0.00  0.00     0.006 C 
ENDBRANCH   8   9
BRANCH   8  11
ATOM     11  C   LIG d   1       1.675  86.838 111.808  0.00  0.00     0.028 C 
ATOM     12  C   LIG d   1       3.178  86.538 111.915  0.00  0.00     0.006 C 
ENDBRANCH   8  11
ENDBRANCH   7   8
ENDBRANCH   1   7
BRANCH   6  13
ATOM     13  N   LIG d   1      -0.849  82.430 111.209  0.00  0.00    -0.311 N 
ATOM     14  C   LIG d   1      -0.764  81.813 112.386  0.00  0.00     0.210 C 
ATOM     15  C   LIG d   1      -2.037  81.864 113.237  0.00  0.00     0.109 C 
ATOM     16  O   LIG d   1       0.256  81.257 112.821  0.00  0.00    -0.276 OA
ATOM     17  H   LIG d   1      -1.704  82.883 110.950  0.00  0.00     0.149 HD
ENDBRANCH   6  13
BRANCH   5  18
ATOM     18  N   LIG d   1      -0.117  80.177 109.280  0.00  0.00     0.381 N 
ATOM     19  H   LIG d   1      -1.050  80.464 109.501  0.00  0.00    -0.090 HD
ATOM     20  H   LIG d   1       0.019  79.246 109.634  0.00  0.00    -0.090 HD
ATOM     21  H   LIG d   1       0.015  80.187 108.292  0.00  0.00    -0.090 HD
ENDBRANCH   5  18
BRANCH   3  22
ATOM     22  C   LIG d   1       4.315  81.981 109.086  0.00  0.00     0.382 C 
ATOM     23  O   LIG d   1       4.966  82.916 108.561  0.00  0.00    -0.241 OA
ATOM     24  O   LIG d   1       4.858  80.873 109.253  0.00  0.00    -0.241 OA
ENDBRANCH   3  22
TORSDOF 7
ENDMDL
MODEL 8
REMARK VINA RESULT:      -5.6      2.521      4.250
REMARK  7 active torsions:
REMARK  status: ('A' for Active; 'I' for Inactive)
REMARK    1  A    between atoms: C_2  and  C_3 
REMARK    2  A    between atoms: C_3  and  O_6 
REMARK    3  A    between atoms: C_3  and  C_4 
REMARK    4  A    between atoms: C_7  and  O_6 
REMARK    5  A    between atoms: C_9  and  C_10 
REMARK    6  A    between atoms: N_15  and  C_14 
REMARK    7  A    between atoms: N_20  and  C_19 
REMARK       I    between atoms: C_22  and  N_20 
ROOT
ATOM      1  C   LIG d   1       0.749  83.106 110.742  0.00  0.00     0.161 C 
ATOM      2  C   LIG d   1      -0.482  82.639 111.232  0.00  0.00     0.016 C 
ATOM      3  C   LIG d   1      -0.599  81.770 112.341  0.00  0.00     0.038 C 
ATOM      4  C   LIG d   1       0.506  81.426 113.134  0.00  0.00     0.028 C 
ATOM      5  C   LIG d   1       1.830  81.467 112.378  0.00  0.00    -0.047 C 
ATOM      6  C   LIG d   1       1.957  82.831 111.663  0.00  0.00     0.091 C 
ENDROOT
BRANCH   1   7
ATOM      7  O   LIG d   1       0.655  84.513 110.446  0.00  0.00    -0.368 OA
BRANCH   7   8
ATOM      8  C   LIG d   1       0.849  85.414 111.564  0.00  0.00     0.119 C 
BRANCH   8   9
ATOM      9  C   LIG d   1      -0.422  86.276 111.689  0.00  0.00     0.028 C 
ATOM     10  C   LIG d   1      -1.438  85.990 110.570  0.00  0.00     0.006 C 
ENDBRANCH   8   9
BRANCH   8  11
ATOM     11  C   LIG d   1       1.985  86.405 111.291  0.00  0.00     0.028 C 
ATOM     12  C   LIG d   1       1.805  87.737 112.035  0.00  0.00     0.006 C 
ENDBRANCH   8  11
ENDBRANCH   7   8
ENDBRANCH   1   7
BRANCH   6  13
ATOM     13  N   LIG d   1       3.186  82.922 110.831  0.00  0.00    -0.311 N 
ATOM     14  C   LIG d   1       3.439  82.111 109.805  0.00  0.00     0.210 C 
ATOM     15  C   LIG d   1       4.772  82.364 109.095  0.00  0.00     0.109 C 
ATOM     16  O   LIG d   1       2.670  81.227 109.396  0.00  0.00    -0.276 OA
ATOM     17  H   LIG d   1       3.849  83.632 111.074  0.00  0.00     0.149 HD
ENDBRANCH   6  13
BRANCH   5  18
ATOM     18  N   LIG d   1       2.908  81.224 113.355  0.00  0.00     0.381 N 
ATOM     19  H   LIG d   1       2.745  80.358 113.831  0.00  0.00    -0.090 HD
ATOM     20  H   LIG d   1       2.903  81.963 114.036  0.00  0.00    -0.090 HD
ATOM     21  H   LIG d   1       3.789  81.195 112.891  0.00  0.00    -0.090 HD
ENDBRANCH   5  18
BRANCH   3  22
ATOM     22  C   LIG d   1      -1.828  81.202 112.642  0.00  0.00     0.382 C 
ATOM     23  O   LIG d   1      -2.007  79.971 112.479  0.00  0.00    -0.241 OA
ATOM     24  O   LIG d   1      -2.773  81.913 113.033  0.00  0.00    -0.241 OA
ENDBRANCH   3  22
TORSDOF 7
ENDMDL
MODEL 9
REMARK VINA RESULT:      -5.5      2.424      4.790
REMARK  7 active torsions:
REMARK  status: ('A' for Active; 'I' for Inactive)
REMARK    1  A    between atoms: C_2  and  C_3 
REMARK    2  A    between atoms: C_3  and  O_6 
REMARK    3  A    between atoms: C_3  and  C_4 
REMARK    4  A    between atoms: C_7  and  O_6 
REMARK    5  A    between atoms: C_9  and  C_10 
REMARK    6  A    between atoms: N_15  and  C_14 
REMARK    7  A    between atoms: N_20  and  C_19 
REMARK       I    between atoms: C_22  and  N_20 
ROOT
ATOM      1  C   LIG d   1       1.648  81.914 112.089  0.00  0.00     0.161 C 
ATOM      2  C   LIG d   1       0.685  80.913 112.301  0.00  0.00     0.016 C 
ATOM      3  C   LIG d   1      -0.691  81.182 112.483  0.00  0.00     0.038 C 
ATOM      4  C   LIG d   1      -1.223  82.468 112.313  0.00  0.00     0.028 C 
ATOM      5  C   LIG d   1      -0.221  83.581 112.597  0.00  0.00    -0.047 C 
ATOM      6  C   LIG d   1       1.070  83.313 111.789  0.00  0.00     0.091 C 
ENDROOT
BRANCH   1   7
ATOM      7  O   LIG d   1       2.550  81.510 111.040  0.00  0.00    -0.368 OA
BRANCH   7   8
ATOM      8  C   LIG d   1       2.135  81.821 109.687  0.00  0.00     0.119 C 
BRANCH   8   9
ATOM      9  C   LIG d   1       1.726  80.497 109.013  0.00  0.00     0.028 C 
ATOM     10  C   LIG d   1       2.566  79.305 109.502  0.00  0.00     0.006 C 
ENDBRANCH   8   9
BRANCH   8  11
ATOM     11  C   LIG d   1       3.304  82.355 108.855  0.00  0.00     0.028 C 
ATOM     12  C   LIG d   1       4.541  82.683 109.706  0.00  0.00     0.006 C 
ENDBRANCH   8  11
ENDBRANCH   7   8
ENDBRANCH   1   7
BRANCH   6  13
ATOM     13  N   LIG d   1       2.134  84.310 112.075  0.00  0.00    -0.311 N 
ATOM     14  C   LIG d   1       2.330  85.404 111.341  0.00  0.00     0.210 C 
ATOM     15  C   LIG d   1       3.495  86.288 111.796  0.00  0.00     0.109 C 
ATOM     16  O   LIG d   1       1.629  85.743 110.375  0.00  0.00    -0.276 OA
ATOM     17  H   LIG d   1       2.730  84.129 112.859  0.00  0.00     0.149 HD
ENDBRANCH   6  13
BRANCH   5  18
ATOM     18  N   LIG d   1      -0.865  84.862 112.249  0.00  0.00     0.381 N 
ATOM     19  H   LIG d   1      -0.569  85.574 112.885  0.00  0.00    -0.090 HD
ATOM     20  H   LIG d   1      -1.861  84.758 112.332  0.00  0.00    -0.090 HD
ATOM     21  H   LIG d   1      -0.628  85.120 111.316  0.00  0.00    -0.090 HD
ENDBRANCH   5  18
BRANCH   3  22
ATOM     22  C   LIG d   1      -1.544  80.163 112.878  0.00  0.00     0.382 C 
ATOM     23  O   LIG d   1      -2.004  79.365 112.026  0.00  0.00    -0.241 OA
ATOM     24  O   LIG d   1      -1.894  80.058 114.069  0.00  0.00    -0.241 OA
ENDBRANCH   3  22
TORSDOF 7
ENDMDL
