MODEL 1
REMARK VINA RESULT:      -5.6      0.000      0.000
REMARK  7 active torsions:
REMARK  status: ('A' for Active; 'I' for Inactive)
REMARK    1  A    between atoms: C_2  and  C_3 
REMARK    2  A    between atoms: C_3  and  O_6 
REMARK    3  A    between atoms: C_3  and  C_4 
REMARK    4  A    between atoms: C_7  and  O_6 
REMARK    5  A    between atoms: C_9  and  C_10 
REMARK    6  A    between atoms: N_15  and  C_14 
REMARK    7  A    between atoms: N_20  and  C_19 
REMARK       I    between atoms: C_22  and  N_20 
ROOT
ATOM      1  C   LIG d   1      -5.965  92.068 117.953  0.00  0.00     0.161 C 
ATOM      2  C   LIG d   1      -6.818  92.003 116.838  0.00  0.00     0.016 C 
ATOM      3  C   LIG d   1      -6.550  91.209 115.699  0.00  0.00     0.038 C 
ATOM      4  C   LIG d   1      -5.480  90.303 115.662  0.00  0.00     0.028 C 
ATOM      5  C   LIG d   1      -4.314  90.706 116.558  0.00  0.00    -0.047 C 
ATOM      6  C   LIG d   1      -4.850  91.002 117.977  0.00  0.00     0.091 C 
ENDROOT
BRANCH   1   7
ATOM      7  O   LIG d   1      -6.742  92.009 119.166  0.00  0.00    -0.368 OA
BRANCH   7   8
ATOM      8  C   LIG d   1      -6.775  93.219 119.962  0.00  0.00     0.119 C 
BRANCH   8   9
ATOM      9  C   LIG d   1      -6.044  94.317 119.165  0.00  0.00     0.028 C 
ATOM     10  C   LIG d   1      -6.972  95.483 118.786  0.00  0.00     0.006 C 
ENDBRANCH   8   9
BRANCH   8  11
ATOM     11  C   LIG d   1      -5.975  93.056 121.257  0.00  0.00     0.028 C 
ATOM     12  C   LIG d   1      -6.009  91.619 121.802  0.00  0.00     0.006 C 
ENDBRANCH   8  11
ENDBRANCH   7   8
ENDBRANCH   1   7
BRANCH   6  13
ATOM     13  N   LIG d   1      -3.786  91.485 118.896  0.00  0.00    -0.311 N 
ATOM     14  C   LIG d   1      -3.015  90.672 119.616  0.00  0.00     0.210 C 
ATOM     15  C   LIG d   1      -1.994  91.377 120.514  0.00  0.00     0.109 C 
ATOM     16  O   LIG d   1      -3.058  89.434 119.572  0.00  0.00    -0.276 OA
ATOM     17  H   LIG d   1      -3.662  92.476 118.969  0.00  0.00     0.149 HD
ENDBRANCH   6  13
BRANCH   5  18
ATOM     18  N   LIG d   1      -3.329  89.608 116.529  0.00  0.00     0.381 N 
ATOM     19  H   LIG d   1      -2.694  89.702 117.297  0.00  0.00    -0.090 HD
ATOM     20  H   LIG d   1      -2.803  89.665 115.675  0.00  0.00    -0.090 HD
ATOM     21  H   LIG d   1      -3.797  88.730 116.582  0.00  0.00    -0.090 HD
ENDBRANCH   5  18
BRANCH   3  22
ATOM     22  C   LIG d   1      -7.337  91.347 114.566  0.00  0.00     0.382 C 
ATOM     23  O   LIG d   1      -6.826  91.752 113.494  0.00  0.00    -0.241 OA
ATOM     24  O   LIG d   1      -8.559  91.113 114.613  0.00  0.00    -0.241 OA
ENDBRANCH   3  22
TORSDOF 7
ENDMDL
MODEL 2
REMARK VINA RESULT:      -5.6     15.409     16.987
REMARK  7 active torsions:
REMARK  status: ('A' for Active; 'I' for Inactive)
REMARK    1  A    between atoms: C_2  and  C_3 
REMARK    2  A    between atoms: C_3  and  O_6 
REMARK    3  A    between atoms: C_3  and  C_4 
REMARK    4  A    between atoms: C_7  and  O_6 
REMARK    5  A    between atoms: C_9  and  C_10 
REMARK    6  A    between atoms: N_15  and  C_14 
REMARK    7  A    between atoms: N_20  and  C_19 
REMARK       I    between atoms: C_22  and  N_20 
ROOT
ATOM      1  C   LIG d   1      -8.191  75.444 118.173  0.00  0.00     0.161 C 
ATOM      2  C   LIG d   1      -9.342  76.165 118.532  0.00  0.00     0.016 C 
ATOM      3  C   LIG d   1      -9.413  77.577 118.511  0.00  0.00     0.038 C 
ATOM      4  C   LIG d   1      -8.380  78.364 117.980  0.00  0.00     0.028 C 
ATOM      5  C   LIG d   1      -7.008  77.706 118.077  0.00  0.00    -0.047 C 
ATOM      6  C   LIG d   1      -7.092  76.280 117.486  0.00  0.00     0.091 C 
ENDROOT
BRANCH   1   7
ATOM      7  O   LIG d   1      -8.557  74.321 117.346  0.00  0.00    -0.368 OA
BRANCH   7   8
ATOM      8  C   LIG d   1      -8.970  73.122 118.046  0.00  0.00     0.119 C 
BRANCH   8   9
ATOM      9  C   LIG d   1      -8.120  71.955 117.507  0.00  0.00     0.028 C 
ATOM     10  C   LIG d   1      -7.371  72.323 116.215  0.00  0.00     0.006 C 
ENDBRANCH   8   9
BRANCH   8  11
ATOM     11  C   LIG d   1     -10.419  72.754 117.715  0.00  0.00     0.028 C 
ATOM     12  C   LIG d   1     -10.640  71.237 117.608  0.00  0.00     0.006 C 
ENDBRANCH   8  11
ENDBRANCH   7   8
ENDBRANCH   1   7
BRANCH   6  13
ATOM     13  N   LIG d   1      -5.812  75.536 117.617  0.00  0.00    -0.311 N 
ATOM     14  C   LIG d   1      -5.102  75.108 116.575  0.00  0.00     0.210 C 
ATOM     15  C   LIG d   1      -3.824  74.344 116.933  0.00  0.00     0.109 C 
ATOM     16  O   LIG d   1      -5.393  75.317 115.387  0.00  0.00    -0.276 OA
ATOM     17  H   LIG d   1      -5.486  75.350 118.546  0.00  0.00     0.149 HD
ENDBRANCH   6  13
BRANCH   5  18
ATOM     18  N   LIG d   1      -6.048  78.571 117.365  0.00  0.00     0.381 N 
ATOM     19  H   LIG d   1      -5.113  78.275 117.564  0.00  0.00    -0.090 HD
ATOM     20  H   LIG d   1      -6.156  79.515 117.693  0.00  0.00    -0.090 HD
ATOM     21  H   LIG d   1      -6.215  78.531 116.384  0.00  0.00    -0.090 HD
ENDBRANCH   5  18
BRANCH   3  22
ATOM     22  C   LIG d   1     -10.513  78.218 119.061  0.00  0.00     0.382 C 
ATOM     23  O   LIG d   1     -10.557  79.471 119.092  0.00  0.00    -0.241 OA
ATOM     24  O   LIG d   1     -11.441  77.559 119.567  0.00  0.00    -0.241 OA
ENDBRANCH   3  22
TORSDOF 7
ENDMDL
MODEL 3
REMARK VINA RESULT:      -5.5      2.183      4.331
REMARK  7 active torsions:
REMARK  status: ('A' for Active; 'I' for Inactive)
REMARK    1  A    between atoms: C_2  and  C_3 
REMARK    2  A    between atoms: C_3  and  O_6 
REMARK    3  A    between atoms: C_3  and  C_4 
REMARK    4  A    between atoms: C_7  and  O_6 
REMARK    5  A    between atoms: C_9  and  C_10 
REMARK    6  A    between atoms: N_15  and  C_14 
REMARK    7  A    between atoms: N_20  and  C_19 
REMARK       I    between atoms: C_22  and  N_20 
ROOT
ATOM      1  C   LIG d   1      -4.153  90.592 117.690  0.00  0.00     0.161 C 
ATOM      2  C   LIG d   1      -4.621  90.463 116.372  0.00  0.00     0.016 C 
ATOM      3  C   LIG d   1      -5.799  91.087 115.900  0.00  0.00     0.038 C 
ATOM      4  C   LIG d   1      -6.512  92.010 116.679  0.00  0.00     0.028 C 
ATOM      5  C   LIG d   1      -6.361  91.781 118.179  0.00  0.00    -0.047 C 
ATOM      6  C   LIG d   1      -4.857  91.684 118.523  0.00  0.00     0.091 C 
ENDROOT
BRANCH   1   7
ATOM      7  O   LIG d   1      -2.728  90.807 117.684  0.00  0.00    -0.368 OA
BRANCH   7   8
ATOM      8  C   LIG d   1      -1.903  89.617 117.646  0.00  0.00     0.119 C 
BRANCH   8   9
ATOM      9  C   LIG d   1      -2.359  88.700 118.798  0.00  0.00     0.028 C 
ATOM     10  C   LIG d   1      -1.721  89.087 120.143  0.00  0.00     0.006 C 
ENDBRANCH   8   9
BRANCH   8  11
ATOM     11  C   LIG d   1      -0.437  89.944 117.944  0.00  0.00     0.028 C 
ATOM     12  C   LIG d   1      -0.024  91.337 117.443  0.00  0.00     0.006 C 
ENDBRANCH   8  11
ENDBRANCH   7   8
ENDBRANCH   1   7
BRANCH   6  13
ATOM     13  N   LIG d   1      -4.623  91.376 119.958  0.00  0.00    -0.311 N 
ATOM     14  C   LIG d   1      -3.865  92.128 120.755  0.00  0.00     0.210 C 
ATOM     15  C   LIG d   1      -3.739  91.621 122.195  0.00  0.00     0.109 C 
ATOM     16  O   LIG d   1      -3.311  93.184 120.414  0.00  0.00    -0.276 OA
ATOM     17  H   LIG d   1      -5.060  90.554 120.326  0.00  0.00     0.149 HD
ENDBRANCH   6  13
BRANCH   5  18
ATOM     18  N   LIG d   1      -7.041  92.893 118.870  0.00  0.00     0.381 N 
ATOM     19  H   LIG d   1      -7.972  92.621 119.115  0.00  0.00    -0.090 HD
ATOM     20  H   LIG d   1      -7.096  93.679 118.246  0.00  0.00    -0.090 HD
ATOM     21  H   LIG d   1      -6.534  93.146 119.690  0.00  0.00    -0.090 HD
ENDBRANCH   5  18
BRANCH   3  22
ATOM     22  C   LIG d   1      -6.296  90.758 114.648  0.00  0.00     0.382 C 
ATOM     23  O   LIG d   1      -6.365  91.633 113.751  0.00  0.00    -0.241 OA
ATOM     24  O   LIG d   1      -6.718  89.609 114.418  0.00  0.00    -0.241 OA
ENDBRANCH   3  22
TORSDOF 7
ENDMDL
MODEL 4
REMARK VINA RESULT:      -5.5     15.218     17.400
REMARK  7 active torsions:
REMARK  status: ('A' for Active; 'I' for Inactive)
REMARK    1  A    between atoms: C_2  and  C_3 
REMARK    2  A    between atoms: C_3  and  O_6 
REMARK    3  A    between atoms: C_3  and  C_4 
REMARK    4  A    between atoms: C_7  and  O_6 
REMARK    5  A    between atoms: C_9  and  C_10 
REMARK    6  A    between atoms: N_15  and  C_14 
REMARK    7  A    between atoms: N_20  and  C_19 
REMARK       I    between atoms: C_22  and  N_20 
ROOT
ATOM      1  C   LIG d   1      -3.232  74.843 116.223  0.00  0.00     0.161 C 
ATOM      2  C   LIG d   1      -2.918  74.098 117.372  0.00  0.00     0.016 C 
ATOM      3  C   LIG d   1      -1.666  74.166 118.026  0.00  0.00     0.038 C 
ATOM      4  C   LIG d   1      -0.688  75.102 117.659  0.00  0.00     0.028 C 
ATOM      5  C   LIG d   1      -0.768  75.520 116.195  0.00  0.00    -0.047 C 
ATOM      6  C   LIG d   1      -2.217  75.952 115.875  0.00  0.00     0.091 C 
ENDROOT
BRANCH   1   7
ATOM      7  O   LIG d   1      -4.557  75.397 116.347  0.00  0.00    -0.368 OA
BRANCH   7   8
ATOM      8  C   LIG d   1      -5.654  74.458 116.231  0.00  0.00     0.119 C 
BRANCH   8   9
ATOM      9  C   LIG d   1      -6.050  74.390 114.743  0.00  0.00     0.028 C 
ATOM     10  C   LIG d   1      -6.456  75.762 114.181  0.00  0.00     0.006 C 
ENDBRANCH   8   9
BRANCH   8  11
ATOM     11  C   LIG d   1      -6.901  74.966 116.960  0.00  0.00     0.028 C 
ATOM     12  C   LIG d   1      -6.597  76.117 117.932  0.00  0.00     0.006 C 
ENDBRANCH   8  11
ENDBRANCH   7   8
ENDBRANCH   1   7
BRANCH   6  13
ATOM     13  N   LIG d   1      -2.402  76.296 114.441  0.00  0.00    -0.311 N 
ATOM     14  C   LIG d   1      -3.075  77.368 114.025  0.00  0.00     0.210 C 
ATOM     15  C   LIG d   1      -3.164  77.526 112.504  0.00  0.00     0.109 C 
ATOM     16  O   LIG d   1      -3.579  78.220 114.772  0.00  0.00    -0.276 OA
ATOM     17  H   LIG d   1      -1.999  75.675 113.767  0.00  0.00     0.149 HD
ENDBRANCH   6  13
BRANCH   5  18
ATOM     18  N   LIG d   1       0.217  76.597 115.984  0.00  0.00     0.381 N 
ATOM     19  H   LIG d   1      -0.245  77.417 115.645  0.00  0.00    -0.090 HD
ATOM     20  H   LIG d   1       0.881  76.300 115.291  0.00  0.00    -0.090 HD
ATOM     21  H   LIG d   1       0.686  76.802 116.839  0.00  0.00    -0.090 HD
ENDBRANCH   5  18
BRANCH   3  22
ATOM     22  C   LIG d   1      -1.367  73.261 119.033  0.00  0.00     0.382 C 
ATOM     23  O   LIG d   1      -0.425  73.496 119.827  0.00  0.00    -0.241 OA
ATOM     24  O   LIG d   1      -2.000  72.193 119.131  0.00  0.00    -0.241 OA
ENDBRANCH   3  22
TORSDOF 7
ENDMDL
MODEL 5
REMARK VINA RESULT:      -5.3     16.050     17.626
REMARK  7 active torsions:
REMARK  status: ('A' for Active; 'I' for Inactive)
REMARK    1  A    between atoms: C_2  and  C_3 
REMARK    2  A    between atoms: C_3  and  O_6 
REMARK    3  A    between atoms: C_3  and  C_4 
REMARK    4  A    between atoms: C_7  and  O_6 
REMARK    5  A    between atoms: C_9  and  C_10 
REMARK    6  A    between atoms: N_15  and  C_14 
REMARK    7  A    between atoms: N_20  and  C_19 
REMARK       I    between atoms: C_22  and  N_20 
ROOT
ATOM      1  C   LIG d   1      -7.995  74.828 117.573  0.00  0.00     0.161 C 
ATOM      2  C   LIG d   1      -7.112  74.378 116.577  0.00  0.00     0.016 C 
ATOM      3  C   LIG d   1      -5.825  74.926 116.374  0.00  0.00     0.038 C 
ATOM      4  C   LIG d   1      -5.270  75.865 117.256  0.00  0.00     0.028 C 
ATOM      5  C   LIG d   1      -6.316  76.711 117.974  0.00  0.00    -0.047 C 
ATOM      6  C   LIG d   1      -7.365  75.775 118.616  0.00  0.00     0.091 C 
ENDROOT
BRANCH   1   7
ATOM      7  O   LIG d   1      -8.609  73.700 118.227  0.00  0.00    -0.368 OA
BRANCH   7   8
ATOM      8  C   LIG d   1      -9.142  72.671 117.357  0.00  0.00     0.119 C 
BRANCH   8   9
ATOM      9  C   LIG d   1     -10.666  72.624 117.576  0.00  0.00     0.028 C 
ATOM     10  C   LIG d   1     -11.308  74.021 117.540  0.00  0.00     0.006 C 
ENDBRANCH   8   9
BRANCH   8  11
ATOM     11  C   LIG d   1      -8.631  71.283 117.758  0.00  0.00     0.028 C 
ATOM     12  C   LIG d   1      -9.722  70.203 117.682  0.00  0.00     0.006 C 
ENDBRANCH   8  11
ENDBRANCH   7   8
ENDBRANCH   1   7
BRANCH   6  13
ATOM     13  N   LIG d   1      -8.471  76.525 119.268  0.00  0.00    -0.311 N 
ATOM     14  C   LIG d   1      -8.488  76.823 120.565  0.00  0.00     0.210 C 
ATOM     15  C   LIG d   1      -9.731  77.585 121.037  0.00  0.00     0.109 C 
ATOM     16  O   LIG d   1      -7.578  76.558 121.365  0.00  0.00    -0.276 OA
ATOM     17  H   LIG d   1      -9.236  76.806 118.686  0.00  0.00     0.149 HD
ENDBRANCH   6  13
BRANCH   5  18
ATOM     18  N   LIG d   1      -5.609  77.549 118.961  0.00  0.00     0.381 N 
ATOM     19  H   LIG d   1      -5.640  77.112 119.861  0.00  0.00    -0.090 HD
ATOM     20  H   LIG d   1      -6.074  78.438 119.026  0.00  0.00    -0.090 HD
ATOM     21  H   LIG d   1      -4.662  77.682 118.681  0.00  0.00    -0.090 HD
ENDBRANCH   5  18
BRANCH   3  22
ATOM     22  C   LIG d   1      -5.093  74.562 115.253  0.00  0.00     0.382 C 
ATOM     23  O   LIG d   1      -3.849  74.727 115.237  0.00  0.00    -0.241 OA
ATOM     24  O   LIG d   1      -5.666  74.113 114.243  0.00  0.00    -0.241 OA
ENDBRANCH   3  22
TORSDOF 7
ENDMDL
MODEL 6
REMARK VINA RESULT:      -5.3     13.206     14.842
REMARK  7 active torsions:
REMARK  status: ('A' for Active; 'I' for Inactive)
REMARK    1  A    between atoms: C_2  and  C_3 
REMARK    2  A    between atoms: C_3  and  O_6 
REMARK    3  A    between atoms: C_3  and  C_4 
REMARK    4  A    between atoms: C_7  and  O_6 
REMARK    5  A    between atoms: C_9  and  C_10 
REMARK    6  A    between atoms: N_15  and  C_14 
REMARK    7  A    between atoms: N_20  and  C_19 
REMARK       I    between atoms: C_22  and  N_20 
ROOT
ATOM      1  C   LIG d   1      -3.244  78.013 115.633  0.00  0.00     0.161 C 
ATOM      2  C   LIG d   1      -3.304  79.102 114.748  0.00  0.00     0.016 C 
ATOM      3  C   LIG d   1      -2.533  79.187 113.566  0.00  0.00     0.038 C 
ATOM      4  C   LIG d   1      -1.757  78.112 113.108  0.00  0.00     0.028 C 
ATOM      5  C   LIG d   1      -1.275  77.194 114.226  0.00  0.00    -0.047 C 
ATOM      6  C   LIG d   1      -2.486  76.782 115.094  0.00  0.00     0.091 C 
ENDROOT
BRANCH   1   7
ATOM      7  O   LIG d   1      -4.575  77.641 116.042  0.00  0.00    -0.368 OA
BRANCH   7   8
ATOM      8  C   LIG d   1      -4.932  77.954 117.411  0.00  0.00     0.119 C 
BRANCH   8   9
ATOM      9  C   LIG d   1      -5.497  76.669 118.047  0.00  0.00     0.028 C 
ATOM     10  C   LIG d   1      -5.620  75.518 117.034  0.00  0.00     0.006 C 
ENDBRANCH   8   9
BRANCH   8  11
ATOM     11  C   LIG d   1      -6.074  78.972 117.471  0.00  0.00     0.028 C 
ATOM     12  C   LIG d   1      -5.586  80.398 117.773  0.00  0.00     0.006 C 
ENDBRANCH   8  11
ENDBRANCH   7   8
ENDBRANCH   1   7
BRANCH   6  13
ATOM     13  N   LIG d   1      -2.090  75.950 116.260  0.00  0.00    -0.311 N 
ATOM     14  C   LIG d   1      -2.069  74.619 116.238  0.00  0.00     0.210 C 
ATOM     15  C   LIG d   1      -1.650  73.957 117.555  0.00  0.00     0.109 C 
ATOM     16  O   LIG d   1      -2.326  73.924 115.244  0.00  0.00    -0.276 OA
ATOM     17  H   LIG d   1      -1.836  76.433 117.100  0.00  0.00     0.149 HD
ENDBRANCH   6  13
BRANCH   5  18
ATOM     18  N   LIG d   1      -0.596  76.044 113.597  0.00  0.00     0.381 N 
ATOM     19  H   LIG d   1      -1.151  75.696 112.841  0.00  0.00    -0.090 HD
ATOM     20  H   LIG d   1      -0.497  75.313 114.279  0.00  0.00    -0.090 HD
ATOM     21  H   LIG d   1       0.300  76.320 113.262  0.00  0.00    -0.090 HD
ENDBRANCH   5  18
BRANCH   3  22
ATOM     22  C   LIG d   1      -2.504  80.373 112.848  0.00  0.00     0.382 C 
ATOM     23  O   LIG d   1      -3.564  81.018 112.660  0.00  0.00    -0.241 OA
ATOM     24  O   LIG d   1      -1.439  80.783 112.349  0.00  0.00    -0.241 OA
ENDBRANCH   3  22
TORSDOF 7
ENDMDL
MODEL 7
REMARK VINA RESULT:      -5.2     15.361     17.168
REMARK  7 active torsions:
REMARK  status: ('A' for Active; 'I' for Inactive)
REMARK    1  A    between atoms: C_2  and  C_3 
REMARK    2  A    between atoms: C_3  and  O_6 
REMARK    3  A    between atoms: C_3  and  C_4 
REMARK    4  A    between atoms: C_7  and  O_6 
REMARK    5  A    between atoms: C_9  and  C_10 
REMARK    6  A    between atoms: N_15  and  C_14 
REMARK    7  A    between atoms: N_20  and  C_19 
REMARK       I    between atoms: C_22  and  N_20 
ROOT
ATOM      1  C   LIG d   1      -6.382  74.977 116.721  0.00  0.00     0.161 C 
ATOM      2  C   LIG d   1      -6.935  73.691 116.604  0.00  0.00     0.016 C 
ATOM      3  C   LIG d   1      -8.099  73.278 117.293  0.00  0.00     0.038 C 
ATOM      4  C   LIG d   1      -8.879  74.178 118.034  0.00  0.00     0.028 C 
ATOM      5  C   LIG d   1      -8.085  75.356 118.588  0.00  0.00    -0.047 C 
ATOM      6  C   LIG d   1      -7.282  76.005 117.437  0.00  0.00     0.091 C 
ENDROOT
BRANCH   1   7
ATOM      7  O   LIG d   1      -6.001  75.465 115.419  0.00  0.00    -0.368 OA
BRANCH   7   8
ATOM      8  C   LIG d   1      -4.599  75.341 115.077  0.00  0.00     0.119 C 
BRANCH   8   9
ATOM      9  C   LIG d   1      -3.815  75.167 116.392  0.00  0.00     0.028 C 
ATOM     10  C   LIG d   1      -2.625  74.205 116.243  0.00  0.00     0.006 C 
ENDBRANCH   8   9
BRANCH   8  11
ATOM     11  C   LIG d   1      -4.062  76.632 114.452  0.00  0.00     0.028 C 
ATOM     12  C   LIG d   1      -3.819  77.740 115.489  0.00  0.00     0.006 C 
ENDBRANCH   8  11
ENDBRANCH   7   8
ENDBRANCH   1   7
BRANCH   6  13
ATOM     13  N   LIG d   1      -6.412  77.114 117.909  0.00  0.00    -0.311 N 
ATOM     14  C   LIG d   1      -6.790  78.391 117.916  0.00  0.00     0.210 C 
ATOM     15  C   LIG d   1      -5.732  79.376 118.422  0.00  0.00     0.109 C 
ATOM     16  O   LIG d   1      -7.913  78.797 117.580  0.00  0.00    -0.276 OA
ATOM     17  H   LIG d   1      -5.495  76.869 118.228  0.00  0.00     0.149 HD
ENDBRANCH   6  13
BRANCH   5  18
ATOM     18  N   LIG d   1      -9.043  76.283 119.219  0.00  0.00     0.381 N 
ATOM     19  H   LIG d   1      -9.831  76.418 118.617  0.00  0.00    -0.090 HD
ATOM     20  H   LIG d   1      -8.595  77.171 119.355  0.00  0.00    -0.090 HD
ATOM     21  H   LIG d   1      -9.345  75.917 120.095  0.00  0.00    -0.090 HD
ENDBRANCH   5  18
BRANCH   3  22
ATOM     22  C   LIG d   1      -8.470  71.942 117.277  0.00  0.00     0.382 C 
ATOM     23  O   LIG d   1      -8.653  71.330 118.357  0.00  0.00    -0.241 OA
ATOM     24  O   LIG d   1      -8.581  71.330 116.198  0.00  0.00    -0.241 OA
ENDBRANCH   3  22
TORSDOF 7
ENDMDL
MODEL 8
REMARK VINA RESULT:      -5.2     14.705     16.454
REMARK  7 active torsions:
REMARK  status: ('A' for Active; 'I' for Inactive)
REMARK    1  A    between atoms: C_2  and  C_3 
REMARK    2  A    between atoms: C_3  and  O_6 
REMARK    3  A    between atoms: C_3  and  C_4 
REMARK    4  A    between atoms: C_7  and  O_6 
REMARK    5  A    between atoms: C_9  and  C_10 
REMARK    6  A    between atoms: N_15  and  C_14 
REMARK    7  A    between atoms: N_20  and  C_19 
REMARK       I    between atoms: C_22  and  N_20 
ROOT
ATOM      1  C   LIG d   1      -7.074  76.100 117.914  0.00  0.00     0.161 C 
ATOM      2  C   LIG d   1      -7.793  74.904 117.752  0.00  0.00     0.016 C 
ATOM      3  C   LIG d   1      -9.192  74.806 117.934  0.00  0.00     0.038 C 
ATOM      4  C   LIG d   1      -9.993  75.938 118.145  0.00  0.00     0.028 C 
ATOM      5  C   LIG d   1      -9.251  77.089 118.815  0.00  0.00    -0.047 C 
ATOM      6  C   LIG d   1      -7.946  77.368 118.035  0.00  0.00     0.091 C 
ENDROOT
BRANCH   1   7
ATOM      7  O   LIG d   1      -6.123  76.247 116.841  0.00  0.00    -0.368 OA
BRANCH   7   8
ATOM      8  C   LIG d   1      -5.369  75.060 116.491  0.00  0.00     0.119 C 
BRANCH   8   9
ATOM      9  C   LIG d   1      -3.888  75.342 116.808  0.00  0.00     0.028 C 
ATOM     10  C   LIG d   1      -3.060  74.053 116.941  0.00  0.00     0.006 C 
ENDBRANCH   8   9
BRANCH   8  11
ATOM     11  C   LIG d   1      -5.418  74.794 114.983  0.00  0.00     0.028 C 
ATOM     12  C   LIG d   1      -6.445  75.676 114.255  0.00  0.00     0.006 C 
ENDBRANCH   8  11
ENDBRANCH   7   8
ENDBRANCH   1   7
BRANCH   6  13
ATOM     13  N   LIG d   1      -7.118  78.424 118.672  0.00  0.00    -0.311 N 
ATOM     14  C   LIG d   1      -7.155  79.705 118.309  0.00  0.00     0.210 C 
ATOM     15  C   LIG d   1      -6.206  80.625 119.082  0.00  0.00     0.109 C 
ATOM     16  O   LIG d   1      -7.908  80.171 117.441  0.00  0.00    -0.276 OA
ATOM     17  H   LIG d   1      -6.501  78.138 119.407  0.00  0.00     0.149 HD
ENDBRANCH   6  13
BRANCH   5  18
ATOM     18  N   LIG d   1     -10.163  78.248 118.849  0.00  0.00     0.381 N 
ATOM     19  H   LIG d   1     -10.750  78.241 118.039  0.00  0.00    -0.090 HD
ATOM     20  H   LIG d   1      -9.617  79.092 118.836  0.00  0.00    -0.090 HD
ATOM     21  H   LIG d   1     -10.721  78.219 119.673  0.00  0.00    -0.090 HD
ENDBRANCH   5  18
BRANCH   3  22
ATOM     22  C   LIG d   1      -9.798  73.559 117.946  0.00  0.00     0.382 C 
ATOM     23  O   LIG d   1      -9.128  72.540 118.239  0.00  0.00    -0.241 OA
ATOM     24  O   LIG d   1     -10.995  73.435 117.624  0.00  0.00    -0.241 OA
ENDBRANCH   3  22
TORSDOF 7
ENDMDL
MODEL 9
REMARK VINA RESULT:      -5.2     13.746     15.469
REMARK  7 active torsions:
REMARK  status: ('A' for Active; 'I' for Inactive)
REMARK    1  A    between atoms: C_2  and  C_3 
REMARK    2  A    between atoms: C_3  and  O_6 
REMARK    3  A    between atoms: C_3  and  C_4 
REMARK    4  A    between atoms: C_7  and  O_6 
REMARK    5  A    between atoms: C_9  and  C_10 
REMARK    6  A    between atoms: N_15  and  C_14 
REMARK    7  A    between atoms: N_20  and  C_19 
REMARK       I    between atoms: C_22  and  N_20 
ROOT
ATOM      1  C   LIG d   1      -7.379  76.782 117.654  0.00  0.00     0.161 C 
ATOM      2  C   LIG d   1      -8.632  77.255 118.078  0.00  0.00     0.016 C 
ATOM      3  C   LIG d   1      -8.904  78.619 118.331  0.00  0.00     0.038 C 
ATOM      4  C   LIG d   1      -7.976  79.628 118.031  0.00  0.00     0.028 C 
ATOM      5  C   LIG d   1      -6.528  79.153 118.080  0.00  0.00    -0.047 C 
ATOM      6  C   LIG d   1      -6.388  77.880 117.215  0.00  0.00     0.091 C 
ENDROOT
BRANCH   1   7
ATOM      7  O   LIG d   1      -7.552  75.813 116.601  0.00  0.00    -0.368 OA
BRANCH   7   8
ATOM      8  C   LIG d   1      -7.003  74.496 116.850  0.00  0.00     0.119 C 
BRANCH   8   9
ATOM      9  C   LIG d   1      -6.394  73.991 115.528  0.00  0.00     0.028 C 
ATOM     10  C   LIG d   1      -6.177  75.124 114.511  0.00  0.00     0.006 C 
ENDBRANCH   8   9
BRANCH   8  11
ATOM     11  C   LIG d   1      -8.104  73.490 117.199  0.00  0.00     0.028 C 
ATOM     12  C   LIG d   1      -7.814  72.079 116.664  0.00  0.00     0.006 C 
ENDBRANCH   8  11
ENDBRANCH   7   8
ENDBRANCH   1   7
BRANCH   6  13
ATOM     13  N   LIG d   1      -5.020  77.302 117.275  0.00  0.00    -0.311 N 
ATOM     14  C   LIG d   1      -4.074  77.563 116.375  0.00  0.00     0.210 C 
ATOM     15  C   LIG d   1      -2.740  76.847 116.613  0.00  0.00     0.109 C 
ATOM     16  O   LIG d   1      -4.201  78.344 115.421  0.00  0.00    -0.276 OA
ATOM     17  H   LIG d   1      -4.820  76.681 118.035  0.00  0.00     0.149 HD
ENDBRANCH   6  13
BRANCH   5  18
ATOM     18  N   LIG d   1      -5.679  80.265 117.613  0.00  0.00     0.381 N 
ATOM     19  H   LIG d   1      -5.417  80.840 118.389  0.00  0.00    -0.090 HD
ATOM     20  H   LIG d   1      -6.205  80.828 116.968  0.00  0.00    -0.090 HD
ATOM     21  H   LIG d   1      -4.864  79.908 117.166  0.00  0.00    -0.090 HD
ENDBRANCH   5  18
BRANCH   3  22
ATOM     22  C   LIG d   1     -10.101  78.981 118.929  0.00  0.00     0.382 C 
ATOM     23  O   LIG d   1     -10.965  78.108 119.183  0.00  0.00    -0.241 OA
ATOM     24  O   LIG d   1     -10.347  80.177 119.177  0.00  0.00    -0.241 OA
ENDBRANCH   3  22
TORSDOF 7
ENDMDL
