MODEL 1
REMARK VINA RESULT:      -5.5      0.000      0.000
REMARK  7 active torsions:
REMARK  status: ('A' for Active; 'I' for Inactive)
REMARK    1  A    between atoms: C_2  and  C_3 
REMARK    2  A    between atoms: C_3  and  O_6 
REMARK    3  A    between atoms: C_3  and  C_4 
REMARK    4  A    between atoms: C_7  and  O_6 
REMARK    5  A    between atoms: C_9  and  C_10 
REMARK    6  A    between atoms: N_15  and  C_14 
REMARK    7  A    between atoms: N_20  and  C_19 
REMARK       I    between atoms: C_22  and  N_20 
ROOT
ATOM      1  C   LIG d   1      -5.646  92.232 117.427  0.00  0.00     0.161 C 
ATOM      2  C   LIG d   1      -6.698  91.441 116.938  0.00  0.00     0.016 C 
ATOM      3  C   LIG d   1      -6.510  90.159 116.371  0.00  0.00     0.038 C 
ATOM      4  C   LIG d   1      -5.264  89.515 116.392  0.00  0.00     0.028 C 
ATOM      5  C   LIG d   1      -4.084  90.480 116.417  0.00  0.00    -0.047 C 
ATOM      6  C   LIG d   1      -4.294  91.500 117.560  0.00  0.00     0.091 C 
ENDROOT
BRANCH   1   7
ATOM      7  O   LIG d   1      -6.022  92.821 118.688  0.00  0.00    -0.368 OA
BRANCH   7   8
ATOM      8  C   LIG d   1      -6.070  94.269 118.726  0.00  0.00     0.119 C 
BRANCH   8   9
ATOM      9  C   LIG d   1      -5.009  94.740 119.739  0.00  0.00     0.028 C 
ATOM     10  C   LIG d   1      -4.705  93.677 120.808  0.00  0.00     0.006 C 
ENDBRANCH   8   9
BRANCH   8  11
ATOM     11  C   LIG d   1      -7.408  94.768 119.277  0.00  0.00     0.028 C 
ATOM     12  C   LIG d   1      -8.439  93.641 119.451  0.00  0.00     0.006 C 
ENDBRANCH   8  11
ENDBRANCH   7   8
ENDBRANCH   1   7
BRANCH   6  13
ATOM     13  N   LIG d   1      -3.225  92.532 117.602  0.00  0.00    -0.311 N 
ATOM     14  C   LIG d   1      -2.147  92.440 118.378  0.00  0.00     0.210 C 
ATOM     15  C   LIG d   1      -1.179  93.623 118.284  0.00  0.00     0.109 C 
ATOM     16  O   LIG d   1      -1.884  91.475 119.112  0.00  0.00    -0.276 OA
ATOM     17  H   LIG d   1      -3.343  93.334 117.015  0.00  0.00     0.149 HD
ENDBRANCH   6  13
BRANCH   5  18
ATOM     18  N   LIG d   1      -2.856  89.678 116.577  0.00  0.00     0.381 N 
ATOM     19  H   LIG d   1      -2.100  90.269 116.861  0.00  0.00    -0.090 HD
ATOM     20  H   LIG d   1      -2.619  89.266 115.692  0.00  0.00    -0.090 HD
ATOM     21  H   LIG d   1      -3.001  88.963 117.256  0.00  0.00    -0.090 HD
ENDBRANCH   5  18
BRANCH   3  22
ATOM     22  C   LIG d   1      -7.569  89.526 115.738  0.00  0.00     0.382 C 
ATOM     23  O   LIG d   1      -8.330  88.773 116.392  0.00  0.00    -0.241 OA
ATOM     24  O   LIG d   1      -7.745  89.663 114.512  0.00  0.00    -0.241 OA
ENDBRANCH   3  22
TORSDOF 7
ENDMDL
MODEL 2
REMARK VINA RESULT:      -5.3     31.751     34.000
REMARK  7 active torsions:
REMARK  status: ('A' for Active; 'I' for Inactive)
REMARK    1  A    between atoms: C_2  and  C_3 
REMARK    2  A    between atoms: C_3  and  O_6 
REMARK    3  A    between atoms: C_3  and  C_4 
REMARK    4  A    between atoms: C_7  and  O_6 
REMARK    5  A    between atoms: C_9  and  C_10 
REMARK    6  A    between atoms: N_15  and  C_14 
REMARK    7  A    between atoms: N_20  and  C_19 
REMARK       I    between atoms: C_22  and  N_20 
ROOT
ATOM      1  C   LIG d   1      -1.253  57.570 119.281  0.00  0.00     0.161 C 
ATOM      2  C   LIG d   1      -0.041  56.900 119.520  0.00  0.00     0.016 C 
ATOM      3  C   LIG d   1       1.070  56.968 118.648  0.00  0.00     0.038 C 
ATOM      4  C   LIG d   1       1.096  57.836 117.547  0.00  0.00     0.028 C 
ATOM      5  C   LIG d   1      -0.288  58.147 116.987  0.00  0.00    -0.047 C 
ATOM      6  C   LIG d   1      -1.204  58.610 118.143  0.00  0.00     0.091 C 
ENDROOT
BRANCH   1   7
ATOM      7  O   LIG d   1      -1.722  58.182 120.499  0.00  0.00    -0.368 OA
BRANCH   7   8
ATOM      8  C   LIG d   1      -0.990  59.349 120.948  0.00  0.00     0.119 C 
BRANCH   8   9
ATOM      9  C   LIG d   1      -0.366  59.007 122.315  0.00  0.00     0.028 C 
ATOM     10  C   LIG d   1       1.166  58.889 122.247  0.00  0.00     0.006 C 
ENDBRANCH   8   9
BRANCH   8  11
ATOM     11  C   LIG d   1      -1.932  60.527 121.216  0.00  0.00     0.028 C 
ATOM     12  C   LIG d   1      -3.405  60.102 121.317  0.00  0.00     0.006 C 
ENDBRANCH   8  11
ENDBRANCH   7   8
ENDBRANCH   1   7
BRANCH   6  13
ATOM     13  N   LIG d   1      -2.600  58.854 117.696  0.00  0.00    -0.311 N 
ATOM     14  C   LIG d   1      -3.152  60.065 117.642  0.00  0.00     0.210 C 
ATOM     15  C   LIG d   1      -4.609  60.092 117.172  0.00  0.00     0.109 C 
ATOM     16  O   LIG d   1      -2.562  61.123 117.908  0.00  0.00    -0.276 OA
ATOM     17  H   LIG d   1      -3.141  58.054 117.432  0.00  0.00     0.149 HD
ENDBRANCH   6  13
BRANCH   5  18
ATOM     18  N   LIG d   1      -0.124  59.168 115.935  0.00  0.00     0.381 N 
ATOM     19  H   LIG d   1      -0.663  59.979 116.163  0.00  0.00    -0.090 HD
ATOM     20  H   LIG d   1      -0.464  58.796 115.066  0.00  0.00    -0.090 HD
ATOM     21  H   LIG d   1       0.838  59.414 115.846  0.00  0.00    -0.090 HD
ENDBRANCH   5  18
BRANCH   3  22
ATOM     22  C   LIG d   1       2.155  56.130 118.853  0.00  0.00     0.382 C 
ATOM     23  O   LIG d   1       2.967  55.916 117.920  0.00  0.00    -0.241 OA
ATOM     24  O   LIG d   1       2.309  55.550 119.944  0.00  0.00    -0.241 OA
ENDBRANCH   3  22
TORSDOF 7
ENDMDL
MODEL 3
REMARK VINA RESULT:      -5.3      2.490      5.469
REMARK  7 active torsions:
REMARK  status: ('A' for Active; 'I' for Inactive)
REMARK    1  A    between atoms: C_2  and  C_3 
REMARK    2  A    between atoms: C_3  and  O_6 
REMARK    3  A    between atoms: C_3  and  C_4 
REMARK    4  A    between atoms: C_7  and  O_6 
REMARK    5  A    between atoms: C_9  and  C_10 
REMARK    6  A    between atoms: N_15  and  C_14 
REMARK    7  A    between atoms: N_20  and  C_19 
REMARK       I    between atoms: C_22  and  N_20 
ROOT
ATOM      1  C   LIG d   1      -5.024  92.217 118.522  0.00  0.00     0.161 C 
ATOM      2  C   LIG d   1      -5.377  93.323 119.313  0.00  0.00     0.016 C 
ATOM      3  C   LIG d   1      -6.510  94.130 119.060  0.00  0.00     0.038 C 
ATOM      4  C   LIG d   1      -7.457  93.792 118.081  0.00  0.00     0.028 C 
ATOM      5  C   LIG d   1      -6.877  92.973 116.934  0.00  0.00    -0.047 C 
ATOM      6  C   LIG d   1      -6.105  91.767 117.518  0.00  0.00     0.091 C 
ENDROOT
BRANCH   1   7
ATOM      7  O   LIG d   1      -4.636  91.116 119.368  0.00  0.00    -0.368 OA
BRANCH   7   8
ATOM      8  C   LIG d   1      -3.222  91.004 119.660  0.00  0.00     0.119 C 
BRANCH   8   9
ATOM      9  C   LIG d   1      -2.461  91.149 118.328  0.00  0.00     0.028 C 
ATOM     10  C   LIG d   1      -2.227  89.797 117.635  0.00  0.00     0.006 C 
ENDBRANCH   8   9
BRANCH   8  11
ATOM     11  C   LIG d   1      -2.869  89.606 120.178  0.00  0.00     0.028 C 
ATOM     12  C   LIG d   1      -3.162  89.434 121.677  0.00  0.00     0.006 C 
ENDBRANCH   8  11
ENDBRANCH   7   8
ENDBRANCH   1   7
BRANCH   6  13
ATOM     13  N   LIG d   1      -5.435  90.960 116.466  0.00  0.00    -0.311 N 
ATOM     14  C   LIG d   1      -5.961  89.853 115.944  0.00  0.00     0.210 C 
ATOM     15  C   LIG d   1      -5.095  89.161 114.887  0.00  0.00     0.109 C 
ATOM     16  O   LIG d   1      -7.077  89.396 116.234  0.00  0.00    -0.276 OA
ATOM     17  H   LIG d   1      -4.539  91.276 116.150  0.00  0.00     0.149 HD
ENDBRANCH   6  13
BRANCH   5  18
ATOM     18  N   LIG d   1      -7.997  92.574 116.060  0.00  0.00     0.381 N 
ATOM     19  H   LIG d   1      -8.515  91.834 116.490  0.00  0.00    -0.090 HD
ATOM     20  H   LIG d   1      -7.625  92.235 115.190  0.00  0.00    -0.090 HD
ATOM     21  H   LIG d   1      -8.594  93.354 115.893  0.00  0.00    -0.090 HD
ENDBRANCH   5  18
BRANCH   3  22
ATOM     22  C   LIG d   1      -6.684  95.311 119.764  0.00  0.00     0.382 C 
ATOM     23  O   LIG d   1      -7.708  95.476 120.470  0.00  0.00    -0.241 OA
ATOM     24  O   LIG d   1      -5.851  96.232 119.667  0.00  0.00    -0.241 OA
ENDBRANCH   3  22
TORSDOF 7
ENDMDL
MODEL 4
REMARK VINA RESULT:      -5.2      1.977      4.265
REMARK  7 active torsions:
REMARK  status: ('A' for Active; 'I' for Inactive)
REMARK    1  A    between atoms: C_2  and  C_3 
REMARK    2  A    between atoms: C_3  and  O_6 
REMARK    3  A    between atoms: C_3  and  C_4 
REMARK    4  A    between atoms: C_7  and  O_6 
REMARK    5  A    between atoms: C_9  and  C_10 
REMARK    6  A    between atoms: N_15  and  C_14 
REMARK    7  A    between atoms: N_20  and  C_19 
REMARK       I    between atoms: C_22  and  N_20 
ROOT
ATOM      1  C   LIG d   1      -4.591  91.443 117.944  0.00  0.00     0.161 C 
ATOM      2  C   LIG d   1      -4.790  90.627 116.818  0.00  0.00     0.016 C 
ATOM      3  C   LIG d   1      -5.931  90.712 115.987  0.00  0.00     0.038 C 
ATOM      4  C   LIG d   1      -6.885  91.729 116.139  0.00  0.00     0.028 C 
ATOM      5  C   LIG d   1      -6.983  92.259 117.566  0.00  0.00    -0.047 C 
ATOM      6  C   LIG d   1      -5.567  92.633 118.061  0.00  0.00     0.091 C 
ENDROOT
BRANCH   1   7
ATOM      7  O   LIG d   1      -3.227  91.909 117.974  0.00  0.00    -0.368 OA
BRANCH   7   8
ATOM      8  C   LIG d   1      -2.330  91.198 118.862  0.00  0.00     0.119 C 
BRANCH   8   9
ATOM      9  C   LIG d   1      -1.869  92.191 119.947  0.00  0.00     0.028 C 
ATOM     10  C   LIG d   1      -1.951  93.653 119.477  0.00  0.00     0.006 C 
ENDBRANCH   8   9
BRANCH   8  11
ATOM     11  C   LIG d   1      -1.052  90.767 118.136  0.00  0.00     0.028 C 
ATOM     12  C   LIG d   1      -1.226  89.459 117.349  0.00  0.00     0.006 C 
ENDBRANCH   8  11
ENDBRANCH   7   8
ENDBRANCH   1   7
BRANCH   6  13
ATOM     13  N   LIG d   1      -5.561  93.081 119.477  0.00  0.00    -0.311 N 
ATOM     14  C   LIG d   1      -5.669  94.358 119.843  0.00  0.00     0.210 C 
ATOM     15  C   LIG d   1      -5.621  94.604 121.354  0.00  0.00     0.109 C 
ATOM     16  O   LIG d   1      -5.833  95.306 119.060  0.00  0.00    -0.276 OA
ATOM     17  H   LIG d   1      -5.464  92.374 120.179  0.00  0.00     0.149 HD
ENDBRANCH   6  13
BRANCH   5  18
ATOM     18  N   LIG d   1      -7.912  93.405 117.553  0.00  0.00     0.381 N 
ATOM     19  H   LIG d   1      -7.473  94.192 117.116  0.00  0.00    -0.090 HD
ATOM     20  H   LIG d   1      -8.134  93.654 118.500  0.00  0.00    -0.090 HD
ATOM     21  H   LIG d   1      -8.744  93.164 117.060  0.00  0.00    -0.090 HD
ENDBRANCH   5  18
BRANCH   3  22
ATOM     22  C   LIG d   1      -6.146  89.748 115.014  0.00  0.00     0.382 C 
ATOM     23  O   LIG d   1      -7.281  89.625 114.493  0.00  0.00    -0.241 OA
ATOM     24  O   LIG d   1      -5.232  88.969 114.683  0.00  0.00    -0.241 OA
ENDBRANCH   3  22
TORSDOF 7
ENDMDL
MODEL 5
REMARK VINA RESULT:      -5.1     13.074     15.747
REMARK  7 active torsions:
REMARK  status: ('A' for Active; 'I' for Inactive)
REMARK    1  A    between atoms: C_2  and  C_3 
REMARK    2  A    between atoms: C_3  and  O_6 
REMARK    3  A    between atoms: C_3  and  C_4 
REMARK    4  A    between atoms: C_7  and  O_6 
REMARK    5  A    between atoms: C_9  and  C_10 
REMARK    6  A    between atoms: N_15  and  C_14 
REMARK    7  A    between atoms: N_20  and  C_19 
REMARK       I    between atoms: C_22  and  N_20 
ROOT
ATOM      1  C   LIG d   1      -2.660  76.909 114.798  0.00  0.00     0.161 C 
ATOM      2  C   LIG d   1      -2.386  75.814 115.635  0.00  0.00     0.016 C 
ATOM      3  C   LIG d   1      -1.460  75.863 116.702  0.00  0.00     0.038 C 
ATOM      4  C   LIG d   1      -0.852  77.062 117.102  0.00  0.00     0.028 C 
ATOM      5  C   LIG d   1      -0.715  78.077 115.973  0.00  0.00    -0.047 C 
ATOM      6  C   LIG d   1      -2.089  78.256 115.289  0.00  0.00     0.091 C 
ENDROOT
BRANCH   1   7
ATOM      7  O   LIG d   1      -4.081  77.015 114.583  0.00  0.00    -0.368 OA
BRANCH   7   8
ATOM      8  C   LIG d   1      -4.919  76.202 115.441  0.00  0.00     0.119 C 
BRANCH   8   9
ATOM      9  C   LIG d   1      -5.905  75.438 114.536  0.00  0.00     0.028 C 
ATOM     10  C   LIG d   1      -5.190  74.494 113.554  0.00  0.00     0.006 C 
ENDBRANCH   8   9
BRANCH   8  11
ATOM     11  C   LIG d   1      -5.793  77.069 116.351  0.00  0.00     0.028 C 
ATOM     12  C   LIG d   1      -7.222  76.525 116.500  0.00  0.00     0.006 C 
ENDBRANCH   8  11
ENDBRANCH   7   8
ENDBRANCH   1   7
BRANCH   6  13
ATOM     13  N   LIG d   1      -2.026  79.170 114.118  0.00  0.00    -0.311 N 
ATOM     14  C   LIG d   1      -2.687  80.324 114.052  0.00  0.00     0.210 C 
ATOM     15  C   LIG d   1      -2.499  81.104 112.748  0.00  0.00     0.109 C 
ATOM     16  O   LIG d   1      -3.387  80.791 114.964  0.00  0.00    -0.276 OA
ATOM     17  H   LIG d   1      -1.456  78.883 113.346  0.00  0.00     0.149 HD
ENDBRANCH   6  13
BRANCH   5  18
ATOM     18  N   LIG d   1      -0.194  79.327 116.558  0.00  0.00     0.381 N 
ATOM     19  H   LIG d   1      -0.304  80.078 115.906  0.00  0.00    -0.090 HD
ATOM     20  H   LIG d   1       0.787  79.214 116.746  0.00  0.00    -0.090 HD
ATOM     21  H   LIG d   1      -0.679  79.537 117.402  0.00  0.00    -0.090 HD
ENDBRANCH   5  18
BRANCH   3  22
ATOM     22  C   LIG d   1      -1.103  74.693 117.356  0.00  0.00     0.382 C 
ATOM     23  O   LIG d   1      -0.923  73.638 116.702  0.00  0.00    -0.241 OA
ATOM     24  O   LIG d   1      -1.003  74.669 118.598  0.00  0.00    -0.241 OA
ENDBRANCH   3  22
TORSDOF 7
ENDMDL
MODEL 6
REMARK VINA RESULT:      -5.0     13.804     16.443
REMARK  7 active torsions:
REMARK  status: ('A' for Active; 'I' for Inactive)
REMARK    1  A    between atoms: C_2  and  C_3 
REMARK    2  A    between atoms: C_3  and  O_6 
REMARK    3  A    between atoms: C_3  and  C_4 
REMARK    4  A    between atoms: C_7  and  O_6 
REMARK    5  A    between atoms: C_9  and  C_10 
REMARK    6  A    between atoms: N_15  and  C_14 
REMARK    7  A    between atoms: N_20  and  C_19 
REMARK       I    between atoms: C_22  and  N_20 
ROOT
ATOM      1  C   LIG d   1      -2.953  76.907 114.369  0.00  0.00     0.161 C 
ATOM      2  C   LIG d   1      -2.108  75.884 113.907  0.00  0.00     0.016 C 
ATOM      3  C   LIG d   1      -1.074  75.317 114.687  0.00  0.00     0.038 C 
ATOM      4  C   LIG d   1      -0.911  75.632 116.044  0.00  0.00     0.028 C 
ATOM      5  C   LIG d   1      -1.416  77.024 116.407  0.00  0.00    -0.047 C 
ATOM      6  C   LIG d   1      -2.862  77.186 115.884  0.00  0.00     0.091 C 
ENDROOT
BRANCH   1   7
ATOM      7  O   LIG d   1      -4.315  76.623 113.992  0.00  0.00    -0.368 OA
BRANCH   7   8
ATOM      8  C   LIG d   1      -5.047  75.733 114.871  0.00  0.00     0.119 C 
BRANCH   8   9
ATOM      9  C   LIG d   1      -5.102  74.352 114.188  0.00  0.00     0.028 C 
ATOM     10  C   LIG d   1      -6.057  73.382 114.904  0.00  0.00     0.006 C 
ENDBRANCH   8   9
BRANCH   8  11
ATOM     11  C   LIG d   1      -6.507  76.172 115.018  0.00  0.00     0.028 C 
ATOM     12  C   LIG d   1      -6.839  76.669 116.434  0.00  0.00     0.006 C 
ENDBRANCH   8  11
ENDBRANCH   7   8
ENDBRANCH   1   7
BRANCH   6  13
ATOM     13  N   LIG d   1      -3.402  78.549 116.123  0.00  0.00    -0.311 N 
ATOM     14  C   LIG d   1      -4.050  78.897 117.234  0.00  0.00     0.210 C 
ATOM     15  C   LIG d   1      -4.542  80.347 117.269  0.00  0.00     0.109 C 
ATOM     16  O   LIG d   1      -4.236  78.150 118.207  0.00  0.00    -0.276 OA
ATOM     17  H   LIG d   1      -3.269  79.227 115.398  0.00  0.00     0.149 HD
ENDBRANCH   6  13
BRANCH   5  18
ATOM     18  N   LIG d   1      -1.312  77.168 117.872  0.00  0.00     0.381 N 
ATOM     19  H   LIG d   1      -2.224  77.283 118.266  0.00  0.00    -0.090 HD
ATOM     20  H   LIG d   1      -0.772  77.989 118.080  0.00  0.00    -0.090 HD
ATOM     21  H   LIG d   1      -0.873  76.364 118.263  0.00  0.00    -0.090 HD
ENDBRANCH   5  18
BRANCH   3  22
ATOM     22  C   LIG d   1      -0.164  74.453 114.097  0.00  0.00     0.382 C 
ATOM     23  O   LIG d   1      -0.086  74.381 112.847  0.00  0.00    -0.241 OA
ATOM     24  O   LIG d   1       0.549  73.711 114.799  0.00  0.00    -0.241 OA
ENDBRANCH   3  22
TORSDOF 7
ENDMDL
MODEL 7
REMARK VINA RESULT:      -5.0     13.336     16.119
REMARK  7 active torsions:
REMARK  status: ('A' for Active; 'I' for Inactive)
REMARK    1  A    between atoms: C_2  and  C_3 
REMARK    2  A    between atoms: C_3  and  O_6 
REMARK    3  A    between atoms: C_3  and  C_4 
REMARK    4  A    between atoms: C_7  and  O_6 
REMARK    5  A    between atoms: C_9  and  C_10 
REMARK    6  A    between atoms: N_15  and  C_14 
REMARK    7  A    between atoms: N_20  and  C_19 
REMARK       I    between atoms: C_22  and  N_20 
ROOT
ATOM      1  C   LIG d   1      -2.967  76.214 115.521  0.00  0.00     0.161 C 
ATOM      2  C   LIG d   1      -3.676  77.141 116.303  0.00  0.00     0.016 C 
ATOM      3  C   LIG d   1      -3.516  78.541 116.186  0.00  0.00     0.038 C 
ATOM      4  C   LIG d   1      -2.741  79.116 115.168  0.00  0.00     0.028 C 
ATOM      5  C   LIG d   1      -1.614  78.211 114.680  0.00  0.00    -0.047 C 
ATOM      6  C   LIG d   1      -2.201  76.824 114.330  0.00  0.00     0.091 C 
ENDROOT
BRANCH   1   7
ATOM      7  O   LIG d   1      -3.859  75.177 115.065  0.00  0.00    -0.368 OA
BRANCH   7   8
ATOM      8  C   LIG d   1      -5.151  75.616 114.580  0.00  0.00     0.119 C 
BRANCH   8   9
ATOM      9  C   LIG d   1      -6.218  74.696 115.205  0.00  0.00     0.028 C 
ATOM     10  C   LIG d   1      -5.980  73.213 114.876  0.00  0.00     0.006 C 
ENDBRANCH   8   9
BRANCH   8  11
ATOM     11  C   LIG d   1      -5.277  75.411 113.067  0.00  0.00     0.028 C 
ATOM     12  C   LIG d   1      -6.202  76.442 112.401  0.00  0.00     0.006 C 
ENDBRANCH   8  11
ENDBRANCH   7   8
ENDBRANCH   1   7
BRANCH   6  13
ATOM     13  N   LIG d   1      -1.153  75.852 113.923  0.00  0.00    -0.311 N 
ATOM     14  C   LIG d   1      -0.239  75.366 114.762  0.00  0.00     0.210 C 
ATOM     15  C   LIG d   1       0.762  74.391 114.133  0.00  0.00     0.109 C 
ATOM     16  O   LIG d   1      -0.183  75.624 115.974  0.00  0.00    -0.276 OA
ATOM     17  H   LIG d   1      -1.145  75.564 112.965  0.00  0.00     0.149 HD
ENDBRANCH   6  13
BRANCH   5  18
ATOM     18  N   LIG d   1      -0.976  78.876 113.528  0.00  0.00     0.381 N 
ATOM     19  H   LIG d   1      -0.017  79.070 113.738  0.00  0.00    -0.090 HD
ATOM     20  H   LIG d   1      -1.444  79.748 113.356  0.00  0.00    -0.090 HD
ATOM     21  H   LIG d   1      -1.035  78.294 112.722  0.00  0.00    -0.090 HD
ENDBRANCH   5  18
BRANCH   3  22
ATOM     22  C   LIG d   1      -4.103  79.381 117.120  0.00  0.00     0.382 C 
ATOM     23  O   LIG d   1      -3.781  79.296 118.330  0.00  0.00    -0.241 OA
ATOM     24  O   LIG d   1      -4.984  80.191 116.775  0.00  0.00    -0.241 OA
ENDBRANCH   3  22
TORSDOF 7
ENDMDL
MODEL 8
REMARK VINA RESULT:      -5.0     12.896     15.064
REMARK  7 active torsions:
REMARK  status: ('A' for Active; 'I' for Inactive)
REMARK    1  A    between atoms: C_2  and  C_3 
REMARK    2  A    between atoms: C_3  and  O_6 
REMARK    3  A    between atoms: C_3  and  C_4 
REMARK    4  A    between atoms: C_7  and  O_6 
REMARK    5  A    between atoms: C_9  and  C_10 
REMARK    6  A    between atoms: N_15  and  C_14 
REMARK    7  A    between atoms: N_20  and  C_19 
REMARK       I    between atoms: C_22  and  N_20 
ROOT
ATOM      1  C   LIG d   1      -1.520  77.753 114.849  0.00  0.00     0.161 C 
ATOM      2  C   LIG d   1      -2.725  77.482 114.179  0.00  0.00     0.016 C 
ATOM      3  C   LIG d   1      -3.379  76.230 114.231  0.00  0.00     0.038 C 
ATOM      4  C   LIG d   1      -2.949  75.203 115.084  0.00  0.00     0.028 C 
ATOM      5  C   LIG d   1      -1.456  75.256 115.391  0.00  0.00    -0.047 C 
ATOM      6  C   LIG d   1      -1.094  76.680 115.873  0.00  0.00     0.091 C 
ENDROOT
BRANCH   1   7
ATOM      7  O   LIG d   1      -1.591  79.047 115.479  0.00  0.00    -0.368 OA
BRANCH   7   8
ATOM      8  C   LIG d   1      -2.762  79.843 115.170  0.00  0.00     0.119 C 
BRANCH   8   9
ATOM      9  C   LIG d   1      -2.283  81.088 114.398  0.00  0.00     0.028 C 
ATOM     10  C   LIG d   1      -2.732  81.075 112.927  0.00  0.00     0.006 C 
ENDBRANCH   8   9
BRANCH   8  11
ATOM     11  C   LIG d   1      -3.421  80.383 116.442  0.00  0.00     0.028 C 
ATOM     12  C   LIG d   1      -2.934  81.793 116.813  0.00  0.00     0.006 C 
ENDBRANCH   8  11
ENDBRANCH   7   8
ENDBRANCH   1   7
BRANCH   6  13
ATOM     13  N   LIG d   1       0.363  76.843 116.115  0.00  0.00    -0.311 N 
ATOM     14  C   LIG d   1       0.936  76.649 117.302  0.00  0.00     0.210 C 
ATOM     15  C   LIG d   1       2.448  76.890 117.338  0.00  0.00     0.109 C 
ATOM     16  O   LIG d   1       0.339  76.270 118.321  0.00  0.00    -0.276 OA
ATOM     17  H   LIG d   1       0.927  77.119 115.335  0.00  0.00     0.149 HD
ENDBRANCH   6  13
BRANCH   5  18
ATOM     18  N   LIG d   1      -1.170  74.216 116.396  0.00  0.00     0.381 N 
ATOM     19  H   LIG d   1      -1.615  74.449 117.261  0.00  0.00    -0.090 HD
ATOM     20  H   LIG d   1      -0.178  74.178 116.552  0.00  0.00    -0.090 HD
ATOM     21  H   LIG d   1      -1.497  73.331 116.074  0.00  0.00    -0.090 HD
ENDBRANCH   5  18
BRANCH   3  22
ATOM     22  C   LIG d   1      -4.456  75.982 113.392  0.00  0.00     0.382 C 
ATOM     23  O   LIG d   1      -4.854  76.873 112.604  0.00  0.00    -0.241 OA
ATOM     24  O   LIG d   1      -5.061  74.895 113.446  0.00  0.00    -0.241 OA
ENDBRANCH   3  22
TORSDOF 7
ENDMDL
MODEL 9
REMARK VINA RESULT:      -5.0     32.464     34.909
REMARK  7 active torsions:
REMARK  status: ('A' for Active; 'I' for Inactive)
REMARK    1  A    between atoms: C_2  and  C_3 
REMARK    2  A    between atoms: C_3  and  O_6 
REMARK    3  A    between atoms: C_3  and  C_4 
REMARK    4  A    between atoms: C_7  and  O_6 
REMARK    5  A    between atoms: C_9  and  C_10 
REMARK    6  A    between atoms: N_15  and  C_14 
REMARK    7  A    between atoms: N_20  and  C_19 
REMARK       I    between atoms: C_22  and  N_20 
ROOT
ATOM      1  C   LIG d   1      -1.105  57.818 117.887  0.00  0.00     0.161 C 
ATOM      2  C   LIG d   1       0.140  58.330 118.288  0.00  0.00     0.016 C 
ATOM      3  C   LIG d   1       1.369  57.682 118.027  0.00  0.00     0.038 C 
ATOM      4  C   LIG d   1       1.448  56.545 117.210  0.00  0.00     0.028 C 
ATOM      5  C   LIG d   1       0.170  55.712 117.205  0.00  0.00    -0.047 C 
ATOM      6  C   LIG d   1      -1.030  56.636 116.898  0.00  0.00     0.091 C 
ENDROOT
BRANCH   1   7
ATOM      7  O   LIG d   1      -1.916  58.877 117.341  0.00  0.00    -0.368 OA
BRANCH   7   8
ATOM      8  C   LIG d   1      -3.045  59.296 118.147  0.00  0.00     0.119 C 
BRANCH   8   9
ATOM      9  C   LIG d   1      -4.135  59.808 117.186  0.00  0.00     0.028 C 
ATOM     10  C   LIG d   1      -5.547  59.699 117.788  0.00  0.00     0.006 C 
ENDBRANCH   8   9
BRANCH   8  11
ATOM     11  C   LIG d   1      -2.686  60.495 119.029  0.00  0.00     0.028 C 
ATOM     12  C   LIG d   1      -3.040  60.274 120.509  0.00  0.00     0.006 C 
ENDBRANCH   8  11
ENDBRANCH   7   8
ENDBRANCH   1   7
BRANCH   6  13
ATOM     13  N   LIG d   1      -2.329  55.917 116.957  0.00  0.00    -0.311 N 
ATOM     14  C   LIG d   1      -2.587  54.940 117.825  0.00  0.00     0.210 C 
ATOM     15  C   LIG d   1      -3.982  54.318 117.703  0.00  0.00     0.109 C 
ATOM     16  O   LIG d   1      -1.805  54.551 118.705  0.00  0.00    -0.276 OA
ATOM     17  H   LIG d   1      -3.032  56.190 116.299  0.00  0.00     0.149 HD
ENDBRANCH   6  13
BRANCH   5  18
ATOM     18  N   LIG d   1       0.342  54.638 116.209  0.00  0.00     0.381 N 
ATOM     19  H   LIG d   1      -0.552  54.335 115.879  0.00  0.00    -0.090 HD
ATOM     20  H   LIG d   1       0.797  53.857 116.648  0.00  0.00    -0.090 HD
ATOM     21  H   LIG d   1       0.892  54.965 115.446  0.00  0.00    -0.090 HD
ENDBRANCH   5  18
BRANCH   3  22
ATOM     22  C   LIG d   1       2.532  58.149 118.621  0.00  0.00     0.382 C 
ATOM     23  O   LIG d   1       2.908  59.329 118.419  0.00  0.00    -0.241 OA
ATOM     24  O   LIG d   1       3.233  57.392 119.319  0.00  0.00    -0.241 OA
ENDBRANCH   3  22
TORSDOF 7
ENDMDL
