MODEL 1
REMARK VINA RESULT:      -5.5      0.000      0.000
REMARK  7 active torsions:
REMARK  status: ('A' for Active; 'I' for Inactive)
REMARK    1  A    between atoms: C_2  and  C_3 
REMARK    2  A    between atoms: C_3  and  O_6 
REMARK    3  A    between atoms: C_3  and  C_4 
REMARK    4  A    between atoms: C_7  and  O_6 
REMARK    5  A    between atoms: C_9  and  C_10 
REMARK    6  A    between atoms: N_15  and  C_14 
REMARK    7  A    between atoms: N_20  and  C_19 
REMARK       I    between atoms: C_22  and  N_20 
ROOT
ATOM      1  C   LIG d   1      -3.285  89.978 117.902  0.00  0.00     0.161 C 
ATOM      2  C   LIG d   1      -3.729  89.227 116.801  0.00  0.00     0.016 C 
ATOM      3  C   LIG d   1      -4.864  89.571 116.031  0.00  0.00     0.038 C 
ATOM      4  C   LIG d   1      -5.548  90.782 116.218  0.00  0.00     0.028 C 
ATOM      5  C   LIG d   1      -5.442  91.324 117.640  0.00  0.00    -0.047 C 
ATOM      6  C   LIG d   1      -3.952  91.361 118.053  0.00  0.00     0.091 C 
ENDROOT
BRANCH   1   7
ATOM      7  O   LIG d   1      -1.851  90.116 117.853  0.00  0.00    -0.368 OA
BRANCH   7   8
ATOM      8  C   LIG d   1      -1.088  89.076 118.511  0.00  0.00     0.119 C 
BRANCH   8   9
ATOM      9  C   LIG d   1      -0.695  89.602 119.905  0.00  0.00     0.028 C 
ATOM     10  C   LIG d   1      -1.643  89.104 121.009  0.00  0.00     0.006 C 
ENDBRANCH   8   9
BRANCH   8  11
ATOM     11  C   LIG d   1       0.237  88.815 117.788  0.00  0.00     0.028 C 
ATOM     12  C   LIG d   1       0.662  89.982 116.883  0.00  0.00     0.006 C 
ENDBRANCH   8  11
ENDBRANCH   7   8
ENDBRANCH   1   7
BRANCH   6  13
ATOM     13  N   LIG d   1      -3.765  91.800 119.460  0.00  0.00    -0.311 N 
ATOM     14  C   LIG d   1      -2.815  92.651 119.843  0.00  0.00     0.210 C 
ATOM     15  C   LIG d   1      -2.785  92.955 121.344  0.00  0.00     0.109 C 
ATOM     16  O   LIG d   1      -2.015  93.209 119.077  0.00  0.00    -0.276 OA
ATOM     17  H   LIG d   1      -4.391  91.420 120.143  0.00  0.00     0.149 HD
ENDBRANCH   6  13
BRANCH   5  18
ATOM     18  N   LIG d   1      -6.081  92.653 117.659  0.00  0.00     0.381 N 
ATOM     19  H   LIG d   1      -5.639  93.251 116.989  0.00  0.00    -0.090 HD
ATOM     20  H   LIG d   1      -5.961  93.058 118.570  0.00  0.00    -0.090 HD
ATOM     21  H   LIG d   1      -7.051  92.568 117.450  0.00  0.00    -0.090 HD
ENDBRANCH   5  18
BRANCH   3  22
ATOM     22  C   LIG d   1      -5.349  88.680 115.086  0.00  0.00     0.382 C 
ATOM     23  O   LIG d   1      -6.569  88.679 114.793  0.00  0.00    -0.241 OA
ATOM     24  O   LIG d   1      -4.591  87.847 114.555  0.00  0.00    -0.241 OA
ENDBRANCH   3  22
TORSDOF 7
ENDMDL
MODEL 2
REMARK VINA RESULT:      -5.5     13.379     14.799
REMARK  7 active torsions:
REMARK  status: ('A' for Active; 'I' for Inactive)
REMARK    1  A    between atoms: C_2  and  C_3 
REMARK    2  A    between atoms: C_3  and  O_6 
REMARK    3  A    between atoms: C_3  and  C_4 
REMARK    4  A    between atoms: C_7  and  O_6 
REMARK    5  A    between atoms: C_9  and  C_10 
REMARK    6  A    between atoms: N_15  and  C_14 
REMARK    7  A    between atoms: N_20  and  C_19 
REMARK       I    between atoms: C_22  and  N_20 
ROOT
ATOM      1  C   LIG d   1      -5.843  75.966 116.957  0.00  0.00     0.161 C 
ATOM      2  C   LIG d   1      -6.154  74.697 116.441  0.00  0.00     0.016 C 
ATOM      3  C   LIG d   1      -7.458  74.150 116.453  0.00  0.00     0.038 C 
ATOM      4  C   LIG d   1      -8.574  74.903 116.848  0.00  0.00     0.028 C 
ATOM      5  C   LIG d   1      -8.238  76.006 117.847  0.00  0.00    -0.047 C 
ATOM      6  C   LIG d   1      -7.066  76.846 117.291  0.00  0.00     0.091 C 
ENDROOT
BRANCH   1   7
ATOM      7  O   LIG d   1      -4.959  76.658 116.052  0.00  0.00    -0.368 OA
BRANCH   7   8
ATOM      8  C   LIG d   1      -3.711  75.991 115.745  0.00  0.00     0.119 C 
BRANCH   8   9
ATOM      9  C   LIG d   1      -2.767  76.200 116.946  0.00  0.00     0.028 C 
ATOM     10  C   LIG d   1      -2.293  74.871 117.557  0.00  0.00     0.006 C 
ENDBRANCH   8   9
BRANCH   8  11
ATOM     11  C   LIG d   1      -3.005  76.649 114.556  0.00  0.00     0.028 C 
ATOM     12  C   LIG d   1      -1.760  77.450 114.970  0.00  0.00     0.006 C 
ENDBRANCH   8  11
ENDBRANCH   7   8
ENDBRANCH   1   7
BRANCH   6  13
ATOM     13  N   LIG d   1      -6.618  77.895 118.244  0.00  0.00    -0.311 N 
ATOM     14  C   LIG d   1      -7.126  79.126 118.271  0.00  0.00     0.210 C 
ATOM     15  C   LIG d   1      -6.508  80.057 119.318  0.00  0.00     0.109 C 
ATOM     16  O   LIG d   1      -8.051  79.525 117.548  0.00  0.00    -0.276 OA
ATOM     17  H   LIG d   1      -5.892  77.647 118.887  0.00  0.00     0.149 HD
ENDBRANCH   6  13
BRANCH   5  18
ATOM     18  N   LIG d   1      -9.463  76.797 118.066  0.00  0.00     0.381 N 
ATOM     19  H   LIG d   1      -9.296  77.493 118.765  0.00  0.00    -0.090 HD
ATOM     20  H   LIG d   1     -10.189  76.186 118.397  0.00  0.00    -0.090 HD
ATOM     21  H   LIG d   1      -9.746  77.231 117.215  0.00  0.00    -0.090 HD
ENDBRANCH   5  18
BRANCH   3  22
ATOM     22  C   LIG d   1      -7.649  72.822 116.104  0.00  0.00     0.382 C 
ATOM     23  O   LIG d   1      -8.708  72.234 116.432  0.00  0.00    -0.241 OA
ATOM     24  O   LIG d   1      -6.758  72.192 115.503  0.00  0.00    -0.241 OA
ENDBRANCH   3  22
TORSDOF 7
ENDMDL
MODEL 3
REMARK VINA RESULT:      -5.4     13.329     15.241
REMARK  7 active torsions:
REMARK  status: ('A' for Active; 'I' for Inactive)
REMARK    1  A    between atoms: C_2  and  C_3 
REMARK    2  A    between atoms: C_3  and  O_6 
REMARK    3  A    between atoms: C_3  and  C_4 
REMARK    4  A    between atoms: C_7  and  O_6 
REMARK    5  A    between atoms: C_9  and  C_10 
REMARK    6  A    between atoms: N_15  and  C_14 
REMARK    7  A    between atoms: N_20  and  C_19 
REMARK       I    between atoms: C_22  and  N_20 
ROOT
ATOM      1  C   LIG d   1      -5.732  75.959 117.049  0.00  0.00     0.161 C 
ATOM      2  C   LIG d   1      -4.542  75.216 116.964  0.00  0.00     0.016 C 
ATOM      3  C   LIG d   1      -3.327  75.623 117.561  0.00  0.00     0.038 C 
ATOM      4  C   LIG d   1      -3.255  76.733 118.415  0.00  0.00     0.028 C 
ATOM      5  C   LIG d   1      -4.312  77.793 118.121  0.00  0.00    -0.047 C 
ATOM      6  C   LIG d   1      -5.701  77.115 118.069  0.00  0.00     0.091 C 
ENDROOT
BRANCH   1   7
ATOM      7  O   LIG d   1      -6.839  75.078 117.323  0.00  0.00    -0.368 OA
BRANCH   7   8
ATOM      8  C   LIG d   1      -7.546  74.564 116.168  0.00  0.00     0.119 C 
BRANCH   8   9
ATOM      9  C   LIG d   1      -9.042  74.878 116.363  0.00  0.00     0.028 C 
ATOM     10  C   LIG d   1      -9.312  75.674 117.652  0.00  0.00     0.006 C 
ENDBRANCH   8   9
BRANCH   8  11
ATOM     11  C   LIG d   1      -7.458  73.037 116.094  0.00  0.00     0.028 C 
ATOM     12  C   LIG d   1      -7.485  72.371 117.479  0.00  0.00     0.006 C 
ENDBRANCH   8  11
ENDBRANCH   7   8
ENDBRANCH   1   7
BRANCH   6  13
ATOM     13  N   LIG d   1      -6.782  78.067 117.704  0.00  0.00    -0.311 N 
ATOM     14  C   LIG d   1      -7.513  78.726 118.601  0.00  0.00     0.210 C 
ATOM     15  C   LIG d   1      -8.590  79.643 118.011  0.00  0.00     0.109 C 
ATOM     16  O   LIG d   1      -7.351  78.663 119.829  0.00  0.00    -0.276 OA
ATOM     17  H   LIG d   1      -6.961  78.202 116.728  0.00  0.00     0.149 HD
ENDBRANCH   6  13
BRANCH   5  18
ATOM     18  N   LIG d   1      -4.212  78.826 119.170  0.00  0.00     0.381 N 
ATOM     19  H   LIG d   1      -3.962  78.401 120.041  0.00  0.00    -0.090 HD
ATOM     20  H   LIG d   1      -5.108  79.266 119.279  0.00  0.00    -0.090 HD
ATOM     21  H   LIG d   1      -3.528  79.504 118.915  0.00  0.00    -0.090 HD
ENDBRANCH   5  18
BRANCH   3  22
ATOM     22  C   LIG d   1      -2.156  74.938 117.271  0.00  0.00     0.382 C 
ATOM     23  O   LIG d   1      -1.525  75.193 116.217  0.00  0.00    -0.241 OA
ATOM     24  O   LIG d   1      -1.747  74.038 118.029  0.00  0.00    -0.241 OA
ENDBRANCH   3  22
TORSDOF 7
ENDMDL
MODEL 4
REMARK VINA RESULT:      -5.4     11.679     13.481
REMARK  7 active torsions:
REMARK  status: ('A' for Active; 'I' for Inactive)
REMARK    1  A    between atoms: C_2  and  C_3 
REMARK    2  A    between atoms: C_3  and  O_6 
REMARK    3  A    between atoms: C_3  and  C_4 
REMARK    4  A    between atoms: C_7  and  O_6 
REMARK    5  A    between atoms: C_9  and  C_10 
REMARK    6  A    between atoms: N_15  and  C_14 
REMARK    7  A    between atoms: N_20  and  C_19 
REMARK       I    between atoms: C_22  and  N_20 
ROOT
ATOM      1  C   LIG d   1      -6.355  77.545 117.565  0.00  0.00     0.161 C 
ATOM      2  C   LIG d   1      -7.720  77.404 117.865  0.00  0.00     0.016 C 
ATOM      3  C   LIG d   1      -8.544  78.481 118.265  0.00  0.00     0.038 C 
ATOM      4  C   LIG d   1      -8.091  79.808 118.246  0.00  0.00     0.028 C 
ATOM      5  C   LIG d   1      -6.584  79.937 118.436  0.00  0.00    -0.047 C 
ATOM      6  C   LIG d   1      -5.870  79.004 117.430  0.00  0.00     0.091 C 
ENDROOT
BRANCH   1   7
ATOM      7  O   LIG d   1      -6.038  76.800 116.373  0.00  0.00    -0.368 OA
BRANCH   7   8
ATOM      8  C   LIG d   1      -5.497  75.471 116.577  0.00  0.00     0.119 C 
BRANCH   8   9
ATOM      9  C   LIG d   1      -3.994  75.527 116.241  0.00  0.00     0.028 C 
ATOM     10  C   LIG d   1      -3.732  75.976 114.793  0.00  0.00     0.006 C 
ENDBRANCH   8   9
BRANCH   8  11
ATOM     11  C   LIG d   1      -6.097  74.468 115.588  0.00  0.00     0.028 C 
ATOM     12  C   LIG d   1      -7.524  74.040 115.965  0.00  0.00     0.006 C 
ENDBRANCH   8  11
ENDBRANCH   7   8
ENDBRANCH   1   7
BRANCH   6  13
ATOM     13  N   LIG d   1      -4.394  79.005 117.605  0.00  0.00    -0.311 N 
ATOM     14  C   LIG d   1      -3.538  79.231 116.610  0.00  0.00     0.210 C 
ATOM     15  C   LIG d   1      -2.059  79.167 117.003  0.00  0.00     0.109 C 
ATOM     16  O   LIG d   1      -3.864  79.510 115.447  0.00  0.00    -0.276 OA
ATOM     17  H   LIG d   1      -4.044  78.818 118.524  0.00  0.00     0.149 HD
ENDBRANCH   6  13
BRANCH   5  18
ATOM     18  N   LIG d   1      -6.231  81.358 118.256  0.00  0.00     0.381 N 
ATOM     19  H   LIG d   1      -5.237  81.463 118.261  0.00  0.00    -0.090 HD
ATOM     20  H   LIG d   1      -6.608  81.885 119.024  0.00  0.00    -0.090 HD
ATOM     21  H   LIG d   1      -6.604  81.696 117.397  0.00  0.00    -0.090 HD
ENDBRANCH   5  18
BRANCH   3  22
ATOM     22  C   LIG d   1      -9.827  78.229 118.729  0.00  0.00     0.382 C 
ATOM     23  O   LIG d   1     -10.531  77.349 118.179  0.00  0.00    -0.241 OA
ATOM     24  O   LIG d   1     -10.304  78.901 119.663  0.00  0.00    -0.241 OA
ENDBRANCH   3  22
TORSDOF 7
ENDMDL
MODEL 5
REMARK VINA RESULT:      -5.3     13.343     15.257
REMARK  7 active torsions:
REMARK  status: ('A' for Active; 'I' for Inactive)
REMARK    1  A    between atoms: C_2  and  C_3 
REMARK    2  A    between atoms: C_3  and  O_6 
REMARK    3  A    between atoms: C_3  and  C_4 
REMARK    4  A    between atoms: C_7  and  O_6 
REMARK    5  A    between atoms: C_9  and  C_10 
REMARK    6  A    between atoms: N_15  and  C_14 
REMARK    7  A    between atoms: N_20  and  C_19 
REMARK       I    between atoms: C_22  and  N_20 
ROOT
ATOM      1  C   LIG d   1      -7.790  76.385 117.294  0.00  0.00     0.161 C 
ATOM      2  C   LIG d   1      -8.061  75.038 117.002  0.00  0.00     0.016 C 
ATOM      3  C   LIG d   1      -7.072  74.119 116.581  0.00  0.00     0.038 C 
ATOM      4  C   LIG d   1      -5.709  74.451 116.570  0.00  0.00     0.028 C 
ATOM      5  C   LIG d   1      -5.449  75.940 116.372  0.00  0.00    -0.047 C 
ATOM      6  C   LIG d   1      -6.291  76.737 117.395  0.00  0.00     0.091 C 
ENDROOT
BRANCH   1   7
ATOM      7  O   LIG d   1      -8.478  76.771 118.501  0.00  0.00    -0.368 OA
BRANCH   7   8
ATOM      8  C   LIG d   1      -9.837  77.243 118.337  0.00  0.00     0.119 C 
BRANCH   8   9
ATOM      9  C   LIG d   1      -9.936  78.619 119.023  0.00  0.00     0.028 C 
ATOM     10  C   LIG d   1      -9.441  79.762 118.121  0.00  0.00     0.006 C 
ENDBRANCH   8   9
BRANCH   8  11
ATOM     11  C   LIG d   1     -10.832  76.347 119.081  0.00  0.00     0.028 C 
ATOM     12  C   LIG d   1     -10.337  75.938 120.477  0.00  0.00     0.006 C 
ENDBRANCH   8  11
ENDBRANCH   7   8
ENDBRANCH   1   7
BRANCH   6  13
ATOM     13  N   LIG d   1      -6.161  78.206 117.214  0.00  0.00    -0.311 N 
ATOM     14  C   LIG d   1      -5.286  78.952 117.886  0.00  0.00     0.210 C 
ATOM     15  C   LIG d   1      -5.330  80.449 117.563  0.00  0.00     0.109 C 
ATOM     16  O   LIG d   1      -4.455  78.512 118.695  0.00  0.00    -0.276 OA
ATOM     17  H   LIG d   1      -6.775  78.641 116.554  0.00  0.00     0.149 HD
ENDBRANCH   6  13
BRANCH   5  18
ATOM     18  N   LIG d   1      -3.999  76.163 116.519  0.00  0.00     0.381 N 
ATOM     19  H   LIG d   1      -3.740  77.020 116.070  0.00  0.00    -0.090 HD
ATOM     20  H   LIG d   1      -3.507  75.411 116.069  0.00  0.00    -0.090 HD
ATOM     21  H   LIG d   1      -3.755  76.199 117.484  0.00  0.00    -0.090 HD
ENDBRANCH   5  18
BRANCH   3  22
ATOM     22  C   LIG d   1      -7.448  72.864 116.128  0.00  0.00     0.382 C 
ATOM     23  O   LIG d   1      -8.560  72.385 116.459  0.00  0.00    -0.241 OA
ATOM     24  O   LIG d   1      -6.672  72.186 115.428  0.00  0.00    -0.241 OA
ENDBRANCH   3  22
TORSDOF 7
ENDMDL
MODEL 6
REMARK VINA RESULT:      -5.0     30.356     31.726
REMARK  7 active torsions:
REMARK  status: ('A' for Active; 'I' for Inactive)
REMARK    1  A    between atoms: C_2  and  C_3 
REMARK    2  A    between atoms: C_3  and  O_6 
REMARK    3  A    between atoms: C_3  and  C_4 
REMARK    4  A    between atoms: C_7  and  O_6 
REMARK    5  A    between atoms: C_9  and  C_10 
REMARK    6  A    between atoms: N_15  and  C_14 
REMARK    7  A    between atoms: N_20  and  C_19 
REMARK       I    between atoms: C_22  and  N_20 
ROOT
ATOM      1  C   LIG d   1       1.021  58.787 119.934  0.00  0.00     0.161 C 
ATOM      2  C   LIG d   1       0.750  59.129 118.599  0.00  0.00     0.016 C 
ATOM      3  C   LIG d   1      -0.429  59.794 118.190  0.00  0.00     0.038 C 
ATOM      4  C   LIG d   1      -1.354  60.299 119.116  0.00  0.00     0.028 C 
ATOM      5  C   LIG d   1      -1.370  59.535 120.435  0.00  0.00    -0.047 C 
ATOM      6  C   LIG d   1       0.076  59.429 120.971  0.00  0.00     0.091 C 
ENDROOT
BRANCH   1   7
ATOM      7  O   LIG d   1       2.394  59.096 120.249  0.00  0.00    -0.368 OA
BRANCH   7   8
ATOM      8  C   LIG d   1       3.359  58.048 119.985  0.00  0.00     0.119 C 
BRANCH   8   9
ATOM      9  C   LIG d   1       2.889  56.786 120.735  0.00  0.00     0.028 C 
ATOM     10  C   LIG d   1       3.558  56.639 122.112  0.00  0.00     0.006 C 
ENDBRANCH   8   9
BRANCH   8  11
ATOM     11  C   LIG d   1       4.728  58.389 120.583  0.00  0.00     0.028 C 
ATOM     12  C   LIG d   1       5.292  59.718 120.058  0.00  0.00     0.006 C 
ENDBRANCH   8  11
ENDBRANCH   7   8
ENDBRANCH   1   7
BRANCH   6  13
ATOM     13  N   LIG d   1       0.161  58.622 122.217  0.00  0.00    -0.311 N 
ATOM     14  C   LIG d   1       0.691  59.078 123.350  0.00  0.00     0.210 C 
ATOM     15  C   LIG d   1       0.698  58.077 124.510  0.00  0.00     0.109 C 
ATOM     16  O   LIG d   1       1.128  60.227 123.515  0.00  0.00    -0.276 OA
ATOM     17  H   LIG d   1      -0.199  57.689 122.181  0.00  0.00     0.149 HD
ENDBRANCH   6  13
BRANCH   5  18
ATOM     18  N   LIG d   1      -2.276  60.250 121.354  0.00  0.00     0.381 N 
ATOM     19  H   LIG d   1      -2.174  59.888 122.281  0.00  0.00    -0.090 HD
ATOM     20  H   LIG d   1      -3.225  60.098 121.058  0.00  0.00    -0.090 HD
ATOM     21  H   LIG d   1      -2.070  61.225 121.345  0.00  0.00    -0.090 HD
ENDBRANCH   5  18
BRANCH   3  22
ATOM     22  C   LIG d   1      -0.711  59.923 116.839  0.00  0.00     0.382 C 
ATOM     23  O   LIG d   1       0.194  60.263 116.039  0.00  0.00    -0.241 OA
ATOM     24  O   LIG d   1      -1.870  59.748 116.416  0.00  0.00    -0.241 OA
ENDBRANCH   3  22
TORSDOF 7
ENDMDL
MODEL 7
REMARK VINA RESULT:      -5.0     13.561     15.285
REMARK  7 active torsions:
REMARK  status: ('A' for Active; 'I' for Inactive)
REMARK    1  A    between atoms: C_2  and  C_3 
REMARK    2  A    between atoms: C_3  and  O_6 
REMARK    3  A    between atoms: C_3  and  C_4 
REMARK    4  A    between atoms: C_7  and  O_6 
REMARK    5  A    between atoms: C_9  and  C_10 
REMARK    6  A    between atoms: N_15  and  C_14 
REMARK    7  A    between atoms: N_20  and  C_19 
REMARK       I    between atoms: C_22  and  N_20 
ROOT
ATOM      1  C   LIG d   1      -8.650  76.088 118.512  0.00  0.00     0.161 C 
ATOM      2  C   LIG d   1      -9.785  75.809 119.292  0.00  0.00     0.016 C 
ATOM      3  C   LIG d   1     -10.274  76.680 120.293  0.00  0.00     0.038 C 
ATOM      4  C   LIG d   1      -9.745  77.966 120.480  0.00  0.00     0.028 C 
ATOM      5  C   LIG d   1      -8.284  78.087 120.061  0.00  0.00    -0.047 C 
ATOM      6  C   LIG d   1      -8.126  77.535 118.626  0.00  0.00     0.091 C 
ENDROOT
BRANCH   1   7
ATOM      7  O   LIG d   1      -8.911  75.756 117.134  0.00  0.00    -0.368 OA
BRANCH   7   8
ATOM      8  C   LIG d   1      -8.210  74.600 116.613  0.00  0.00     0.119 C 
BRANCH   8   9
ATOM      9  C   LIG d   1      -7.461  73.944 117.789  0.00  0.00     0.028 C 
ATOM     10  C   LIG d   1      -7.856  72.471 117.987  0.00  0.00     0.006 C 
ENDBRANCH   8   9
BRANCH   8  11
ATOM     11  C   LIG d   1      -7.120  75.011 115.618  0.00  0.00     0.028 C 
ATOM     12  C   LIG d   1      -5.701  74.822 116.176  0.00  0.00     0.006 C 
ENDBRANCH   8  11
ENDBRANCH   7   8
ENDBRANCH   1   7
BRANCH   6  13
ATOM     13  N   LIG d   1      -6.712  77.538 118.169  0.00  0.00    -0.311 N 
ATOM     14  C   LIG d   1      -6.159  78.550 117.503  0.00  0.00     0.210 C 
ATOM     15  C   LIG d   1      -4.694  78.341 117.109  0.00  0.00     0.109 C 
ATOM     16  O   LIG d   1      -6.734  79.614 117.228  0.00  0.00    -0.276 OA
ATOM     17  H   LIG d   1      -6.164  76.726 118.377  0.00  0.00     0.149 HD
ENDBRANCH   6  13
BRANCH   5  18
ATOM     18  N   LIG d   1      -7.902  79.507 120.180  0.00  0.00     0.381 N 
ATOM     19  H   LIG d   1      -7.295  79.630 120.965  0.00  0.00    -0.090 HD
ATOM     20  H   LIG d   1      -8.731  80.054 120.333  0.00  0.00    -0.090 HD
ATOM     21  H   LIG d   1      -7.446  79.808 119.347  0.00  0.00    -0.090 HD
ENDBRANCH   5  18
BRANCH   3  22
ATOM     22  C   LIG d   1     -11.279  76.250 121.147  0.00  0.00     0.382 C 
ATOM     23  O   LIG d   1     -11.623  76.964 122.119  0.00  0.00    -0.241 OA
ATOM     24  O   LIG d   1     -11.814  75.137 120.983  0.00  0.00    -0.241 OA
ENDBRANCH   3  22
TORSDOF 7
ENDMDL
MODEL 8
REMARK VINA RESULT:      -4.8     13.147     14.893
REMARK  7 active torsions:
REMARK  status: ('A' for Active; 'I' for Inactive)
REMARK    1  A    between atoms: C_2  and  C_3 
REMARK    2  A    between atoms: C_3  and  O_6 
REMARK    3  A    between atoms: C_3  and  C_4 
REMARK    4  A    between atoms: C_7  and  O_6 
REMARK    5  A    between atoms: C_9  and  C_10 
REMARK    6  A    between atoms: N_15  and  C_14 
REMARK    7  A    between atoms: N_20  and  C_19 
REMARK       I    between atoms: C_22  and  N_20 
ROOT
ATOM      1  C   LIG d   1      -6.220  76.674 117.225  0.00  0.00     0.161 C 
ATOM      2  C   LIG d   1      -6.237  78.049 117.513  0.00  0.00     0.016 C 
ATOM      3  C   LIG d   1      -7.384  78.734 117.977  0.00  0.00     0.038 C 
ATOM      4  C   LIG d   1      -8.560  78.055 118.329  0.00  0.00     0.028 C 
ATOM      5  C   LIG d   1      -8.750  76.742 117.577  0.00  0.00    -0.047 C 
ATOM      6  C   LIG d   1      -7.463  75.897 117.708  0.00  0.00     0.091 C 
ENDROOT
BRANCH   1   7
ATOM      7  O   LIG d   1      -5.019  76.078 117.753  0.00  0.00    -0.368 OA
BRANCH   7   8
ATOM      8  C   LIG d   1      -4.089  75.547 116.778  0.00  0.00     0.119 C 
BRANCH   8   9
ATOM      9  C   LIG d   1      -2.974  74.817 117.551  0.00  0.00     0.028 C 
ATOM     10  C   LIG d   1      -1.894  75.779 118.073  0.00  0.00     0.006 C 
ENDBRANCH   8   9
BRANCH   8  11
ATOM     11  C   LIG d   1      -3.383  76.670 116.012  0.00  0.00     0.028 C 
ATOM     12  C   LIG d   1      -3.071  76.293 114.555  0.00  0.00     0.006 C 
ENDBRANCH   8  11
ENDBRANCH   7   8
ENDBRANCH   1   7
BRANCH   6  13
ATOM     13  N   LIG d   1      -7.533  74.633 116.931  0.00  0.00    -0.311 N 
ATOM     14  C   LIG d   1      -7.817  73.451 117.478  0.00  0.00     0.210 C 
ATOM     15  C   LIG d   1      -7.818  72.271 116.501  0.00  0.00     0.109 C 
ATOM     16  O   LIG d   1      -8.099  73.274 118.672  0.00  0.00    -0.276 OA
ATOM     17  H   LIG d   1      -7.348  74.690 115.949  0.00  0.00     0.149 HD
ENDBRANCH   6  13
BRANCH   5  18
ATOM     18  N   LIG d   1      -9.940  76.075 118.139  0.00  0.00     0.381 N 
ATOM     19  H   LIG d   1     -10.552  75.795 117.399  0.00  0.00    -0.090 HD
ATOM     20  H   LIG d   1     -10.431  76.726 118.726  0.00  0.00    -0.090 HD
ATOM     21  H   LIG d   1      -9.665  75.279 118.671  0.00  0.00    -0.090 HD
ENDBRANCH   5  18
BRANCH   3  22
ATOM     22  C   LIG d   1      -7.374  80.118 118.054  0.00  0.00     0.382 C 
ATOM     23  O   LIG d   1      -6.787  80.689 119.004  0.00  0.00    -0.241 OA
ATOM     24  O   LIG d   1      -7.982  80.802 117.209  0.00  0.00    -0.241 OA
ENDBRANCH   3  22
TORSDOF 7
ENDMDL
MODEL 9
REMARK VINA RESULT:      -4.8     24.131     25.892
REMARK  7 active torsions:
REMARK  status: ('A' for Active; 'I' for Inactive)
REMARK    1  A    between atoms: C_2  and  C_3 
REMARK    2  A    between atoms: C_3  and  O_6 
REMARK    3  A    between atoms: C_3  and  C_4 
REMARK    4  A    between atoms: C_7  and  O_6 
REMARK    5  A    between atoms: C_9  and  C_10 
REMARK    6  A    between atoms: N_15  and  C_14 
REMARK    7  A    between atoms: N_20  and  C_19 
REMARK       I    between atoms: C_22  and  N_20 
ROOT
ATOM      1  C   LIG d   1     -12.905  67.338 122.207  0.00  0.00     0.161 C 
ATOM      2  C   LIG d   1     -11.786  66.878 122.920  0.00  0.00     0.016 C 
ATOM      3  C   LIG d   1     -11.169  65.628 122.679  0.00  0.00     0.038 C 
ATOM      4  C   LIG d   1     -11.541  64.814 121.598  0.00  0.00     0.028 C 
ATOM      5  C   LIG d   1     -12.991  65.006 121.167  0.00  0.00    -0.047 C 
ATOM      6  C   LIG d   1     -13.256  66.513 120.951  0.00  0.00     0.091 C 
ENDROOT
BRANCH   1   7
ATOM      7  O   LIG d   1     -12.727  68.726 121.861  0.00  0.00    -0.368 OA
BRANCH   7   8
ATOM      8  C   LIG d   1     -13.330  69.689 122.760  0.00  0.00     0.119 C 
BRANCH   8   9
ATOM      9  C   LIG d   1     -14.317  70.538 121.935  0.00  0.00     0.028 C 
ATOM     10  C   LIG d   1     -13.978  72.037 121.976  0.00  0.00     0.006 C 
ENDBRANCH   8   9
BRANCH   8  11
ATOM     11  C   LIG d   1     -12.292  70.679 123.294  0.00  0.00     0.028 C 
ATOM     12  C   LIG d   1     -11.702  70.253 124.648  0.00  0.00     0.006 C 
ENDBRANCH   8  11
ENDBRANCH   7   8
ENDBRANCH   1   7
BRANCH   6  13
ATOM     13  N   LIG d   1     -14.674  66.796 120.608  0.00  0.00    -0.311 N 
ATOM     14  C   LIG d   1     -15.101  66.998 119.363  0.00  0.00     0.210 C 
ATOM     15  C   LIG d   1     -16.598  67.294 119.233  0.00  0.00     0.109 C 
ATOM     16  O   LIG d   1     -14.388  66.928 118.351  0.00  0.00    -0.276 OA
ATOM     17  H   LIG d   1     -15.326  66.840 121.366  0.00  0.00     0.149 HD
ENDBRANCH   6  13
BRANCH   5  18
ATOM     18  N   LIG d   1     -13.203  64.201 119.949  0.00  0.00     0.381 N 
ATOM     19  H   LIG d   1     -12.326  64.029 119.499  0.00  0.00    -0.090 HD
ATOM     20  H   LIG d   1     -13.787  64.718 119.315  0.00  0.00    -0.090 HD
ATOM     21  H   LIG d   1     -13.639  63.336 120.183  0.00  0.00    -0.090 HD
ENDBRANCH   5  18
BRANCH   3  22
ATOM     22  C   LIG d   1     -10.195  65.163 123.549  0.00  0.00     0.382 C 
ATOM     23  O   LIG d   1      -9.870  65.847 124.549  0.00  0.00    -0.241 OA
ATOM     24  O   LIG d   1      -9.605  64.090 123.322  0.00  0.00    -0.241 OA
ENDBRANCH   3  22
TORSDOF 7
ENDMDL
