MODEL 1
REMARK VINA RESULT:      -5.5      0.000      0.000
REMARK  7 active torsions:
REMARK  status: ('A' for Active; 'I' for Inactive)
REMARK    1  A    between atoms: C_2  and  C_3 
REMARK    2  A    between atoms: C_3  and  O_6 
REMARK    3  A    between atoms: C_3  and  C_4 
REMARK    4  A    between atoms: C_7  and  O_6 
REMARK    5  A    between atoms: C_9  and  C_10 
REMARK    6  A    between atoms: N_15  and  C_14 
REMARK    7  A    between atoms: N_20  and  C_19 
REMARK       I    between atoms: C_22  and  N_20 
ROOT
ATOM      1  C   LIG d   1      -5.792  92.792 116.834  0.00  0.00     0.161 C 
ATOM      2  C   LIG d   1      -6.727  91.847 116.380  0.00  0.00     0.016 C 
ATOM      3  C   LIG d   1      -6.536  90.450 116.487  0.00  0.00     0.038 C 
ATOM      4  C   LIG d   1      -5.457  89.902 117.197  0.00  0.00     0.028 C 
ATOM      5  C   LIG d   1      -4.232  90.809 117.234  0.00  0.00    -0.047 C 
ATOM      6  C   LIG d   1      -4.662  92.214 117.711  0.00  0.00     0.091 C 
ENDROOT
BRANCH   1   7
ATOM      7  O   LIG d   1      -6.472  93.856 117.530  0.00  0.00    -0.368 OA
BRANCH   7   8
ATOM      8  C   LIG d   1      -7.188  93.477 118.731  0.00  0.00     0.119 C 
BRANCH   8   9
ATOM      9  C   LIG d   1      -8.637  93.980 118.585  0.00  0.00     0.028 C 
ATOM     10  C   LIG d   1      -9.399  93.972 119.920  0.00  0.00     0.006 C 
ENDBRANCH   8   9
BRANCH   8  11
ATOM     11  C   LIG d   1      -6.631  94.197 119.963  0.00  0.00     0.028 C 
ATOM     12  C   LIG d   1      -5.798  95.437 119.602  0.00  0.00     0.006 C 
ENDBRANCH   8  11
ENDBRANCH   7   8
ENDBRANCH   1   7
BRANCH   6  13
ATOM     13  N   LIG d   1      -3.538  93.187 117.695  0.00  0.00    -0.311 N 
ATOM     14  C   LIG d   1      -2.794  93.465 118.764  0.00  0.00     0.210 C 
ATOM     15  C   LIG d   1      -1.699  94.512 118.536  0.00  0.00     0.109 C 
ATOM     16  O   LIG d   1      -2.916  92.921 119.872  0.00  0.00    -0.276 OA
ATOM     17  H   LIG d   1      -3.349  93.652 116.829  0.00  0.00     0.149 HD
ENDBRANCH   6  13
BRANCH   5  18
ATOM     18  N   LIG d   1      -3.236  90.176 118.119  0.00  0.00     0.381 N 
ATOM     19  H   LIG d   1      -2.763  89.443 117.629  0.00  0.00    -0.090 HD
ATOM     20  H   LIG d   1      -3.711  89.773 118.907  0.00  0.00    -0.090 HD
ATOM     21  H   LIG d   1      -2.577  90.856 118.431  0.00  0.00    -0.090 HD
ENDBRANCH   5  18
BRANCH   3  22
ATOM     22  C   LIG d   1      -7.409  89.586 115.845  0.00  0.00     0.382 C 
ATOM     23  O   LIG d   1      -7.501  89.603 114.594  0.00  0.00    -0.241 OA
ATOM     24  O   LIG d   1      -8.139  88.821 116.503  0.00  0.00    -0.241 OA
ENDBRANCH   3  22
TORSDOF 7
ENDMDL
MODEL 2
REMARK VINA RESULT:      -5.3     14.020     16.122
REMARK  7 active torsions:
REMARK  status: ('A' for Active; 'I' for Inactive)
REMARK    1  A    between atoms: C_2  and  C_3 
REMARK    2  A    between atoms: C_3  and  O_6 
REMARK    3  A    between atoms: C_3  and  C_4 
REMARK    4  A    between atoms: C_7  and  O_6 
REMARK    5  A    between atoms: C_9  and  C_10 
REMARK    6  A    between atoms: N_15  and  C_14 
REMARK    7  A    between atoms: N_20  and  C_19 
REMARK       I    between atoms: C_22  and  N_20 
ROOT
ATOM      1  C   LIG d   1      -2.171  77.669 116.200  0.00  0.00     0.161 C 
ATOM      2  C   LIG d   1      -2.593  78.484 115.136  0.00  0.00     0.016 C 
ATOM      3  C   LIG d   1      -1.958  78.504 113.873  0.00  0.00     0.038 C 
ATOM      4  C   LIG d   1      -0.944  77.594 113.538  0.00  0.00     0.028 C 
ATOM      5  C   LIG d   1      -0.151  77.101 114.743  0.00  0.00    -0.047 C 
ATOM      6  C   LIG d   1      -1.137  76.590 115.818  0.00  0.00     0.091 C 
ENDROOT
BRANCH   1   7
ATOM      7  O   LIG d   1      -3.315  77.064 116.835  0.00  0.00    -0.368 OA
BRANCH   7   8
ATOM      8  C   LIG d   1      -4.514  76.966 116.028  0.00  0.00     0.119 C 
BRANCH   8   9
ATOM      9  C   LIG d   1      -5.710  77.330 116.930  0.00  0.00     0.028 C 
ATOM     10  C   LIG d   1      -5.828  78.845 117.165  0.00  0.00     0.006 C 
ENDBRANCH   8   9
BRANCH   8  11
ATOM     11  C   LIG d   1      -4.768  75.523 115.581  0.00  0.00     0.028 C 
ATOM     12  C   LIG d   1      -6.120  75.349 114.871  0.00  0.00     0.006 C 
ENDBRANCH   8  11
ENDBRANCH   7   8
ENDBRANCH   1   7
BRANCH   6  13
ATOM     13  N   LIG d   1      -0.447  76.167 117.065  0.00  0.00    -0.311 N 
ATOM     14  C   LIG d   1      -0.689  75.010 117.680  0.00  0.00     0.210 C 
ATOM     15  C   LIG d   1       0.117  74.779 118.962  0.00  0.00     0.109 C 
ATOM     16  O   LIG d   1      -1.471  74.140 117.268  0.00  0.00    -0.276 OA
ATOM     17  H   LIG d   1       0.226  76.799 117.451  0.00  0.00     0.149 HD
ENDBRANCH   6  13
BRANCH   5  18
ATOM     18  N   LIG d   1       0.779  76.058 114.268  0.00  0.00     0.381 N 
ATOM     19  H   LIG d   1       0.860  75.337 114.958  0.00  0.00    -0.090 HD
ATOM     20  H   LIG d   1       1.686  76.468 114.133  0.00  0.00    -0.090 HD
ATOM     21  H   LIG d   1       0.449  75.672 113.411  0.00  0.00    -0.090 HD
ENDBRANCH   5  18
BRANCH   3  22
ATOM     22  C   LIG d   1      -2.310  79.470 112.942  0.00  0.00     0.382 C 
ATOM     23  O   LIG d   1      -1.586  79.664 111.936  0.00  0.00    -0.241 OA
ATOM     24  O   LIG d   1      -3.318  80.180 113.119  0.00  0.00    -0.241 OA
ENDBRANCH   3  22
TORSDOF 7
ENDMDL
MODEL 3
REMARK VINA RESULT:      -5.3      2.174      4.601
REMARK  7 active torsions:
REMARK  status: ('A' for Active; 'I' for Inactive)
REMARK    1  A    between atoms: C_2  and  C_3 
REMARK    2  A    between atoms: C_3  and  O_6 
REMARK    3  A    between atoms: C_3  and  C_4 
REMARK    4  A    between atoms: C_7  and  O_6 
REMARK    5  A    between atoms: C_9  and  C_10 
REMARK    6  A    between atoms: N_15  and  C_14 
REMARK    7  A    between atoms: N_20  and  C_19 
REMARK       I    between atoms: C_22  and  N_20 
ROOT
ATOM      1  C   LIG d   1      -4.366  90.882 117.832  0.00  0.00     0.161 C 
ATOM      2  C   LIG d   1      -5.232  90.145 117.006  0.00  0.00     0.016 C 
ATOM      3  C   LIG d   1      -6.405  90.685 116.431  0.00  0.00     0.038 C 
ATOM      4  C   LIG d   1      -6.714  92.050 116.520  0.00  0.00     0.028 C 
ATOM      5  C   LIG d   1      -6.138  92.722 117.761  0.00  0.00    -0.047 C 
ATOM      6  C   LIG d   1      -4.628  92.402 117.850  0.00  0.00     0.091 C 
ENDROOT
BRANCH   1   7
ATOM      7  O   LIG d   1      -2.998  90.613 117.469  0.00  0.00    -0.368 OA
BRANCH   7   8
ATOM      8  C   LIG d   1      -2.220  89.856 118.428  0.00  0.00     0.119 C 
BRANCH   8   9
ATOM      9  C   LIG d   1      -0.849  90.546 118.561  0.00  0.00     0.028 C 
ATOM     10  C   LIG d   1      -0.488  90.858 120.023  0.00  0.00     0.006 C 
ENDBRANCH   8   9
BRANCH   8  11
ATOM     11  C   LIG d   1      -1.916  88.446 117.911  0.00  0.00     0.028 C 
ATOM     12  C   LIG d   1      -2.476  87.343 118.824  0.00  0.00     0.006 C 
ENDBRANCH   8  11
ENDBRANCH   7   8
ENDBRANCH   1   7
BRANCH   6  13
ATOM     13  N   LIG d   1      -4.003  92.952 119.082  0.00  0.00    -0.311 N 
ATOM     14  C   LIG d   1      -2.884  93.674 119.077  0.00  0.00     0.210 C 
ATOM     15  C   LIG d   1      -2.400  94.126 120.458  0.00  0.00     0.109 C 
ATOM     16  O   LIG d   1      -2.264  94.010 118.057  0.00  0.00    -0.276 OA
ATOM     17  H   LIG d   1      -4.458  92.753 119.951  0.00  0.00     0.149 HD
ENDBRANCH   6  13
BRANCH   5  18
ATOM     18  N   LIG d   1      -6.418  94.166 117.657  0.00  0.00     0.381 N 
ATOM     19  H   LIG d   1      -5.598  94.649 117.348  0.00  0.00    -0.090 HD
ATOM     20  H   LIG d   1      -6.665  94.516 118.566  0.00  0.00    -0.090 HD
ATOM     21  H   LIG d   1      -7.166  94.323 117.018  0.00  0.00    -0.090 HD
ENDBRANCH   5  18
BRANCH   3  22
ATOM     22  C   LIG d   1      -7.304  89.846 115.790  0.00  0.00     0.382 C 
ATOM     23  O   LIG d   1      -7.566  90.019 114.575  0.00  0.00    -0.241 OA
ATOM     24  O   LIG d   1      -7.891  88.947 116.422  0.00  0.00    -0.241 OA
ENDBRANCH   3  22
TORSDOF 7
ENDMDL
MODEL 4
REMARK VINA RESULT:      -5.2      2.008      4.276
REMARK  7 active torsions:
REMARK  status: ('A' for Active; 'I' for Inactive)
REMARK    1  A    between atoms: C_2  and  C_3 
REMARK    2  A    between atoms: C_3  and  O_6 
REMARK    3  A    between atoms: C_3  and  C_4 
REMARK    4  A    between atoms: C_7  and  O_6 
REMARK    5  A    between atoms: C_9  and  C_10 
REMARK    6  A    between atoms: N_15  and  C_14 
REMARK    7  A    between atoms: N_20  and  C_19 
REMARK       I    between atoms: C_22  and  N_20 
ROOT
ATOM      1  C   LIG d   1      -5.302  91.618 119.027  0.00  0.00     0.161 C 
ATOM      2  C   LIG d   1      -5.382  90.686 117.979  0.00  0.00     0.016 C 
ATOM      3  C   LIG d   1      -6.229  90.846 116.858  0.00  0.00     0.038 C 
ATOM      4  C   LIG d   1      -6.945  92.031 116.633  0.00  0.00     0.028 C 
ATOM      5  C   LIG d   1      -7.283  92.787 117.914  0.00  0.00    -0.047 C 
ATOM      6  C   LIG d   1      -5.992  92.969 118.745  0.00  0.00     0.091 C 
ENDROOT
BRANCH   1   7
ATOM      7  O   LIG d   1      -3.923  91.827 119.390  0.00  0.00    -0.368 OA
BRANCH   7   8
ATOM      8  C   LIG d   1      -2.993  92.000 118.292  0.00  0.00     0.119 C 
BRANCH   8   9
ATOM      9  C   LIG d   1      -1.754  91.134 118.593  0.00  0.00     0.028 C 
ATOM     10  C   LIG d   1      -1.731  89.836 117.768  0.00  0.00     0.006 C 
ENDBRANCH   8   9
BRANCH   8  11
ATOM     11  C   LIG d   1      -2.475  93.439 118.222  0.00  0.00     0.028 C 
ATOM     12  C   LIG d   1      -2.500  94.148 119.586  0.00  0.00     0.006 C 
ENDBRANCH   8  11
ENDBRANCH   7   8
ENDBRANCH   1   7
BRANCH   6  13
ATOM     13  N   LIG d   1      -6.248  93.625 120.054  0.00  0.00    -0.311 N 
ATOM     14  C   LIG d   1      -6.106  94.933 120.258  0.00  0.00     0.210 C 
ATOM     15  C   LIG d   1      -6.401  95.400 121.687  0.00  0.00     0.109 C 
ATOM     16  O   LIG d   1      -5.793  95.756 119.384  0.00  0.00    -0.276 OA
ATOM     17  H   LIG d   1      -6.536  93.036 120.811  0.00  0.00     0.149 HD
ENDBRANCH   6  13
BRANCH   5  18
ATOM     18  N   LIG d   1      -7.906  94.066 117.526  0.00  0.00     0.381 N 
ATOM     19  H   LIG d   1      -7.326  94.538 116.862  0.00  0.00    -0.090 HD
ATOM     20  H   LIG d   1      -7.989  94.648 118.341  0.00  0.00    -0.090 HD
ATOM     21  H   LIG d   1      -8.807  93.901 117.133  0.00  0.00    -0.090 HD
ENDBRANCH   5  18
BRANCH   3  22
ATOM     22  C   LIG d   1      -6.396  89.797 115.967  0.00  0.00     0.382 C 
ATOM     23  O   LIG d   1      -7.545  89.488 115.570  0.00  0.00    -0.241 OA
ATOM     24  O   LIG d   1      -5.416  89.127 115.590  0.00  0.00    -0.241 OA
ENDBRANCH   3  22
TORSDOF 7
ENDMDL
MODEL 5
REMARK VINA RESULT:      -5.1     12.336     14.979
REMARK  7 active torsions:
REMARK  status: ('A' for Active; 'I' for Inactive)
REMARK    1  A    between atoms: C_2  and  C_3 
REMARK    2  A    between atoms: C_3  and  O_6 
REMARK    3  A    between atoms: C_3  and  C_4 
REMARK    4  A    between atoms: C_7  and  O_6 
REMARK    5  A    between atoms: C_9  and  C_10 
REMARK    6  A    between atoms: N_15  and  C_14 
REMARK    7  A    between atoms: N_20  and  C_19 
REMARK       I    between atoms: C_22  and  N_20 
ROOT
ATOM      1  C   LIG d   1      -7.248  78.081 116.711  0.00  0.00     0.161 C 
ATOM      2  C   LIG d   1      -6.754  76.917 116.100  0.00  0.00     0.016 C 
ATOM      3  C   LIG d   1      -5.434  76.443 116.279  0.00  0.00     0.038 C 
ATOM      4  C   LIG d   1      -4.558  77.023 117.209  0.00  0.00     0.028 C 
ATOM      5  C   LIG d   1      -4.844  78.498 117.472  0.00  0.00    -0.047 C 
ATOM      6  C   LIG d   1      -6.342  78.665 117.816  0.00  0.00     0.091 C 
ENDROOT
BRANCH   1   7
ATOM      7  O   LIG d   1      -8.572  77.839 117.226  0.00  0.00    -0.368 OA
BRANCH   7   8
ATOM      8  C   LIG d   1      -8.700  76.745 118.167  0.00  0.00     0.119 C 
BRANCH   8   9
ATOM      9  C   LIG d   1      -9.870  75.861 117.692  0.00  0.00     0.028 C 
ATOM     10  C   LIG d   1      -9.543  74.361 117.775  0.00  0.00     0.006 C 
ENDBRANCH   8   9
BRANCH   8  11
ATOM     11  C   LIG d   1      -9.110  77.248 119.554  0.00  0.00     0.028 C 
ATOM     12  C   LIG d   1      -9.788  78.627 119.512  0.00  0.00     0.006 C 
ENDBRANCH   8  11
ENDBRANCH   7   8
ENDBRANCH   1   7
BRANCH   6  13
ATOM     13  N   LIG d   1      -6.724  80.089 118.005  0.00  0.00    -0.311 N 
ATOM     14  C   LIG d   1      -6.754  80.688 119.194  0.00  0.00     0.210 C 
ATOM     15  C   LIG d   1      -7.195  82.155 119.168  0.00  0.00     0.109 C 
ATOM     16  O   LIG d   1      -6.426  80.154 120.264  0.00  0.00    -0.276 OA
ATOM     17  H   LIG d   1      -6.976  80.607 117.186  0.00  0.00     0.149 HD
ENDBRANCH   6  13
BRANCH   5  18
ATOM     18  N   LIG d   1      -3.949  78.938 118.559  0.00  0.00     0.381 N 
ATOM     19  H   LIG d   1      -3.971  79.936 118.632  0.00  0.00    -0.090 HD
ATOM     20  H   LIG d   1      -3.009  78.659 118.339  0.00  0.00    -0.090 HD
ATOM     21  H   LIG d   1      -4.232  78.528 119.421  0.00  0.00    -0.090 HD
ENDBRANCH   5  18
BRANCH   3  22
ATOM     22  C   LIG d   1      -4.965  75.401 115.494  0.00  0.00     0.382 C 
ATOM     23  O   LIG d   1      -3.990  74.714 115.882  0.00  0.00    -0.241 OA
ATOM     24  O   LIG d   1      -5.477  75.167 114.383  0.00  0.00    -0.241 OA
ENDBRANCH   3  22
TORSDOF 7
ENDMDL
MODEL 6
REMARK VINA RESULT:      -5.1     11.787     14.906
REMARK  7 active torsions:
REMARK  status: ('A' for Active; 'I' for Inactive)
REMARK    1  A    between atoms: C_2  and  C_3 
REMARK    2  A    between atoms: C_3  and  O_6 
REMARK    3  A    between atoms: C_3  and  C_4 
REMARK    4  A    between atoms: C_7  and  O_6 
REMARK    5  A    between atoms: C_9  and  C_10 
REMARK    6  A    between atoms: N_15  and  C_14 
REMARK    7  A    between atoms: N_20  and  C_19 
REMARK       I    between atoms: C_22  and  N_20 
ROOT
ATOM      1  C   LIG d   1      -6.314  78.880 117.325  0.00  0.00     0.161 C 
ATOM      2  C   LIG d   1      -5.302  78.017 117.776  0.00  0.00     0.016 C 
ATOM      3  C   LIG d   1      -4.928  77.900 119.134  0.00  0.00     0.038 C 
ATOM      4  C   LIG d   1      -5.648  78.531 120.159  0.00  0.00     0.028 C 
ATOM      5  C   LIG d   1      -6.355  79.804 119.707  0.00  0.00    -0.047 C 
ATOM      6  C   LIG d   1      -7.186  79.494 118.441  0.00  0.00     0.091 C 
ENDROOT
BRANCH   1   7
ATOM      7  O   LIG d   1      -7.142  78.201 116.360  0.00  0.00    -0.368 OA
BRANCH   7   8
ATOM      8  C   LIG d   1      -7.326  76.779 116.567  0.00  0.00     0.119 C 
BRANCH   8   9
ATOM      9  C   LIG d   1      -7.050  76.076 115.224  0.00  0.00     0.028 C 
ATOM     10  C   LIG d   1      -5.813  75.163 115.283  0.00  0.00     0.006 C 
ENDBRANCH   8   9
BRANCH   8  11
ATOM     11  C   LIG d   1      -8.783  76.450 116.905  0.00  0.00     0.028 C 
ATOM     12  C   LIG d   1      -9.086  76.559 118.408  0.00  0.00     0.006 C 
ENDBRANCH   8  11
ENDBRANCH   7   8
ENDBRANCH   1   7
BRANCH   6  13
ATOM     13  N   LIG d   1      -7.844  80.705 117.883  0.00  0.00    -0.311 N 
ATOM     14  C   LIG d   1      -9.162  80.818 117.729  0.00  0.00     0.210 C 
ATOM     15  C   LIG d   1      -9.630  82.142 117.118  0.00  0.00     0.109 C 
ATOM     16  O   LIG d   1      -9.990  79.961 118.071  0.00  0.00    -0.276 OA
ATOM     17  H   LIG d   1      -7.248  81.462 117.609  0.00  0.00     0.149 HD
ENDBRANCH   6  13
BRANCH   5  18
ATOM     18  N   LIG d   1      -7.177  80.282 120.835  0.00  0.00     0.381 N 
ATOM     19  H   LIG d   1      -7.946  80.821 120.489  0.00  0.00    -0.090 HD
ATOM     20  H   LIG d   1      -6.614  80.875 121.419  0.00  0.00    -0.090 HD
ATOM     21  H   LIG d   1      -7.515  79.508 121.363  0.00  0.00    -0.090 HD
ENDBRANCH   5  18
BRANCH   3  22
ATOM     22  C   LIG d   1      -3.796  77.175 119.475  0.00  0.00     0.382 C 
ATOM     23  O   LIG d   1      -3.145  76.575 118.586  0.00  0.00    -0.241 OA
ATOM     24  O   LIG d   1      -3.443  77.077 120.666  0.00  0.00    -0.241 OA
ENDBRANCH   3  22
TORSDOF 7
ENDMDL
MODEL 7
REMARK VINA RESULT:      -5.1     12.442     14.892
REMARK  7 active torsions:
REMARK  status: ('A' for Active; 'I' for Inactive)
REMARK    1  A    between atoms: C_2  and  C_3 
REMARK    2  A    between atoms: C_3  and  O_6 
REMARK    3  A    between atoms: C_3  and  C_4 
REMARK    4  A    between atoms: C_7  and  O_6 
REMARK    5  A    between atoms: C_9  and  C_10 
REMARK    6  A    between atoms: N_15  and  C_14 
REMARK    7  A    between atoms: N_20  and  C_19 
REMARK       I    between atoms: C_22  and  N_20 
ROOT
ATOM      1  C   LIG d   1      -6.915  77.759 117.361  0.00  0.00     0.161 C 
ATOM      2  C   LIG d   1      -6.501  76.857 116.367  0.00  0.00     0.016 C 
ATOM      3  C   LIG d   1      -5.144  76.594 116.071  0.00  0.00     0.038 C 
ATOM      4  C   LIG d   1      -4.101  77.105 116.858  0.00  0.00     0.028 C 
ATOM      5  C   LIG d   1      -4.453  78.416 117.552  0.00  0.00    -0.047 C 
ATOM      6  C   LIG d   1      -5.793  78.242 118.303  0.00  0.00     0.091 C 
ENDROOT
BRANCH   1   7
ATOM      7  O   LIG d   1      -7.996  77.186 118.122  0.00  0.00    -0.368 OA
BRANCH   7   8
ATOM      8  C   LIG d   1      -9.332  77.599 117.743  0.00  0.00     0.119 C 
BRANCH   8   9
ATOM      9  C   LIG d   1      -9.860  78.530 118.852  0.00  0.00     0.028 C 
ATOM     10  C   LIG d   1      -9.757  80.016 118.469  0.00  0.00     0.006 C 
ENDBRANCH   8   9
BRANCH   8  11
ATOM     11  C   LIG d   1     -10.297  76.411 117.718  0.00  0.00     0.028 C 
ATOM     12  C   LIG d   1      -9.578  75.057 117.823  0.00  0.00     0.006 C 
ENDBRANCH   8  11
ENDBRANCH   7   8
ENDBRANCH   1   7
BRANCH   6  13
ATOM     13  N   LIG d   1      -6.253  79.503 118.941  0.00  0.00    -0.311 N 
ATOM     14  C   LIG d   1      -5.999  79.818 120.210  0.00  0.00     0.210 C 
ATOM     15  C   LIG d   1      -6.583  81.156 120.674  0.00  0.00     0.109 C 
ATOM     16  O   LIG d   1      -5.320  79.130 120.987  0.00  0.00    -0.276 OA
ATOM     17  H   LIG d   1      -6.784  80.134 118.374  0.00  0.00     0.149 HD
ENDBRANCH   6  13
BRANCH   5  18
ATOM     18  N   LIG d   1      -3.331  78.763 118.444  0.00  0.00     0.381 N 
ATOM     19  H   LIG d   1      -3.436  79.702 118.772  0.00  0.00    -0.090 HD
ATOM     20  H   LIG d   1      -2.472  78.705 117.925  0.00  0.00    -0.090 HD
ATOM     21  H   LIG d   1      -3.302  78.135 119.217  0.00  0.00    -0.090 HD
ENDBRANCH   5  18
BRANCH   3  22
ATOM     22  C   LIG d   1      -4.817  75.842 114.953  0.00  0.00     0.382 C 
ATOM     23  O   LIG d   1      -3.825  75.075 114.980  0.00  0.00    -0.241 OA
ATOM     24  O   LIG d   1      -5.477  75.953 113.902  0.00  0.00    -0.241 OA
ENDBRANCH   3  22
TORSDOF 7
ENDMDL
MODEL 8
REMARK VINA RESULT:      -5.1      2.788      5.140
REMARK  7 active torsions:
REMARK  status: ('A' for Active; 'I' for Inactive)
REMARK    1  A    between atoms: C_2  and  C_3 
REMARK    2  A    between atoms: C_3  and  O_6 
REMARK    3  A    between atoms: C_3  and  C_4 
REMARK    4  A    between atoms: C_7  and  O_6 
REMARK    5  A    between atoms: C_9  and  C_10 
REMARK    6  A    between atoms: N_15  and  C_14 
REMARK    7  A    between atoms: N_20  and  C_19 
REMARK       I    between atoms: C_22  and  N_20 
ROOT
ATOM      1  C   LIG d   1      -3.580  90.079 117.821  0.00  0.00     0.161 C 
ATOM      2  C   LIG d   1      -4.594  89.804 116.888  0.00  0.00     0.016 C 
ATOM      3  C   LIG d   1      -5.520  90.772 116.436  0.00  0.00     0.038 C 
ATOM      4  C   LIG d   1      -5.400  92.128 116.776  0.00  0.00     0.028 C 
ATOM      5  C   LIG d   1      -4.699  92.358 118.111  0.00  0.00    -0.047 C 
ATOM      6  C   LIG d   1      -3.365  91.578 118.118  0.00  0.00     0.091 C 
ENDROOT
BRANCH   1   7
ATOM      7  O   LIG d   1      -2.345  89.471 117.395  0.00  0.00    -0.368 OA
BRANCH   7   8
ATOM      8  C   LIG d   1      -2.220  88.047 117.637  0.00  0.00     0.119 C 
BRANCH   8   9
ATOM      9  C   LIG d   1      -2.453  87.811 119.141  0.00  0.00     0.028 C 
ATOM     10  C   LIG d   1      -2.220  86.346 119.548  0.00  0.00     0.006 C 
ENDBRANCH   8   9
BRANCH   8  11
ATOM     11  C   LIG d   1      -0.794  87.560 117.365  0.00  0.00     0.028 C 
ATOM     12  C   LIG d   1       0.273  88.606 117.727  0.00  0.00     0.006 C 
ENDBRANCH   8  11
ENDBRANCH   7   8
ENDBRANCH   1   7
BRANCH   6  13
ATOM     13  N   LIG d   1      -2.655  91.681 119.420  0.00  0.00    -0.311 N 
ATOM     14  C   LIG d   1      -1.704  92.580 119.667  0.00  0.00     0.210 C 
ATOM     15  C   LIG d   1      -1.088  92.501 121.067  0.00  0.00     0.109 C 
ATOM     16  O   LIG d   1      -1.335  93.457 118.871  0.00  0.00    -0.276 OA
ATOM     17  H   LIG d   1      -2.914  91.028 120.133  0.00  0.00     0.149 HD
ENDBRANCH   6  13
BRANCH   5  18
ATOM     18  N   LIG d   1      -4.519  93.813 118.274  0.00  0.00     0.381 N 
ATOM     19  H   LIG d   1      -4.686  94.070 119.227  0.00  0.00    -0.090 HD
ATOM     20  H   LIG d   1      -5.189  94.291 117.697  0.00  0.00    -0.090 HD
ATOM     21  H   LIG d   1      -3.595  94.075 118.009  0.00  0.00    -0.090 HD
ENDBRANCH   5  18
BRANCH   3  22
ATOM     22  C   LIG d   1      -6.605  90.379 115.667  0.00  0.00     0.382 C 
ATOM     23  O   LIG d   1      -7.177  91.209 114.921  0.00  0.00    -0.241 OA
ATOM     24  O   LIG d   1      -7.045  89.217 115.743  0.00  0.00    -0.241 OA
ENDBRANCH   3  22
TORSDOF 7
ENDMDL
MODEL 9
REMARK VINA RESULT:      -4.9     12.125     14.873
REMARK  7 active torsions:
REMARK  status: ('A' for Active; 'I' for Inactive)
REMARK    1  A    between atoms: C_2  and  C_3 
REMARK    2  A    between atoms: C_3  and  O_6 
REMARK    3  A    between atoms: C_3  and  C_4 
REMARK    4  A    between atoms: C_7  and  O_6 
REMARK    5  A    between atoms: C_9  and  C_10 
REMARK    6  A    between atoms: N_15  and  C_14 
REMARK    7  A    between atoms: N_20  and  C_19 
REMARK       I    between atoms: C_22  and  N_20 
ROOT
ATOM      1  C   LIG d   1      -6.998  78.032 117.736  0.00  0.00     0.161 C 
ATOM      2  C   LIG d   1      -6.416  77.314 116.678  0.00  0.00     0.016 C 
ATOM      3  C   LIG d   1      -7.093  76.302 115.959  0.00  0.00     0.038 C 
ATOM      4  C   LIG d   1      -8.458  76.042 116.152  0.00  0.00     0.028 C 
ATOM      5  C   LIG d   1      -8.949  76.392 117.553  0.00  0.00    -0.047 C 
ATOM      6  C   LIG d   1      -8.521  77.839 117.888  0.00  0.00     0.091 C 
ENDROOT
BRANCH   1   7
ATOM      7  O   LIG d   1      -6.680  79.432 117.610  0.00  0.00    -0.368 OA
BRANCH   7   8
ATOM      8  C   LIG d   1      -5.777  79.973 118.605  0.00  0.00     0.119 C 
BRANCH   8   9
ATOM      9  C   LIG d   1      -5.385  78.821 119.550  0.00  0.00     0.028 C 
ATOM     10  C   LIG d   1      -3.862  78.691 119.717  0.00  0.00     0.006 C 
ENDBRANCH   8   9
BRANCH   8  11
ATOM     11  C   LIG d   1      -6.479  81.005 119.493  0.00  0.00     0.028 C 
ATOM     12  C   LIG d   1      -7.304  82.021 118.687  0.00  0.00     0.006 C 
ENDBRANCH   8  11
ENDBRANCH   7   8
ENDBRANCH   1   7
BRANCH   6  13
ATOM     13  N   LIG d   1      -8.888  78.233 119.273  0.00  0.00    -0.311 N 
ATOM     14  C   LIG d   1      -9.667  79.275 119.557  0.00  0.00     0.210 C 
ATOM     15  C   LIG d   1      -9.904  79.517 121.051  0.00  0.00     0.109 C 
ATOM     16  O   LIG d   1     -10.210  80.004 118.712  0.00  0.00    -0.276 OA
ATOM     17  H   LIG d   1      -8.517  77.678 120.019  0.00  0.00     0.149 HD
ENDBRANCH   6  13
BRANCH   5  18
ATOM     18  N   LIG d   1     -10.411  76.202 117.574  0.00  0.00     0.381 N 
ATOM     19  H   LIG d   1     -10.629  75.236 117.427  0.00  0.00    -0.090 HD
ATOM     20  H   LIG d   1     -10.819  76.734 116.825  0.00  0.00    -0.090 HD
ATOM     21  H   LIG d   1     -10.782  76.505 118.447  0.00  0.00    -0.090 HD
ENDBRANCH   5  18
BRANCH   3  22
ATOM     22  C   LIG d   1      -6.392  75.511 115.062  0.00  0.00     0.382 C 
ATOM     23  O   LIG d   1      -6.395  74.263 115.192  0.00  0.00    -0.241 OA
ATOM     24  O   LIG d   1      -5.721  76.031 114.151  0.00  0.00    -0.241 OA
ENDBRANCH   3  22
TORSDOF 7
ENDMDL
