MODEL 1
REMARK VINA RESULT:      -4.5      0.000      0.000
REMARK  7 active torsions:
REMARK  status: ('A' for Active; 'I' for Inactive)
REMARK    1  A    between atoms: C_2  and  C_3 
REMARK    2  A    between atoms: C_3  and  O_6 
REMARK    3  A    between atoms: C_3  and  C_4 
REMARK    4  A    between atoms: C_7  and  O_6 
REMARK    5  A    between atoms: C_9  and  C_10 
REMARK    6  A    between atoms: N_15  and  C_14 
REMARK    7  A    between atoms: N_20  and  C_19 
REMARK       I    between atoms: C_22  and  N_20 
ROOT
ATOM      1  C   LIG d   1      -5.118  94.425 120.749  0.00  0.00     0.161 C 
ATOM      2  C   LIG d   1      -6.487  94.164 120.577  0.00  0.00     0.016 C 
ATOM      3  C   LIG d   1      -7.299  94.848 119.644  0.00  0.00     0.038 C 
ATOM      4  C   LIG d   1      -6.760  95.743 118.707  0.00  0.00     0.028 C 
ATOM      5  C   LIG d   1      -5.472  96.410 119.179  0.00  0.00    -0.047 C 
ATOM      6  C   LIG d   1      -4.488  95.319 119.660  0.00  0.00     0.091 C 
ENDROOT
BRANCH   1   7
ATOM      7  O   LIG d   1      -4.393  93.184 120.859  0.00  0.00    -0.368 OA
BRANCH   7   8
ATOM      8  C   LIG d   1      -3.995  92.565 119.611  0.00  0.00     0.119 C 
BRANCH   8   9
ATOM      9  C   LIG d   1      -4.769  91.239 119.485  0.00  0.00     0.028 C 
ATOM     10  C   LIG d   1      -5.694  91.213 118.256  0.00  0.00     0.006 C 
ENDBRANCH   8   9
BRANCH   8  11
ATOM     11  C   LIG d   1      -2.516  92.171 119.631  0.00  0.00     0.028 C 
ATOM     12  C   LIG d   1      -1.838  92.329 118.261  0.00  0.00     0.006 C 
ENDBRANCH   8  11
ENDBRANCH   7   8
ENDBRANCH   1   7
BRANCH   6  13
ATOM     13  N   LIG d   1      -3.235  95.891 120.217  0.00  0.00    -0.311 N 
ATOM     14  C   LIG d   1      -2.129  96.074 119.497  0.00  0.00     0.210 C 
ATOM     15  C   LIG d   1      -0.943  96.659 120.270  0.00  0.00     0.109 C 
ATOM     16  O   LIG d   1      -2.028  95.836 118.284  0.00  0.00    -0.276 OA
ATOM     17  H   LIG d   1      -3.239  96.141 121.186  0.00  0.00     0.149 HD
ENDBRANCH   6  13
BRANCH   5  18
ATOM     18  N   LIG d   1      -4.946  97.208 118.056  0.00  0.00     0.381 N 
ATOM     19  H   LIG d   1      -4.838  98.162 118.339  0.00  0.00    -0.090 HD
ATOM     20  H   LIG d   1      -5.606  97.178 117.298  0.00  0.00    -0.090 HD
ATOM     21  H   LIG d   1      -4.070  96.841 117.757  0.00  0.00    -0.090 HD
ENDBRANCH   5  18
BRANCH   3  22
ATOM     22  C   LIG d   1      -8.674  94.670 119.668  0.00  0.00     0.382 C 
ATOM     23  O   LIG d   1      -9.180  93.798 120.415  0.00  0.00    -0.241 OA
ATOM     24  O   LIG d   1      -9.411  95.340 118.920  0.00  0.00    -0.241 OA
ENDBRANCH   3  22
TORSDOF 7
ENDMDL
MODEL 2
REMARK VINA RESULT:      -4.4     13.783     16.219
REMARK  7 active torsions:
REMARK  status: ('A' for Active; 'I' for Inactive)
REMARK    1  A    between atoms: C_2  and  C_3 
REMARK    2  A    between atoms: C_3  and  O_6 
REMARK    3  A    between atoms: C_3  and  C_4 
REMARK    4  A    between atoms: C_7  and  O_6 
REMARK    5  A    between atoms: C_9  and  C_10 
REMARK    6  A    between atoms: N_15  and  C_14 
REMARK    7  A    between atoms: N_20  and  C_19 
REMARK       I    between atoms: C_22  and  N_20 
ROOT
ATOM      1  C   LIG d   1      -8.393  78.899 118.832  0.00  0.00     0.161 C 
ATOM      2  C   LIG d   1      -9.412  78.154 118.216  0.00  0.00     0.016 C 
ATOM      3  C   LIG d   1     -10.311  77.327 118.929  0.00  0.00     0.038 C 
ATOM      4  C   LIG d   1     -10.348  77.308 120.331  0.00  0.00     0.028 C 
ATOM      5  C   LIG d   1      -9.011  77.655 120.977  0.00  0.00    -0.047 C 
ATOM      6  C   LIG d   1      -8.489  78.977 120.370  0.00  0.00     0.091 C 
ENDROOT
BRANCH   1   7
ATOM      7  O   LIG d   1      -8.346  80.223 118.265  0.00  0.00    -0.368 OA
BRANCH   7   8
ATOM      8  C   LIG d   1      -9.143  81.232 118.933  0.00  0.00     0.119 C 
BRANCH   8   9
ATOM      9  C   LIG d   1     -10.253  81.666 117.956  0.00  0.00     0.028 C 
ATOM     10  C   LIG d   1     -10.905  82.998 118.363  0.00  0.00     0.006 C 
ENDBRANCH   8   9
BRANCH   8  11
ATOM     11  C   LIG d   1      -8.326  82.498 119.206  0.00  0.00     0.028 C 
ATOM     12  C   LIG d   1      -6.858  82.365 118.770  0.00  0.00     0.006 C 
ENDBRANCH   8  11
ENDBRANCH   7   8
ENDBRANCH   1   7
BRANCH   6  13
ATOM     13  N   LIG d   1      -7.145  79.346 120.886  0.00  0.00    -0.311 N 
ATOM     14  C   LIG d   1      -6.953  80.203 121.888  0.00  0.00     0.210 C 
ATOM     15  C   LIG d   1      -5.487  80.457 122.250  0.00  0.00     0.109 C 
ATOM     16  O   LIG d   1      -7.860  80.751 122.532  0.00  0.00    -0.276 OA
ATOM     17  H   LIG d   1      -6.354  78.923 120.442  0.00  0.00     0.149 HD
ENDBRANCH   6  13
BRANCH   5  18
ATOM     18  N   LIG d   1      -9.227  77.733 122.434  0.00  0.00     0.381 N 
ATOM     19  H   LIG d   1      -8.455  77.315 122.914  0.00  0.00    -0.090 HD
ATOM     20  H   LIG d   1     -10.058  77.219 122.667  0.00  0.00    -0.090 HD
ATOM     21  H   LIG d   1      -9.326  78.684 122.714  0.00  0.00    -0.090 HD
ENDBRANCH   5  18
BRANCH   3  22
ATOM     22  C   LIG d   1     -11.160  76.478 118.236  0.00  0.00     0.382 C 
ATOM     23  O   LIG d   1     -10.688  75.641 117.429  0.00  0.00    -0.241 OA
ATOM     24  O   LIG d   1     -12.395  76.568 118.374  0.00  0.00    -0.241 OA
ENDBRANCH   3  22
TORSDOF 7
ENDMDL
MODEL 3
REMARK VINA RESULT:      -4.4     21.236     23.343
REMARK  7 active torsions:
REMARK  status: ('A' for Active; 'I' for Inactive)
REMARK    1  A    between atoms: C_2  and  C_3 
REMARK    2  A    between atoms: C_3  and  O_6 
REMARK    3  A    between atoms: C_3  and  C_4 
REMARK    4  A    between atoms: C_7  and  O_6 
REMARK    5  A    between atoms: C_9  and  C_10 
REMARK    6  A    between atoms: N_15  and  C_14 
REMARK    7  A    between atoms: N_20  and  C_19 
REMARK       I    between atoms: C_22  and  N_20 
ROOT
ATOM      1  C   LIG d   1     -19.531  76.034 120.780  0.00  0.00     0.161 C 
ATOM      2  C   LIG d   1     -20.813  76.366 120.312  0.00  0.00     0.016 C 
ATOM      3  C   LIG d   1     -21.203  77.685 119.983  0.00  0.00     0.038 C 
ATOM      4  C   LIG d   1     -20.285  78.745 119.956  0.00  0.00     0.028 C 
ATOM      5  C   LIG d   1     -19.107  78.550 120.905  0.00  0.00    -0.047 C 
ATOM      6  C   LIG d   1     -18.483  77.159 120.651  0.00  0.00     0.091 C 
ENDROOT
BRANCH   1   7
ATOM      7  O   LIG d   1     -19.065  74.839 120.122  0.00  0.00    -0.368 OA
BRANCH   7   8
ATOM      8  C   LIG d   1     -18.958  73.655 120.950  0.00  0.00     0.119 C 
BRANCH   8   9
ATOM      9  C   LIG d   1     -20.102  72.704 120.549  0.00  0.00     0.028 C 
ATOM     10  C   LIG d   1     -19.649  71.235 120.486  0.00  0.00     0.006 C 
ENDBRANCH   8   9
BRANCH   8  11
ATOM     11  C   LIG d   1     -19.204  73.984 122.426  0.00  0.00     0.028 C 
ATOM     12  C   LIG d   1     -17.998  73.651 123.319  0.00  0.00     0.006 C 
ENDBRANCH   8  11
ENDBRANCH   7   8
ENDBRANCH   1   7
BRANCH   6  13
ATOM     13  N   LIG d   1     -17.376  76.854 121.595  0.00  0.00    -0.311 N 
ATOM     14  C   LIG d   1     -16.210  76.336 121.213  0.00  0.00     0.210 C 
ATOM     15  C   LIG d   1     -15.214  76.079 122.349  0.00  0.00     0.109 C 
ATOM     16  O   LIG d   1     -15.893  76.095 120.039  0.00  0.00    -0.276 OA
ATOM     17  H   LIG d   1     -17.536  77.048 122.564  0.00  0.00     0.149 HD
ENDBRANCH   6  13
BRANCH   5  18
ATOM     18  N   LIG d   1     -18.162  79.659 120.675  0.00  0.00     0.381 N 
ATOM     19  H   LIG d   1     -17.610  79.810 121.496  0.00  0.00    -0.090 HD
ATOM     20  H   LIG d   1     -18.683  80.497 120.487  0.00  0.00    -0.090 HD
ATOM     21  H   LIG d   1     -17.569  79.447 119.902  0.00  0.00    -0.090 HD
ENDBRANCH   5  18
BRANCH   3  22
ATOM     22  C   LIG d   1     -22.535  77.960 119.715  0.00  0.00     0.382 C 
ATOM     23  O   LIG d   1     -22.906  79.145 119.529  0.00  0.00    -0.241 OA
ATOM     24  O   LIG d   1     -23.380  77.044 119.701  0.00  0.00    -0.241 OA
ENDBRANCH   3  22
TORSDOF 7
ENDMDL
MODEL 4
REMARK VINA RESULT:      -4.4     13.699     16.135
REMARK  7 active torsions:
REMARK  status: ('A' for Active; 'I' for Inactive)
REMARK    1  A    between atoms: C_2  and  C_3 
REMARK    2  A    between atoms: C_3  and  O_6 
REMARK    3  A    between atoms: C_3  and  C_4 
REMARK    4  A    between atoms: C_7  and  O_6 
REMARK    5  A    between atoms: C_9  and  C_10 
REMARK    6  A    between atoms: N_15  and  C_14 
REMARK    7  A    between atoms: N_20  and  C_19 
REMARK       I    between atoms: C_22  and  N_20 
ROOT
ATOM      1  C   LIG d   1      -8.307  78.892 118.129  0.00  0.00     0.161 C 
ATOM      2  C   LIG d   1      -9.610  78.421 118.360  0.00  0.00     0.016 C 
ATOM      3  C   LIG d   1      -9.954  77.583 119.446  0.00  0.00     0.038 C 
ATOM      4  C   LIG d   1      -9.040  77.279 120.466  0.00  0.00     0.028 C 
ATOM      5  C   LIG d   1      -7.586  77.317 120.008  0.00  0.00    -0.047 C 
ATOM      6  C   LIG d   1      -7.320  78.661 119.293  0.00  0.00     0.091 C 
ENDROOT
BRANCH   1   7
ATOM      7  O   LIG d   1      -8.347  80.288 117.776  0.00  0.00    -0.368 OA
BRANCH   7   8
ATOM      8  C   LIG d   1      -9.178  81.133 118.609  0.00  0.00     0.119 C 
BRANCH   8   9
ATOM      9  C   LIG d   1     -10.020  82.022 117.673  0.00  0.00     0.028 C 
ATOM     10  C   LIG d   1     -10.900  83.019 118.446  0.00  0.00     0.006 C 
ENDBRANCH   8   9
BRANCH   8  11
ATOM     11  C   LIG d   1      -8.331  82.105 119.437  0.00  0.00     0.028 C 
ATOM     12  C   LIG d   1      -6.984  82.434 118.775  0.00  0.00     0.006 C 
ENDBRANCH   8  11
ENDBRANCH   7   8
ENDBRANCH   1   7
BRANCH   6  13
ATOM     13  N   LIG d   1      -5.944  78.746 118.740  0.00  0.00    -0.311 N 
ATOM     14  C   LIG d   1      -4.935  79.346 119.371  0.00  0.00     0.210 C 
ATOM     15  C   LIG d   1      -3.603  79.337 118.614  0.00  0.00     0.109 C 
ATOM     16  O   LIG d   1      -5.010  79.855 120.499  0.00  0.00    -0.276 OA
ATOM     17  H   LIG d   1      -5.787  78.332 117.842  0.00  0.00     0.149 HD
ENDBRANCH   6  13
BRANCH   5  18
ATOM     18  N   LIG d   1      -6.739  77.118 121.199  0.00  0.00     0.381 N 
ATOM     19  H   LIG d   1      -5.792  77.358 120.985  0.00  0.00    -0.090 HD
ATOM     20  H   LIG d   1      -6.767  76.147 121.459  0.00  0.00    -0.090 HD
ATOM     21  H   LIG d   1      -7.070  77.680 121.951  0.00  0.00    -0.090 HD
ENDBRANCH   5  18
BRANCH   3  22
ATOM     22  C   LIG d   1     -11.214  77.007 119.497  0.00  0.00     0.382 C 
ATOM     23  O   LIG d   1     -11.725  76.714 120.604  0.00  0.00    -0.241 OA
ATOM     24  O   LIG d   1     -11.827  76.734 118.447  0.00  0.00    -0.241 OA
ENDBRANCH   3  22
TORSDOF 7
ENDMDL
MODEL 5
REMARK VINA RESULT:      -4.2      2.682      5.571
REMARK  7 active torsions:
REMARK  status: ('A' for Active; 'I' for Inactive)
REMARK    1  A    between atoms: C_2  and  C_3 
REMARK    2  A    between atoms: C_3  and  O_6 
REMARK    3  A    between atoms: C_3  and  C_4 
REMARK    4  A    between atoms: C_7  and  O_6 
REMARK    5  A    between atoms: C_9  and  C_10 
REMARK    6  A    between atoms: N_15  and  C_14 
REMARK    7  A    between atoms: N_20  and  C_19 
REMARK       I    between atoms: C_22  and  N_20 
ROOT
ATOM      1  C   LIG d   1      -4.343  92.314 120.082  0.00  0.00     0.161 C 
ATOM      2  C   LIG d   1      -3.381  91.444 119.543  0.00  0.00     0.016 C 
ATOM      3  C   LIG d   1      -3.548  90.765 118.314  0.00  0.00     0.038 C 
ATOM      4  C   LIG d   1      -4.631  91.028 117.462  0.00  0.00     0.028 C 
ATOM      5  C   LIG d   1      -5.874  91.519 118.197  0.00  0.00    -0.047 C 
ATOM      6  C   LIG d   1      -5.482  92.699 119.114  0.00  0.00     0.091 C 
ENDROOT
BRANCH   1   7
ATOM      7  O   LIG d   1      -3.699  93.498 120.595  0.00  0.00    -0.368 OA
BRANCH   7   8
ATOM      8  C   LIG d   1      -3.498  94.575 119.647  0.00  0.00     0.119 C 
BRANCH   8   9
ATOM      9  C   LIG d   1      -1.981  94.828 119.549  0.00  0.00     0.028 C 
ATOM     10  C   LIG d   1      -1.392  94.355 118.210  0.00  0.00     0.006 C 
ENDBRANCH   8   9
BRANCH   8  11
ATOM     11  C   LIG d   1      -4.096  95.888 120.161  0.00  0.00     0.028 C 
ATOM     12  C   LIG d   1      -4.656  96.769 119.033  0.00  0.00     0.006 C 
ENDBRANCH   8  11
ENDBRANCH   7   8
ENDBRANCH   1   7
BRANCH   6  13
ATOM     13  N   LIG d   1      -6.623  93.185 119.933  0.00  0.00    -0.311 N 
ATOM     14  C   LIG d   1      -7.463  94.136 119.529  0.00  0.00     0.210 C 
ATOM     15  C   LIG d   1      -8.559  94.501 120.536  0.00  0.00     0.109 C 
ATOM     16  O   LIG d   1      -7.424  94.689 118.420  0.00  0.00    -0.276 OA
ATOM     17  H   LIG d   1      -6.747  92.768 120.835  0.00  0.00     0.149 HD
ENDBRANCH   6  13
BRANCH   5  18
ATOM     18  N   LIG d   1      -6.877  91.885 117.180  0.00  0.00     0.381 N 
ATOM     19  H   LIG d   1      -7.535  92.530 117.570  0.00  0.00    -0.090 HD
ATOM     20  H   LIG d   1      -7.375  91.058 116.901  0.00  0.00    -0.090 HD
ATOM     21  H   LIG d   1      -6.429  92.294 116.390  0.00  0.00    -0.090 HD
ENDBRANCH   5  18
BRANCH   3  22
ATOM     22  C   LIG d   1      -2.644  89.780 117.945  0.00  0.00     0.382 C 
ATOM     23  O   LIG d   1      -2.995  88.576 117.942  0.00  0.00    -0.241 OA
ATOM     24  O   LIG d   1      -1.469  90.077 117.657  0.00  0.00    -0.241 OA
ENDBRANCH   3  22
TORSDOF 7
ENDMDL
MODEL 6
REMARK VINA RESULT:      -4.1     20.520     22.741
REMARK  7 active torsions:
REMARK  status: ('A' for Active; 'I' for Inactive)
REMARK    1  A    between atoms: C_2  and  C_3 
REMARK    2  A    between atoms: C_3  and  O_6 
REMARK    3  A    between atoms: C_3  and  C_4 
REMARK    4  A    between atoms: C_7  and  O_6 
REMARK    5  A    between atoms: C_9  and  C_10 
REMARK    6  A    between atoms: N_15  and  C_14 
REMARK    7  A    between atoms: N_20  and  C_19 
REMARK       I    between atoms: C_22  and  N_20 
ROOT
ATOM      1  C   LIG d   1     -19.147  77.585 119.594  0.00  0.00     0.161 C 
ATOM      2  C   LIG d   1     -18.364  76.508 120.042  0.00  0.00     0.016 C 
ATOM      3  C   LIG d   1     -17.557  76.562 121.202  0.00  0.00     0.038 C 
ATOM      4  C   LIG d   1     -17.597  77.654 122.082  0.00  0.00     0.028 C 
ATOM      5  C   LIG d   1     -17.987  78.964 121.405  0.00  0.00    -0.047 C 
ATOM      6  C   LIG d   1     -19.289  78.745 120.601  0.00  0.00     0.091 C 
ENDROOT
BRANCH   1   7
ATOM      7  O   LIG d   1     -20.447  77.109 119.191  0.00  0.00    -0.368 OA
BRANCH   7   8
ATOM      8  C   LIG d   1     -21.206  76.397 120.200  0.00  0.00     0.119 C 
BRANCH   8   9
ATOM      9  C   LIG d   1     -21.689  75.077 119.569  0.00  0.00     0.028 C 
ATOM     10  C   LIG d   1     -21.046  73.843 120.224  0.00  0.00     0.006 C 
ENDBRANCH   8   9
BRANCH   8  11
ATOM     11  C   LIG d   1     -22.481  77.157 120.577  0.00  0.00     0.028 C 
ATOM     12  C   LIG d   1     -22.956  78.111 119.470  0.00  0.00     0.006 C 
ENDBRANCH   8  11
ENDBRANCH   7   8
ENDBRANCH   1   7
BRANCH   6  13
ATOM     13  N   LIG d   1     -19.696  79.955 119.840  0.00  0.00    -0.311 N 
ATOM     14  C   LIG d   1     -20.615  80.817 120.270  0.00  0.00     0.210 C 
ATOM     15  C   LIG d   1     -20.898  81.986 119.322  0.00  0.00     0.109 C 
ATOM     16  O   LIG d   1     -21.198  80.743 121.362  0.00  0.00    -0.276 OA
ATOM     17  H   LIG d   1     -19.249  80.109 118.957  0.00  0.00     0.149 HD
ENDBRANCH   6  13
BRANCH   5  18
ATOM     18  N   LIG d   1     -18.123  79.987 122.459  0.00  0.00     0.381 N 
ATOM     19  H   LIG d   1     -17.245  80.444 122.603  0.00  0.00    -0.090 HD
ATOM     20  H   LIG d   1     -18.389  79.536 123.317  0.00  0.00    -0.090 HD
ATOM     21  H   LIG d   1     -18.815  80.655 122.199  0.00  0.00    -0.090 HD
ENDBRANCH   5  18
BRANCH   3  22
ATOM     22  C   LIG d   1     -16.669  75.532 121.470  0.00  0.00     0.382 C 
ATOM     23  O   LIG d   1     -17.055  74.521 122.104  0.00  0.00    -0.241 OA
ATOM     24  O   LIG d   1     -15.475  75.621 121.124  0.00  0.00    -0.241 OA
ENDBRANCH   3  22
TORSDOF 7
ENDMDL
MODEL 7
REMARK VINA RESULT:      -4.1     34.501     36.737
REMARK  7 active torsions:
REMARK  status: ('A' for Active; 'I' for Inactive)
REMARK    1  A    between atoms: C_2  and  C_3 
REMARK    2  A    between atoms: C_3  and  O_6 
REMARK    3  A    between atoms: C_3  and  C_4 
REMARK    4  A    between atoms: C_7  and  O_6 
REMARK    5  A    between atoms: C_9  and  C_10 
REMARK    6  A    between atoms: N_15  and  C_14 
REMARK    7  A    between atoms: N_20  and  C_19 
REMARK       I    between atoms: C_22  and  N_20 
ROOT
ATOM      1  C   LIG d   1      -0.852  57.541 119.906  0.00  0.00     0.161 C 
ATOM      2  C   LIG d   1      -1.869  56.843 119.234  0.00  0.00     0.016 C 
ATOM      3  C   LIG d   1      -3.246  57.095 119.430  0.00  0.00     0.038 C 
ATOM      4  C   LIG d   1      -3.700  58.173 120.205  0.00  0.00     0.028 C 
ATOM      5  C   LIG d   1      -2.722  58.586 121.299  0.00  0.00    -0.047 C 
ATOM      6  C   LIG d   1      -1.325  58.795 120.671  0.00  0.00     0.091 C 
ENDROOT
BRANCH   1   7
ATOM      7  O   LIG d   1       0.198  57.886 118.981  0.00  0.00    -0.368 OA
BRANCH   7   8
ATOM      8  C   LIG d   1       1.529  57.430 119.329  0.00  0.00     0.119 C 
BRANCH   8   9
ATOM      9  C   LIG d   1       2.405  58.680 119.543  0.00  0.00     0.028 C 
ATOM     10  C   LIG d   1       3.251  59.022 118.305  0.00  0.00     0.006 C 
ENDBRANCH   8   9
BRANCH   8  11
ATOM     11  C   LIG d   1       2.180  56.673 118.168  0.00  0.00     0.028 C 
ATOM     12  C   LIG d   1       1.285  55.555 117.610  0.00  0.00     0.006 C 
ENDBRANCH   8  11
ENDBRANCH   7   8
ENDBRANCH   1   7
BRANCH   6  13
ATOM     13  N   LIG d   1      -0.290  59.120 121.687  0.00  0.00    -0.311 N 
ATOM     14  C   LIG d   1       0.063  60.365 122.002  0.00  0.00     0.210 C 
ATOM     15  C   LIG d   1       1.165  60.477 123.060  0.00  0.00     0.109 C 
ATOM     16  O   LIG d   1      -0.455  61.388 121.529  0.00  0.00    -0.276 OA
ATOM     17  H   LIG d   1       0.160  58.350 122.142  0.00  0.00     0.149 HD
ENDBRANCH   6  13
BRANCH   5  18
ATOM     18  N   LIG d   1      -3.257  59.804 121.938  0.00  0.00     0.381 N 
ATOM     19  H   LIG d   1      -2.738  60.602 121.633  0.00  0.00    -0.090 HD
ATOM     20  H   LIG d   1      -3.152  59.721 122.934  0.00  0.00    -0.090 HD
ATOM     21  H   LIG d   1      -4.219  59.916 121.706  0.00  0.00    -0.090 HD
ENDBRANCH   5  18
BRANCH   3  22
ATOM     22  C   LIG d   1      -4.187  56.238 118.879  0.00  0.00     0.382 C 
ATOM     23  O   LIG d   1      -4.205  56.040 117.640  0.00  0.00    -0.241 OA
ATOM     24  O   LIG d   1      -5.045  55.694 119.600  0.00  0.00    -0.241 OA
ENDBRANCH   3  22
TORSDOF 7
ENDMDL
MODEL 8
REMARK VINA RESULT:      -4.1     34.459     36.789
REMARK  7 active torsions:
REMARK  status: ('A' for Active; 'I' for Inactive)
REMARK    1  A    between atoms: C_2  and  C_3 
REMARK    2  A    between atoms: C_3  and  O_6 
REMARK    3  A    between atoms: C_3  and  C_4 
REMARK    4  A    between atoms: C_7  and  O_6 
REMARK    5  A    between atoms: C_9  and  C_10 
REMARK    6  A    between atoms: N_15  and  C_14 
REMARK    7  A    between atoms: N_20  and  C_19 
REMARK       I    between atoms: C_22  and  N_20 
ROOT
ATOM      1  C   LIG d   1      -1.123  57.174 120.784  0.00  0.00     0.161 C 
ATOM      2  C   LIG d   1      -1.939  56.389 119.952  0.00  0.00     0.016 C 
ATOM      3  C   LIG d   1      -3.204  56.809 119.482  0.00  0.00     0.038 C 
ATOM      4  C   LIG d   1      -3.678  58.113 119.692  0.00  0.00     0.028 C 
ATOM      5  C   LIG d   1      -3.115  58.767 120.949  0.00  0.00    -0.047 C 
ATOM      6  C   LIG d   1      -1.574  58.643 120.932  0.00  0.00     0.091 C 
ENDROOT
BRANCH   1   7
ATOM      7  O   LIG d   1       0.243  57.113 120.329  0.00  0.00    -0.368 OA
BRANCH   7   8
ATOM      8  C   LIG d   1       0.515  57.728 119.046  0.00  0.00     0.119 C 
BRANCH   8   9
ATOM      9  C   LIG d   1       1.282  56.699 118.192  0.00  0.00     0.028 C 
ATOM     10  C   LIG d   1       1.540  55.385 118.949  0.00  0.00     0.006 C 
ENDBRANCH   8   9
BRANCH   8  11
ATOM     11  C   LIG d   1       1.463  58.922 119.190  0.00  0.00     0.028 C 
ATOM     12  C   LIG d   1       2.626  58.885 118.186  0.00  0.00     0.006 C 
ENDBRANCH   8  11
ENDBRANCH   7   8
ENDBRANCH   1   7
BRANCH   6  13
ATOM     13  N   LIG d   1      -0.948  59.183 122.167  0.00  0.00    -0.311 N 
ATOM     14  C   LIG d   1      -0.483  60.426 122.270  0.00  0.00     0.210 C 
ATOM     15  C   LIG d   1       0.142  60.774 123.625  0.00  0.00     0.109 C 
ATOM     16  O   LIG d   1      -0.557  61.285 121.378  0.00  0.00    -0.276 OA
ATOM     17  H   LIG d   1      -0.875  58.563 122.950  0.00  0.00     0.149 HD
ENDBRANCH   6  13
BRANCH   5  18
ATOM     18  N   LIG d   1      -3.581  60.166 120.970  0.00  0.00     0.381 N 
ATOM     19  H   LIG d   1      -3.597  60.504 121.912  0.00  0.00    -0.090 HD
ATOM     20  H   LIG d   1      -4.518  60.202 120.607  0.00  0.00    -0.090 HD
ATOM     21  H   LIG d   1      -2.980  60.735 120.416  0.00  0.00    -0.090 HD
ENDBRANCH   5  18
BRANCH   3  22
ATOM     22  C   LIG d   1      -4.029  55.906 118.828  0.00  0.00     0.382 C 
ATOM     23  O   LIG d   1      -4.262  56.045 117.603  0.00  0.00    -0.241 OA
ATOM     24  O   LIG d   1      -4.577  54.981 119.456  0.00  0.00    -0.241 OA
ENDBRANCH   3  22
TORSDOF 7
ENDMDL
MODEL 9
REMARK VINA RESULT:      -4.0     27.663     30.240
REMARK  7 active torsions:
REMARK  status: ('A' for Active; 'I' for Inactive)
REMARK    1  A    between atoms: C_2  and  C_3 
REMARK    2  A    between atoms: C_3  and  O_6 
REMARK    3  A    between atoms: C_3  and  C_4 
REMARK    4  A    between atoms: C_7  and  O_6 
REMARK    5  A    between atoms: C_9  and  C_10 
REMARK    6  A    between atoms: N_15  and  C_14 
REMARK    7  A    between atoms: N_20  and  C_19 
REMARK       I    between atoms: C_22  and  N_20 
ROOT
ATOM      1  C   LIG d   1     -13.176  65.929 121.549  0.00  0.00     0.161 C 
ATOM      2  C   LIG d   1     -12.196  65.429 122.422  0.00  0.00     0.016 C 
ATOM      3  C   LIG d   1     -11.509  64.212 122.207  0.00  0.00     0.038 C 
ATOM      4  C   LIG d   1     -11.648  63.483 121.016  0.00  0.00     0.028 C 
ATOM      5  C   LIG d   1     -12.997  63.687 120.335  0.00  0.00    -0.047 C 
ATOM      6  C   LIG d   1     -13.261  65.203 120.189  0.00  0.00     0.091 C 
ENDROOT
BRANCH   1   7
ATOM      7  O   LIG d   1     -12.978  67.343 121.350  0.00  0.00    -0.368 OA
BRANCH   7   8
ATOM      8  C   LIG d   1     -13.624  68.217 122.308  0.00  0.00     0.119 C 
BRANCH   8   9
ATOM      9  C   LIG d   1     -15.135  68.199 122.006  0.00  0.00     0.028 C 
ATOM     10  C   LIG d   1     -15.981  67.929 123.261  0.00  0.00     0.006 C 
ENDBRANCH   8   9
BRANCH   8  11
ATOM     11  C   LIG d   1     -13.189  69.673 122.115  0.00  0.00     0.028 C 
ATOM     12  C   LIG d   1     -12.573  70.284 123.384  0.00  0.00     0.006 C 
ENDBRANCH   8  11
ENDBRANCH   7   8
ENDBRANCH   1   7
BRANCH   6  13
ATOM     13  N   LIG d   1     -14.598  65.492 119.608  0.00  0.00    -0.311 N 
ATOM     14  C   LIG d   1     -14.804  66.409 118.664  0.00  0.00     0.210 C 
ATOM     15  C   LIG d   1     -16.262  66.562 118.219  0.00  0.00     0.109 C 
ATOM     16  O   LIG d   1     -13.914  67.088 118.131  0.00  0.00    -0.276 OA
ATOM     17  H   LIG d   1     -15.372  64.965 119.961  0.00  0.00     0.149 HD
ENDBRANCH   6  13
BRANCH   5  18
ATOM     18  N   LIG d   1     -12.954  62.981 119.041  0.00  0.00     0.381 N 
ATOM     19  H   LIG d   1     -13.829  63.087 118.568  0.00  0.00    -0.090 HD
ATOM     20  H   LIG d   1     -12.802  62.002 119.209  0.00  0.00    -0.090 HD
ATOM     21  H   LIG d   1     -12.217  63.346 118.477  0.00  0.00    -0.090 HD
ENDBRANCH   5  18
BRANCH   3  22
ATOM     22  C   LIG d   1     -10.701  63.693 123.207  0.00  0.00     0.382 C 
ATOM     23  O   LIG d   1      -9.589  64.220 123.451  0.00  0.00    -0.241 OA
ATOM     24  O   LIG d   1     -11.050  62.677 123.837  0.00  0.00    -0.241 OA
ENDBRANCH   3  22
TORSDOF 7
ENDMDL
