MODEL 1
REMARK VINA RESULT:      -5.4      0.000      0.000
REMARK  7 active torsions:
REMARK  status: ('A' for Active; 'I' for Inactive)
REMARK    1  A    between atoms: C_2  and  C_3 
REMARK    2  A    between atoms: C_3  and  O_6 
REMARK    3  A    between atoms: C_3  and  C_4 
REMARK    4  A    between atoms: C_7  and  O_6 
REMARK    5  A    between atoms: C_9  and  C_10 
REMARK    6  A    between atoms: N_15  and  C_14 
REMARK    7  A    between atoms: N_20  and  C_19 
REMARK       I    between atoms: C_22  and  N_20 
ROOT
ATOM      1  C   LIG d   1      -6.334  93.315 118.398  0.00  0.00     0.161 C 
ATOM      2  C   LIG d   1      -7.082  92.347 117.708  0.00  0.00     0.016 C 
ATOM      3  C   LIG d   1      -6.500  91.251 117.030  0.00  0.00     0.038 C 
ATOM      4  C   LIG d   1      -5.130  90.964 117.124  0.00  0.00     0.028 C 
ATOM      5  C   LIG d   1      -4.270  92.195 117.390  0.00  0.00    -0.047 C 
ATOM      6  C   LIG d   1      -4.847  92.957 118.605  0.00  0.00     0.091 C 
ENDROOT
BRANCH   1   7
ATOM      7  O   LIG d   1      -6.960  93.606 119.664  0.00  0.00    -0.368 OA
BRANCH   7   8
ATOM      8  C   LIG d   1      -7.626  94.889 119.765  0.00  0.00     0.119 C 
BRANCH   8   9
ATOM      9  C   LIG d   1      -9.142  94.633 119.648  0.00  0.00     0.028 C 
ATOM     10  C   LIG d   1      -9.697  93.844 120.846  0.00  0.00     0.006 C 
ENDBRANCH   8   9
BRANCH   8  11
ATOM     11  C   LIG d   1      -7.276  95.794 118.581  0.00  0.00     0.028 C 
ATOM     12  C   LIG d   1      -8.423  96.741 118.195  0.00  0.00     0.006 C 
ENDBRANCH   8  11
ENDBRANCH   7   8
ENDBRANCH   1   7
BRANCH   6  13
ATOM     13  N   LIG d   1      -4.114  94.220 118.882  0.00  0.00    -0.311 N 
ATOM     14  C   LIG d   1      -3.105  94.308 119.747  0.00  0.00     0.210 C 
ATOM     15  C   LIG d   1      -2.502  95.708 119.897  0.00  0.00     0.109 C 
ATOM     16  O   LIG d   1      -2.631  93.353 120.380  0.00  0.00    -0.276 OA
ATOM     17  H   LIG d   1      -4.413  95.039 118.388  0.00  0.00     0.149 HD
ENDBRANCH   6  13
BRANCH   5  18
ATOM     18  N   LIG d   1      -2.885  91.734 117.602  0.00  0.00     0.381 N 
ATOM     19  H   LIG d   1      -2.246  92.476 117.397  0.00  0.00    -0.090 HD
ATOM     20  H   LIG d   1      -2.696  90.972 116.974  0.00  0.00    -0.090 HD
ATOM     21  H   LIG d   1      -2.766  91.434 118.544  0.00  0.00    -0.090 HD
ENDBRANCH   5  18
BRANCH   3  22
ATOM     22  C   LIG d   1      -7.286  90.452 116.215  0.00  0.00     0.382 C 
ATOM     23  O   LIG d   1      -8.320  89.911 116.676  0.00  0.00    -0.241 OA
ATOM     24  O   LIG d   1      -6.951  90.228 115.036  0.00  0.00    -0.241 OA
ENDBRANCH   3  22
TORSDOF 7
ENDMDL
MODEL 2
REMARK VINA RESULT:      -5.3      0.494      1.681
REMARK  7 active torsions:
REMARK  status: ('A' for Active; 'I' for Inactive)
REMARK    1  A    between atoms: C_2  and  C_3 
REMARK    2  A    between atoms: C_3  and  O_6 
REMARK    3  A    between atoms: C_3  and  C_4 
REMARK    4  A    between atoms: C_7  and  O_6 
REMARK    5  A    between atoms: C_9  and  C_10 
REMARK    6  A    between atoms: N_15  and  C_14 
REMARK    7  A    between atoms: N_20  and  C_19 
REMARK       I    between atoms: C_22  and  N_20 
ROOT
ATOM      1  C   LIG d   1      -6.348  93.175 118.272  0.00  0.00     0.161 C 
ATOM      2  C   LIG d   1      -7.152  92.252 117.584  0.00  0.00     0.016 C 
ATOM      3  C   LIG d   1      -6.634  91.132 116.893  0.00  0.00     0.038 C 
ATOM      4  C   LIG d   1      -5.280  90.774 116.971  0.00  0.00     0.028 C 
ATOM      5  C   LIG d   1      -4.355  91.957 117.236  0.00  0.00    -0.047 C 
ATOM      6  C   LIG d   1      -4.880  92.740 118.461  0.00  0.00     0.091 C 
ENDROOT
BRANCH   1   7
ATOM      7  O   LIG d   1      -6.946  93.490 119.545  0.00  0.00    -0.368 OA
BRANCH   7   8
ATOM      8  C   LIG d   1      -8.191  94.229 119.500  0.00  0.00     0.119 C 
BRANCH   8   9
ATOM      9  C   LIG d   1      -7.838  95.727 119.428  0.00  0.00     0.028 C 
ATOM     10  C   LIG d   1      -8.477  96.423 118.214  0.00  0.00     0.006 C 
ENDBRANCH   8   9
BRANCH   8  11
ATOM     11  C   LIG d   1      -8.986  94.062 120.798  0.00  0.00     0.028 C 
ATOM     12  C   LIG d   1     -10.498  94.251 120.600  0.00  0.00     0.006 C 
ENDBRANCH   8  11
ENDBRANCH   7   8
ENDBRANCH   1   7
BRANCH   6  13
ATOM     13  N   LIG d   1      -4.080  93.961 118.738  0.00  0.00    -0.311 N 
ATOM     14  C   LIG d   1      -3.054  93.989 119.586  0.00  0.00     0.210 C 
ATOM     15  C   LIG d   1      -2.379  95.356 119.740  0.00  0.00     0.109 C 
ATOM     16  O   LIG d   1      -2.618  93.004 120.201  0.00  0.00    -0.276 OA
ATOM     17  H   LIG d   1      -4.346  94.799 118.258  0.00  0.00     0.149 HD
ENDBRANCH   6  13
BRANCH   5  18
ATOM     18  N   LIG d   1      -2.994  91.423 117.430  0.00  0.00     0.381 N 
ATOM     19  H   LIG d   1      -2.562  91.264 116.542  0.00  0.00    -0.090 HD
ATOM     20  H   LIG d   1      -3.055  90.544 117.913  0.00  0.00    -0.090 HD
ATOM     21  H   LIG d   1      -2.449  92.066 117.962  0.00  0.00    -0.090 HD
ENDBRANCH   5  18
BRANCH   3  22
ATOM     22  C   LIG d   1      -7.469  90.379 116.080  0.00  0.00     0.382 C 
ATOM     23  O   LIG d   1      -7.229  90.284 114.853  0.00  0.00    -0.241 OA
ATOM     24  O   LIG d   1      -8.483  89.831 116.552  0.00  0.00    -0.241 OA
ENDBRANCH   3  22
TORSDOF 7
ENDMDL
MODEL 3
REMARK VINA RESULT:      -4.9      2.374      5.079
REMARK  7 active torsions:
REMARK  status: ('A' for Active; 'I' for Inactive)
REMARK    1  A    between atoms: C_2  and  C_3 
REMARK    2  A    between atoms: C_3  and  O_6 
REMARK    3  A    between atoms: C_3  and  C_4 
REMARK    4  A    between atoms: C_7  and  O_6 
REMARK    5  A    between atoms: C_9  and  C_10 
REMARK    6  A    between atoms: N_15  and  C_14 
REMARK    7  A    between atoms: N_20  and  C_19 
REMARK       I    between atoms: C_22  and  N_20 
ROOT
ATOM      1  C   LIG d   1      -4.248  91.470 118.113  0.00  0.00     0.161 C 
ATOM      2  C   LIG d   1      -5.102  90.782 117.234  0.00  0.00     0.016 C 
ATOM      3  C   LIG d   1      -6.332  91.306 116.775  0.00  0.00     0.038 C 
ATOM      4  C   LIG d   1      -6.723  92.626 117.046  0.00  0.00     0.028 C 
ATOM      5  C   LIG d   1      -6.135  93.178 118.340  0.00  0.00    -0.047 C 
ATOM      6  C   LIG d   1      -4.605  92.955 118.331  0.00  0.00     0.091 C 
ENDROOT
BRANCH   1   7
ATOM      7  O   LIG d   1      -2.883  91.342 117.668  0.00  0.00    -0.368 OA
BRANCH   7   8
ATOM      8  C   LIG d   1      -1.974  90.680 118.581  0.00  0.00     0.119 C 
BRANCH   8   9
ATOM      9  C   LIG d   1      -0.561  91.229 118.307  0.00  0.00     0.028 C 
ATOM     10  C   LIG d   1       0.488  90.660 119.277  0.00  0.00     0.006 C 
ENDBRANCH   8   9
BRANCH   8  11
ATOM     11  C   LIG d   1      -1.890  89.178 118.292  0.00  0.00     0.028 C 
ATOM     12  C   LIG d   1      -2.561  88.324 119.379  0.00  0.00     0.006 C 
ENDBRANCH   8  11
ENDBRANCH   7   8
ENDBRANCH   1   7
BRANCH   6  13
ATOM     13  N   LIG d   1      -3.962  93.391 119.598  0.00  0.00    -0.311 N 
ATOM     14  C   LIG d   1      -2.884  94.173 119.641  0.00  0.00     0.210 C 
ATOM     15  C   LIG d   1      -2.369  94.486 121.050  0.00  0.00     0.109 C 
ATOM     16  O   LIG d   1      -2.325  94.662 118.649  0.00  0.00    -0.276 OA
ATOM     17  H   LIG d   1      -4.369  93.065 120.452  0.00  0.00     0.149 HD
ENDBRANCH   6  13
BRANCH   5  18
ATOM     18  N   LIG d   1      -6.511  94.602 118.428  0.00  0.00     0.381 N 
ATOM     19  H   LIG d   1      -5.750  95.130 118.806  0.00  0.00    -0.090 HD
ATOM     20  H   LIG d   1      -7.297  94.693 119.047  0.00  0.00    -0.090 HD
ATOM     21  H   LIG d   1      -6.748  94.948 117.524  0.00  0.00    -0.090 HD
ENDBRANCH   5  18
BRANCH   3  22
ATOM     22  C   LIG d   1      -7.204  90.492 116.068  0.00  0.00     0.382 C 
ATOM     23  O   LIG d   1      -8.214  90.012 116.637  0.00  0.00    -0.241 OA
ATOM     24  O   LIG d   1      -6.970  90.197 114.880  0.00  0.00    -0.241 OA
ENDBRANCH   3  22
TORSDOF 7
ENDMDL
MODEL 4
REMARK VINA RESULT:      -4.8      2.551      6.567
REMARK  7 active torsions:
REMARK  status: ('A' for Active; 'I' for Inactive)
REMARK    1  A    between atoms: C_2  and  C_3 
REMARK    2  A    between atoms: C_3  and  O_6 
REMARK    3  A    between atoms: C_3  and  C_4 
REMARK    4  A    between atoms: C_7  and  O_6 
REMARK    5  A    between atoms: C_9  and  C_10 
REMARK    6  A    between atoms: N_15  and  C_14 
REMARK    7  A    between atoms: N_20  and  C_19 
REMARK       I    between atoms: C_22  and  N_20 
ROOT
ATOM      1  C   LIG d   1      -4.237  92.278 117.671  0.00  0.00     0.161 C 
ATOM      2  C   LIG d   1      -3.712  92.881 118.826  0.00  0.00     0.016 C 
ATOM      3  C   LIG d   1      -4.513  93.331 119.902  0.00  0.00     0.038 C 
ATOM      4  C   LIG d   1      -5.890  93.069 119.961  0.00  0.00     0.028 C 
ATOM      5  C   LIG d   1      -6.536  92.912 118.589  0.00  0.00    -0.047 C 
ATOM      6  C   LIG d   1      -5.726  91.884 117.767  0.00  0.00     0.091 C 
ENDROOT
BRANCH   1   7
ATOM      7  O   LIG d   1      -3.438  91.134 117.311  0.00  0.00    -0.368 OA
BRANCH   7   8
ATOM      8  C   LIG d   1      -2.549  90.629 118.337  0.00  0.00     0.119 C 
BRANCH   8   9
ATOM      9  C   LIG d   1      -1.163  90.432 117.693  0.00  0.00     0.028 C 
ATOM     10  C   LIG d   1      -0.158  91.514 118.121  0.00  0.00     0.006 C 
ENDBRANCH   8   9
BRANCH   8  11
ATOM     11  C   LIG d   1      -2.978  89.237 118.811  0.00  0.00     0.028 C 
ATOM     12  C   LIG d   1      -3.567  89.246 120.230  0.00  0.00     0.006 C 
ENDBRANCH   8  11
ENDBRANCH   7   8
ENDBRANCH   1   7
BRANCH   6  13
ATOM     13  N   LIG d   1      -6.242  91.733 116.381  0.00  0.00    -0.311 N 
ATOM     14  C   LIG d   1      -7.189  90.860 116.042  0.00  0.00     0.210 C 
ATOM     15  C   LIG d   1      -7.560  90.854 114.556  0.00  0.00     0.109 C 
ATOM     16  O   LIG d   1      -7.779  90.113 116.837  0.00  0.00    -0.276 OA
ATOM     17  H   LIG d   1      -5.840  92.323 115.679  0.00  0.00     0.149 HD
ENDBRANCH   6  13
BRANCH   5  18
ATOM     18  N   LIG d   1      -7.939  92.507 118.801  0.00  0.00     0.381 N 
ATOM     19  H   LIG d   1      -8.216  91.860 118.090  0.00  0.00    -0.090 HD
ATOM     20  H   LIG d   1      -8.526  93.320 118.734  0.00  0.00    -0.090 HD
ATOM     21  H   LIG d   1      -8.041  92.088 119.699  0.00  0.00    -0.090 HD
ENDBRANCH   5  18
BRANCH   3  22
ATOM     22  C   LIG d   1      -3.941  94.086 120.914  0.00  0.00     0.382 C 
ATOM     23  O   LIG d   1      -2.894  94.740 120.694  0.00  0.00    -0.241 OA
ATOM     24  O   LIG d   1      -4.436  94.086 122.058  0.00  0.00    -0.241 OA
ENDBRANCH   3  22
TORSDOF 7
ENDMDL
MODEL 5
REMARK VINA RESULT:      -4.7      2.281      4.289
REMARK  7 active torsions:
REMARK  status: ('A' for Active; 'I' for Inactive)
REMARK    1  A    between atoms: C_2  and  C_3 
REMARK    2  A    between atoms: C_3  and  O_6 
REMARK    3  A    between atoms: C_3  and  C_4 
REMARK    4  A    between atoms: C_7  and  O_6 
REMARK    5  A    between atoms: C_9  and  C_10 
REMARK    6  A    between atoms: N_15  and  C_14 
REMARK    7  A    between atoms: N_20  and  C_19 
REMARK       I    between atoms: C_22  and  N_20 
ROOT
ATOM      1  C   LIG d   1      -5.396  91.698 119.008  0.00  0.00     0.161 C 
ATOM      2  C   LIG d   1      -5.812  90.925 117.911  0.00  0.00     0.016 C 
ATOM      3  C   LIG d   1      -6.619  91.429 116.865  0.00  0.00     0.038 C 
ATOM      4  C   LIG d   1      -6.941  92.791 116.768  0.00  0.00     0.028 C 
ATOM      5  C   LIG d   1      -6.967  93.505 118.115  0.00  0.00    -0.047 C 
ATOM      6  C   LIG d   1      -5.645  93.213 118.862  0.00  0.00     0.091 C 
ENDROOT
BRANCH   1   7
ATOM      7  O   LIG d   1      -4.005  91.443 119.286  0.00  0.00    -0.368 OA
BRANCH   7   8
ATOM      8  C   LIG d   1      -3.057  91.954 118.316  0.00  0.00     0.119 C 
BRANCH   8   9
ATOM      9  C   LIG d   1      -2.119  90.794 117.930  0.00  0.00     0.028 C 
ATOM     10  C   LIG d   1      -2.486  89.481 118.641  0.00  0.00     0.006 C 
ENDBRANCH   8   9
BRANCH   8  11
ATOM     11  C   LIG d   1      -2.150  93.022 118.933  0.00  0.00     0.028 C 
ATOM     12  C   LIG d   1      -1.676  94.065 117.908  0.00  0.00     0.006 C 
ENDBRANCH   8  11
ENDBRANCH   7   8
ENDBRANCH   1   7
BRANCH   6  13
ATOM     13  N   LIG d   1      -5.623  93.806 120.225  0.00  0.00    -0.311 N 
ATOM     14  C   LIG d   1      -5.050  94.975 120.507  0.00  0.00     0.210 C 
ATOM     15  C   LIG d   1      -5.122  95.392 121.979  0.00  0.00     0.109 C 
ATOM     16  O   LIG d   1      -4.517  95.721 119.672  0.00  0.00    -0.276 OA
ATOM     17  H   LIG d   1      -6.060  93.282 120.958  0.00  0.00     0.149 HD
ENDBRANCH   6  13
BRANCH   5  18
ATOM     18  N   LIG d   1      -7.179  94.941 117.854  0.00  0.00     0.381 N 
ATOM     19  H   LIG d   1      -7.256  95.099 116.869  0.00  0.00    -0.090 HD
ATOM     20  H   LIG d   1      -6.385  95.454 118.195  0.00  0.00    -0.090 HD
ATOM     21  H   LIG d   1      -8.007  95.252 118.313  0.00  0.00    -0.090 HD
ENDBRANCH   5  18
BRANCH   3  22
ATOM     22  C   LIG d   1      -7.145  90.558 115.923  0.00  0.00     0.382 C 
ATOM     23  O   LIG d   1      -6.442  90.183 114.954  0.00  0.00    -0.241 OA
ATOM     24  O   LIG d   1      -8.329  90.179 116.005  0.00  0.00    -0.241 OA
ENDBRANCH   3  22
TORSDOF 7
ENDMDL
MODEL 6
REMARK VINA RESULT:      -4.7     27.559     29.952
REMARK  7 active torsions:
REMARK  status: ('A' for Active; 'I' for Inactive)
REMARK    1  A    between atoms: C_2  and  C_3 
REMARK    2  A    between atoms: C_3  and  O_6 
REMARK    3  A    between atoms: C_3  and  C_4 
REMARK    4  A    between atoms: C_7  and  O_6 
REMARK    5  A    between atoms: C_9  and  C_10 
REMARK    6  A    between atoms: N_15  and  C_14 
REMARK    7  A    between atoms: N_20  and  C_19 
REMARK       I    between atoms: C_22  and  N_20 
ROOT
ATOM      1  C   LIG d   1     -15.040  65.374 118.948  0.00  0.00     0.161 C 
ATOM      2  C   LIG d   1     -14.476  66.297 119.844  0.00  0.00     0.016 C 
ATOM      3  C   LIG d   1     -13.730  65.919 120.984  0.00  0.00     0.038 C 
ATOM      4  C   LIG d   1     -13.367  64.585 121.223  0.00  0.00     0.028 C 
ATOM      5  C   LIG d   1     -14.339  63.575 120.622  0.00  0.00    -0.047 C 
ATOM      6  C   LIG d   1     -14.561  63.919 119.131  0.00  0.00     0.091 C 
ENDROOT
BRANCH   1   7
ATOM      7  O   LIG d   1     -14.814  65.808 117.592  0.00  0.00    -0.368 OA
BRANCH   7   8
ATOM      8  C   LIG d   1     -15.998  66.117 116.817  0.00  0.00     0.119 C 
BRANCH   8   9
ATOM      9  C   LIG d   1     -15.924  65.300 115.512  0.00  0.00     0.028 C 
ATOM     10  C   LIG d   1     -17.247  64.587 115.190  0.00  0.00     0.006 C 
ENDBRANCH   8   9
BRANCH   8  11
ATOM     11  C   LIG d   1     -16.009  67.584 116.376  0.00  0.00     0.028 C 
ATOM     12  C   LIG d   1     -15.041  67.865 115.216  0.00  0.00     0.006 C 
ENDBRANCH   8  11
ENDBRANCH   7   8
ENDBRANCH   1   7
BRANCH   6  13
ATOM     13  N   LIG d   1     -15.564  63.030 118.488  0.00  0.00    -0.311 N 
ATOM     14  C   LIG d   1     -15.261  62.156 117.530  0.00  0.00     0.210 C 
ATOM     15  C   LIG d   1     -16.448  61.353 116.990  0.00  0.00     0.109 C 
ATOM     16  O   LIG d   1     -14.117  61.947 117.099  0.00  0.00    -0.276 OA
ATOM     17  H   LIG d   1     -16.512  63.112 118.800  0.00  0.00     0.149 HD
ENDBRANCH   6  13
BRANCH   5  18
ATOM     18  N   LIG d   1     -13.768  62.231 120.827  0.00  0.00     0.381 N 
ATOM     19  H   LIG d   1     -14.466  61.620 121.202  0.00  0.00    -0.090 HD
ATOM     20  H   LIG d   1     -13.016  62.295 121.490  0.00  0.00    -0.090 HD
ATOM     21  H   LIG d   1     -13.429  61.869 119.963  0.00  0.00    -0.090 HD
ENDBRANCH   5  18
BRANCH   3  22
ATOM     22  C   LIG d   1     -13.372  66.877 121.920  0.00  0.00     0.382 C 
ATOM     23  O   LIG d   1     -13.352  66.584 123.140  0.00  0.00    -0.241 OA
ATOM     24  O   LIG d   1     -13.113  68.042 121.565  0.00  0.00    -0.241 OA
ENDBRANCH   3  22
TORSDOF 7
ENDMDL
MODEL 7
REMARK VINA RESULT:      -4.7     13.942     16.417
REMARK  7 active torsions:
REMARK  status: ('A' for Active; 'I' for Inactive)
REMARK    1  A    between atoms: C_2  and  C_3 
REMARK    2  A    between atoms: C_3  and  O_6 
REMARK    3  A    between atoms: C_3  and  C_4 
REMARK    4  A    between atoms: C_7  and  O_6 
REMARK    5  A    between atoms: C_9  and  C_10 
REMARK    6  A    between atoms: N_15  and  C_14 
REMARK    7  A    between atoms: N_20  and  C_19 
REMARK       I    between atoms: C_22  and  N_20 
ROOT
ATOM      1  C   LIG d   1      -5.543  77.238 116.880  0.00  0.00     0.161 C 
ATOM      2  C   LIG d   1      -6.863  76.869 117.188  0.00  0.00     0.016 C 
ATOM      3  C   LIG d   1      -7.808  77.758 117.750  0.00  0.00     0.038 C 
ATOM      4  C   LIG d   1      -7.540  79.127 117.901  0.00  0.00     0.028 C 
ATOM      5  C   LIG d   1      -6.057  79.438 118.074  0.00  0.00    -0.047 C 
ATOM      6  C   LIG d   1      -5.265  78.755 116.935  0.00  0.00     0.091 C 
ENDROOT
BRANCH   1   7
ATOM      7  O   LIG d   1      -5.176  76.708 115.591  0.00  0.00    -0.368 OA
BRANCH   7   8
ATOM      8  C   LIG d   1      -4.359  75.511 115.602  0.00  0.00     0.119 C 
BRANCH   8   9
ATOM      9  C   LIG d   1      -2.940  75.916 115.159  0.00  0.00     0.028 C 
ATOM     10  C   LIG d   1      -1.889  75.659 116.252  0.00  0.00     0.006 C 
ENDBRANCH   8   9
BRANCH   8  11
ATOM     11  C   LIG d   1      -4.838  74.500 114.556  0.00  0.00     0.028 C 
ATOM     12  C   LIG d   1      -5.815  73.464 115.133  0.00  0.00     0.006 C 
ENDBRANCH   8  11
ENDBRANCH   7   8
ENDBRANCH   1   7
BRANCH   6  13
ATOM     13  N   LIG d   1      -3.797  78.939 117.076  0.00  0.00    -0.311 N 
ATOM     14  C   LIG d   1      -3.032  79.478 116.129  0.00  0.00     0.210 C 
ATOM     15  C   LIG d   1      -1.540  79.556 116.470  0.00  0.00     0.109 C 
ATOM     16  O   LIG d   1      -3.451  79.928 115.052  0.00  0.00    -0.276 OA
ATOM     17  H   LIG d   1      -3.379  78.629 117.931  0.00  0.00     0.149 HD
ENDBRANCH   6  13
BRANCH   5  18
ATOM     18  N   LIG d   1      -5.908  80.905 118.082  0.00  0.00     0.381 N 
ATOM     19  H   LIG d   1      -6.784  81.336 117.863  0.00  0.00    -0.090 HD
ATOM     20  H   LIG d   1      -5.242  81.168 117.377  0.00  0.00    -0.090 HD
ATOM     21  H   LIG d   1      -5.593  81.211 118.976  0.00  0.00    -0.090 HD
ENDBRANCH   5  18
BRANCH   3  22
ATOM     22  C   LIG d   1      -9.025  77.271 118.203  0.00  0.00     0.382 C 
ATOM     23  O   LIG d   1      -9.581  77.800 119.196  0.00  0.00    -0.241 OA
ATOM     24  O   LIG d   1      -9.552  76.283 117.659  0.00  0.00    -0.241 OA
ENDBRANCH   3  22
TORSDOF 7
ENDMDL
MODEL 8
REMARK VINA RESULT:      -4.7     12.193     15.092
REMARK  7 active torsions:
REMARK  status: ('A' for Active; 'I' for Inactive)
REMARK    1  A    between atoms: C_2  and  C_3 
REMARK    2  A    between atoms: C_3  and  O_6 
REMARK    3  A    between atoms: C_3  and  C_4 
REMARK    4  A    between atoms: C_7  and  O_6 
REMARK    5  A    between atoms: C_9  and  C_10 
REMARK    6  A    between atoms: N_15  and  C_14 
REMARK    7  A    between atoms: N_20  and  C_19 
REMARK       I    between atoms: C_22  and  N_20 
ROOT
ATOM      1  C   LIG d   1     -10.218  79.349 119.193  0.00  0.00     0.161 C 
ATOM      2  C   LIG d   1      -9.535  80.082 118.208  0.00  0.00     0.016 C 
ATOM      3  C   LIG d   1      -8.933  81.339 118.451  0.00  0.00     0.038 C 
ATOM      4  C   LIG d   1      -8.844  81.881 119.741  0.00  0.00     0.028 C 
ATOM      5  C   LIG d   1      -9.959  81.417 120.672  0.00  0.00    -0.047 C 
ATOM      6  C   LIG d   1     -10.035  79.873 120.633  0.00  0.00     0.091 C 
ENDROOT
BRANCH   1   7
ATOM      7  O   LIG d   1      -9.845  77.959 119.114  0.00  0.00    -0.368 OA
BRANCH   7   8
ATOM      8  C   LIG d   1      -8.508  77.685 118.629  0.00  0.00     0.119 C 
BRANCH   8   9
ATOM      9  C   LIG d   1      -8.615  76.546 117.597  0.00  0.00     0.028 C 
ATOM     10  C   LIG d   1      -7.253  75.902 117.290  0.00  0.00     0.006 C 
ENDBRANCH   8   9
BRANCH   8  11
ATOM     11  C   LIG d   1      -7.612  77.139 119.744  0.00  0.00     0.028 C 
ATOM     12  C   LIG d   1      -6.666  78.203 120.323  0.00  0.00     0.006 C 
ENDBRANCH   8  11
ENDBRANCH   7   8
ENDBRANCH   1   7
BRANCH   6  13
ATOM     13  N   LIG d   1     -11.155  79.340 121.451  0.00  0.00    -0.311 N 
ATOM     14  C   LIG d   1     -11.049  78.260 122.224  0.00  0.00     0.210 C 
ATOM     15  C   LIG d   1     -12.330  77.869 122.968  0.00  0.00     0.109 C 
ATOM     16  O   LIG d   1     -10.007  77.607 122.388  0.00  0.00    -0.276 OA
ATOM     17  H   LIG d   1     -12.028  79.827 121.402  0.00  0.00     0.149 HD
ENDBRANCH   6  13
BRANCH   5  18
ATOM     18  N   LIG d   1      -9.666  81.947 122.018  0.00  0.00     0.381 N 
ATOM     19  H   LIG d   1     -10.069  82.857 122.118  0.00  0.00    -0.090 HD
ATOM     20  H   LIG d   1      -8.670  82.029 122.125  0.00  0.00    -0.090 HD
ATOM     21  H   LIG d   1     -10.033  81.334 122.713  0.00  0.00    -0.090 HD
ENDBRANCH   5  18
BRANCH   3  22
ATOM     22  C   LIG d   1      -8.448  82.085 117.388  0.00  0.00     0.382 C 
ATOM     23  O   LIG d   1      -9.246  82.595 116.564  0.00  0.00    -0.241 OA
ATOM     24  O   LIG d   1      -7.222  82.218 117.217  0.00  0.00    -0.241 OA
ENDBRANCH   3  22
TORSDOF 7
ENDMDL
MODEL 9
REMARK VINA RESULT:      -4.5     11.458     14.005
REMARK  7 active torsions:
REMARK  status: ('A' for Active; 'I' for Inactive)
REMARK    1  A    between atoms: C_2  and  C_3 
REMARK    2  A    between atoms: C_3  and  O_6 
REMARK    3  A    between atoms: C_3  and  C_4 
REMARK    4  A    between atoms: C_7  and  O_6 
REMARK    5  A    between atoms: C_9  and  C_10 
REMARK    6  A    between atoms: N_15  and  C_14 
REMARK    7  A    between atoms: N_20  and  C_19 
REMARK       I    between atoms: C_22  and  N_20 
ROOT
ATOM      1  C   LIG d   1      -6.855  80.208 118.385  0.00  0.00     0.161 C 
ATOM      2  C   LIG d   1      -5.712  80.030 117.586  0.00  0.00     0.016 C 
ATOM      3  C   LIG d   1      -5.343  78.787 117.023  0.00  0.00     0.038 C 
ATOM      4  C   LIG d   1      -6.178  77.662 117.095  0.00  0.00     0.028 C 
ATOM      5  C   LIG d   1      -7.093  77.664 118.315  0.00  0.00    -0.047 C 
ATOM      6  C   LIG d   1      -7.837  79.018 118.382  0.00  0.00     0.091 C 
ENDROOT
BRANCH   1   7
ATOM      7  O   LIG d   1      -7.534  81.419 118.001  0.00  0.00    -0.368 OA
BRANCH   7   8
ATOM      8  C   LIG d   1      -8.141  82.177 119.077  0.00  0.00     0.119 C 
BRANCH   8   9
ATOM      9  C   LIG d   1      -9.464  82.760 118.544  0.00  0.00     0.028 C 
ATOM     10  C   LIG d   1      -9.649  82.513 117.037  0.00  0.00     0.006 C 
ENDBRANCH   8   9
BRANCH   8  11
ATOM     11  C   LIG d   1      -7.286  83.391 119.454  0.00  0.00     0.028 C 
ATOM     12  C   LIG d   1      -6.068  83.018 120.313  0.00  0.00     0.006 C 
ENDBRANCH   8  11
ENDBRANCH   7   8
ENDBRANCH   1   7
BRANCH   6  13
ATOM     13  N   LIG d   1      -8.690  79.136 119.593  0.00  0.00    -0.311 N 
ATOM     14  C   LIG d   1      -9.969  78.767 119.628  0.00  0.00     0.210 C 
ATOM     15  C   LIG d   1     -10.671  78.993 120.971  0.00  0.00     0.109 C 
ATOM     16  O   LIG d   1     -10.580  78.244 118.684  0.00  0.00    -0.276 OA
ATOM     17  H   LIG d   1      -8.265  79.522 120.414  0.00  0.00     0.149 HD
ENDBRANCH   6  13
BRANCH   5  18
ATOM     18  N   LIG d   1      -8.002  76.510 118.192  0.00  0.00     0.381 N 
ATOM     19  H   LIG d   1      -8.616  76.643 117.413  0.00  0.00    -0.090 HD
ATOM     20  H   LIG d   1      -8.561  76.446 119.026  0.00  0.00    -0.090 HD
ATOM     21  H   LIG d   1      -7.476  75.672 118.071  0.00  0.00    -0.090 HD
ENDBRANCH   5  18
BRANCH   3  22
ATOM     22  C   LIG d   1      -4.106  78.650 116.412  0.00  0.00     0.382 C 
ATOM     23  O   LIG d   1      -3.333  77.724 116.760  0.00  0.00    -0.241 OA
ATOM     24  O   LIG d   1      -3.734  79.467 115.548  0.00  0.00    -0.241 OA
ENDBRANCH   3  22
TORSDOF 7
ENDMDL
