MODEL 1
REMARK VINA RESULT:      -6.6      0.000      0.000
REMARK  7 active torsions:
REMARK  status: ('A' for Active; 'I' for Inactive)
REMARK    1  A    between atoms: C_2  and  C_3 
REMARK    2  A    between atoms: C_3  and  O_6 
REMARK    3  A    between atoms: C_3  and  C_4 
REMARK    4  A    between atoms: C_7  and  O_6 
REMARK    5  A    between atoms: C_9  and  C_10 
REMARK    6  A    between atoms: N_15  and  C_14 
REMARK    7  A    between atoms: N_20  and  C_19 
REMARK       I    between atoms: C_22  and  N_20 
ROOT
ATOM      1  C   LIG d   1       0.477  82.511 111.908  0.00  0.00     0.161 C 
ATOM      2  C   LIG d   1      -0.758  82.141 112.467  0.00  0.00     0.016 C 
ATOM      3  C   LIG d   1      -1.431  80.941 112.141  0.00  0.00     0.038 C 
ATOM      4  C   LIG d   1      -0.838  79.952 111.341  0.00  0.00     0.028 C 
ATOM      5  C   LIG d   1       0.185  80.504 110.354  0.00  0.00    -0.047 C 
ATOM      6  C   LIG d   1       1.191  81.394 111.119  0.00  0.00     0.091 C 
ENDROOT
BRANCH   1   7
ATOM      7  O   LIG d   1       1.343  83.030 112.936  0.00  0.00    -0.368 OA
BRANCH   7   8
ATOM      8  C   LIG d   1       1.383  84.473 113.068  0.00  0.00     0.119 C 
BRANCH   8   9
ATOM      9  C   LIG d   1       2.864  84.897 113.064  0.00  0.00     0.028 C 
ATOM     10  C   LIG d   1       3.337  85.364 111.677  0.00  0.00     0.006 C 
ENDBRANCH   8   9
BRANCH   8  11
ATOM     11  C   LIG d   1       0.835  84.923 114.426  0.00  0.00     0.028 C 
ATOM     12  C   LIG d   1      -0.334  85.912 114.298  0.00  0.00     0.006 C 
ENDBRANCH   8  11
ENDBRANCH   7   8
ENDBRANCH   1   7
BRANCH   6  13
ATOM     13  N   LIG d   1       2.176  82.041 110.214  0.00  0.00    -0.311 N 
ATOM     14  C   LIG d   1       3.494  81.897 110.342  0.00  0.00     0.210 C 
ATOM     15  C   LIG d   1       4.332  82.667 109.317  0.00  0.00     0.109 C 
ATOM     16  O   LIG d   1       4.048  81.179 111.188  0.00  0.00    -0.276 OA
ATOM     17  H   LIG d   1       1.813  82.617 109.480  0.00  0.00     0.149 HD
ENDBRANCH   6  13
BRANCH   5  18
ATOM     18  N   LIG d   1       0.822  79.355 109.684  0.00  0.00     0.381 N 
ATOM     19  H   LIG d   1       0.674  78.524 110.222  0.00  0.00    -0.090 HD
ATOM     20  H   LIG d   1       1.811  79.520 109.626  0.00  0.00    -0.090 HD
ATOM     21  H   LIG d   1       0.443  79.240 108.770  0.00  0.00    -0.090 HD
ENDBRANCH   5  18
BRANCH   3  22
ATOM     22  C   LIG d   1      -2.729  80.739 112.585  0.00  0.00     0.382 C 
ATOM     23  O   LIG d   1      -3.622  81.576 112.312  0.00  0.00    -0.241 OA
ATOM     24  O   LIG d   1      -3.008  79.752 113.292  0.00  0.00    -0.241 OA
ENDBRANCH   3  22
TORSDOF 7
ENDMDL
MODEL 2
REMARK VINA RESULT:      -6.2      2.823      5.903
REMARK  7 active torsions:
REMARK  status: ('A' for Active; 'I' for Inactive)
REMARK    1  A    between atoms: C_2  and  C_3 
REMARK    2  A    between atoms: C_3  and  O_6 
REMARK    3  A    between atoms: C_3  and  C_4 
REMARK    4  A    between atoms: C_7  and  O_6 
REMARK    5  A    between atoms: C_9  and  C_10 
REMARK    6  A    between atoms: N_15  and  C_14 
REMARK    7  A    between atoms: N_20  and  C_19 
REMARK       I    between atoms: C_22  and  N_20 
ROOT
ATOM      1  C   LIG d   1       3.016  84.614 112.229  0.00  0.00     0.161 C 
ATOM      2  C   LIG d   1       3.438  85.864 112.710  0.00  0.00     0.016 C 
ATOM      3  C   LIG d   1       3.025  87.094 112.149  0.00  0.00     0.038 C 
ATOM      4  C   LIG d   1       2.035  87.162 111.158  0.00  0.00     0.028 C 
ATOM      5  C   LIG d   1       1.954  85.906 110.297  0.00  0.00    -0.047 C 
ATOM      6  C   LIG d   1       1.850  84.670 111.220  0.00  0.00     0.091 C 
ENDROOT
BRANCH   1   7
ATOM      7  O   LIG d   1       2.680  83.753 113.335  0.00  0.00    -0.368 OA
BRANCH   7   8
ATOM      8  C   LIG d   1       1.287  83.740 113.733  0.00  0.00     0.119 C 
BRANCH   8   9
ATOM      9  C   LIG d   1       1.170  84.555 115.035  0.00  0.00     0.028 C 
ATOM     10  C   LIG d   1       0.336  85.834 114.854  0.00  0.00     0.006 C 
ENDBRANCH   8   9
BRANCH   8  11
ATOM     11  C   LIG d   1       0.824  82.326 114.096  0.00  0.00     0.028 C 
ATOM     12  C   LIG d   1       1.581  81.234 113.324  0.00  0.00     0.006 C 
ENDBRANCH   8  11
ENDBRANCH   7   8
ENDBRANCH   1   7
BRANCH   6  13
ATOM     13  N   LIG d   1       1.850  83.393 110.460  0.00  0.00    -0.311 N 
ATOM     14  C   LIG d   1       0.742  82.718 110.159  0.00  0.00     0.210 C 
ATOM     15  C   LIG d   1       0.968  81.415 109.387  0.00  0.00     0.109 C 
ATOM     16  O   LIG d   1      -0.409  83.092 110.431  0.00  0.00    -0.276 OA
ATOM     17  H   LIG d   1       2.740  83.034 110.173  0.00  0.00     0.149 HD
ENDBRANCH   6  13
BRANCH   5  18
ATOM     18  N   LIG d   1       0.794  86.056 109.398  0.00  0.00     0.381 N 
ATOM     19  H   LIG d   1       0.599  87.027 109.256  0.00  0.00    -0.090 HD
ATOM     20  H   LIG d   1      -0.009  85.632 109.830  0.00  0.00    -0.090 HD
ATOM     21  H   LIG d   1       0.981  85.616 108.524  0.00  0.00    -0.090 HD
ENDBRANCH   5  18
BRANCH   3  22
ATOM     22  C   LIG d   1       3.634  88.273 112.553  0.00  0.00     0.382 C 
ATOM     23  O   LIG d   1       2.981  89.126 113.202  0.00  0.00    -0.241 OA
ATOM     24  O   LIG d   1       4.815  88.514 112.240  0.00  0.00    -0.241 OA
ENDBRANCH   3  22
TORSDOF 7
ENDMDL
MODEL 3
REMARK VINA RESULT:      -6.2      1.094      1.723
REMARK  7 active torsions:
REMARK  status: ('A' for Active; 'I' for Inactive)
REMARK    1  A    between atoms: C_2  and  C_3 
REMARK    2  A    between atoms: C_3  and  O_6 
REMARK    3  A    between atoms: C_3  and  C_4 
REMARK    4  A    between atoms: C_7  and  O_6 
REMARK    5  A    between atoms: C_9  and  C_10 
REMARK    6  A    between atoms: N_15  and  C_14 
REMARK    7  A    between atoms: N_20  and  C_19 
REMARK       I    between atoms: C_22  and  N_20 
ROOT
ATOM      1  C   LIG d   1       0.481  82.525 111.916  0.00  0.00     0.161 C 
ATOM      2  C   LIG d   1      -0.754  82.166 112.482  0.00  0.00     0.016 C 
ATOM      3  C   LIG d   1      -1.436  80.969 112.165  0.00  0.00     0.038 C 
ATOM      4  C   LIG d   1      -0.853  79.971 111.369  0.00  0.00     0.028 C 
ATOM      5  C   LIG d   1       0.169  80.511 110.374  0.00  0.00    -0.047 C 
ATOM      6  C   LIG d   1       1.184  81.399 111.130  0.00  0.00     0.091 C 
ENDROOT
BRANCH   1   7
ATOM      7  O   LIG d   1       1.354  83.044 112.938  0.00  0.00    -0.368 OA
BRANCH   7   8
ATOM      8  C   LIG d   1       0.740  83.324 114.220  0.00  0.00     0.119 C 
BRANCH   8   9
ATOM      9  C   LIG d   1       0.947  84.822 114.515  0.00  0.00     0.028 C 
ATOM     10  C   LIG d   1       1.325  85.621 113.256  0.00  0.00     0.006 C 
ENDBRANCH   8   9
BRANCH   8  11
ATOM     11  C   LIG d   1       1.455  82.585 115.355  0.00  0.00     0.028 C 
ATOM     12  C   LIG d   1       1.791  81.128 114.998  0.00  0.00     0.006 C 
ENDBRANCH   8  11
ENDBRANCH   7   8
ENDBRANCH   1   7
BRANCH   6  13
ATOM     13  N   LIG d   1       2.171  82.035 110.218  0.00  0.00    -0.311 N 
ATOM     14  C   LIG d   1       3.488  81.878 110.339  0.00  0.00     0.210 C 
ATOM     15  C   LIG d   1       4.326  82.638 109.306  0.00  0.00     0.109 C 
ATOM     16  O   LIG d   1       4.040  81.157 111.183  0.00  0.00    -0.276 OA
ATOM     17  H   LIG d   1       1.808  82.612 109.485  0.00  0.00     0.149 HD
ENDBRANCH   6  13
BRANCH   5  18
ATOM     18  N   LIG d   1       0.797  79.354 109.708  0.00  0.00     0.381 N 
ATOM     19  H   LIG d   1       1.698  79.612 109.358  0.00  0.00    -0.090 HD
ATOM     20  H   LIG d   1       0.224  79.077 108.931  0.00  0.00    -0.090 HD
ATOM     21  H   LIG d   1       0.886  78.598 110.350  0.00  0.00    -0.090 HD
ENDBRANCH   5  18
BRANCH   3  22
ATOM     22  C   LIG d   1      -2.733  80.777 112.615  0.00  0.00     0.382 C 
ATOM     23  O   LIG d   1      -3.033  79.731 113.239  0.00  0.00    -0.241 OA
ATOM     24  O   LIG d   1      -3.619  81.618 112.367  0.00  0.00    -0.241 OA
ENDBRANCH   3  22
TORSDOF 7
ENDMDL
MODEL 4
REMARK VINA RESULT:      -5.9      2.869      4.716
REMARK  7 active torsions:
REMARK  status: ('A' for Active; 'I' for Inactive)
REMARK    1  A    between atoms: C_2  and  C_3 
REMARK    2  A    between atoms: C_3  and  O_6 
REMARK    3  A    between atoms: C_3  and  C_4 
REMARK    4  A    between atoms: C_7  and  O_6 
REMARK    5  A    between atoms: C_9  and  C_10 
REMARK    6  A    between atoms: N_15  and  C_14 
REMARK    7  A    between atoms: N_20  and  C_19 
REMARK       I    between atoms: C_22  and  N_20 
ROOT
ATOM      1  C   LIG d   1       2.198  83.962 112.606  0.00  0.00     0.161 C 
ATOM      2  C   LIG d   1       1.288  82.921 112.357  0.00  0.00     0.016 C 
ATOM      3  C   LIG d   1      -0.099  83.022 112.613  0.00  0.00     0.038 C 
ATOM      4  C   LIG d   1      -0.696  84.232 112.997  0.00  0.00     0.028 C 
ATOM      5  C   LIG d   1       0.252  85.164 113.744  0.00  0.00    -0.047 C 
ATOM      6  C   LIG d   1       1.549  85.326 112.920  0.00  0.00     0.091 C 
ENDROOT
BRANCH   1   7
ATOM      7  O   LIG d   1       3.114  84.085 111.500  0.00  0.00    -0.368 OA
BRANCH   7   8
ATOM      8  C   LIG d   1       2.556  83.857 110.182  0.00  0.00     0.119 C 
BRANCH   8   9
ATOM      9  C   LIG d   1       3.672  83.257 109.305  0.00  0.00     0.028 C 
ATOM     10  C   LIG d   1       4.396  82.089 109.994  0.00  0.00     0.006 C 
ENDBRANCH   8   9
BRANCH   8  11
ATOM     11  C   LIG d   1       2.171  85.175 109.504  0.00  0.00     0.028 C 
ATOM     12  C   LIG d   1       0.654  85.326 109.314  0.00  0.00     0.006 C 
ENDBRANCH   8  11
ENDBRANCH   7   8
ENDBRANCH   1   7
BRANCH   6  13
ATOM     13  N   LIG d   1       2.565  86.156 113.619  0.00  0.00    -0.311 N 
ATOM     14  C   LIG d   1       2.914  87.378 113.220  0.00  0.00     0.210 C 
ATOM     15  C   LIG d   1       3.994  88.052 114.071  0.00  0.00     0.109 C 
ATOM     16  O   LIG d   1       2.408  87.980 112.261  0.00  0.00    -0.276 OA
ATOM     17  H   LIG d   1       3.003  85.757 114.426  0.00  0.00     0.149 HD
ENDBRANCH   6  13
BRANCH   5  18
ATOM     18  N   LIG d   1      -0.458  86.439 113.962  0.00  0.00     0.381 N 
ATOM     19  H   LIG d   1      -0.851  86.455 114.882  0.00  0.00    -0.090 HD
ATOM     20  H   LIG d   1      -1.207  86.512 113.297  0.00  0.00    -0.090 HD
ATOM     21  H   LIG d   1       0.172  87.203 113.849  0.00  0.00    -0.090 HD
ENDBRANCH   5  18
BRANCH   3  22
ATOM     22  C   LIG d   1      -0.898  81.892 112.524  0.00  0.00     0.382 C 
ATOM     23  O   LIG d   1      -2.015  81.958 111.955  0.00  0.00    -0.241 OA
ATOM     24  O   LIG d   1      -0.537  80.820 113.043  0.00  0.00    -0.241 OA
ENDBRANCH   3  22
TORSDOF 7
ENDMDL
MODEL 5
REMARK VINA RESULT:      -5.8      3.902      7.190
REMARK  7 active torsions:
REMARK  status: ('A' for Active; 'I' for Inactive)
REMARK    1  A    between atoms: C_2  and  C_3 
REMARK    2  A    between atoms: C_3  and  O_6 
REMARK    3  A    between atoms: C_3  and  C_4 
REMARK    4  A    between atoms: C_7  and  O_6 
REMARK    5  A    between atoms: C_9  and  C_10 
REMARK    6  A    between atoms: N_15  and  C_14 
REMARK    7  A    between atoms: N_20  and  C_19 
REMARK       I    between atoms: C_22  and  N_20 
ROOT
ATOM      1  C   LIG d   1       2.533  86.522 112.270  0.00  0.00     0.161 C 
ATOM      2  C   LIG d   1       3.258  87.718 112.396  0.00  0.00     0.016 C 
ATOM      3  C   LIG d   1       3.844  88.148 113.609  0.00  0.00     0.038 C 
ATOM      4  C   LIG d   1       3.873  87.332 114.749  0.00  0.00     0.028 C 
ATOM      5  C   LIG d   1       2.718  86.337 114.812  0.00  0.00    -0.047 C 
ATOM      6  C   LIG d   1       2.649  85.565 113.475  0.00  0.00     0.091 C 
ENDROOT
BRANCH   1   7
ATOM      7  O   LIG d   1       2.913  85.846 111.055  0.00  0.00    -0.368 OA
BRANCH   7   8
ATOM      8  C   LIG d   1       1.955  85.897 109.970  0.00  0.00     0.119 C 
BRANCH   8   9
ATOM      9  C   LIG d   1       0.609  86.359 110.562  0.00  0.00     0.028 C 
ATOM     10  C   LIG d   1      -0.592  85.895 109.722  0.00  0.00     0.006 C 
ENDBRANCH   8   9
BRANCH   8  11
ATOM     11  C   LIG d   1       1.688  84.502 109.396  0.00  0.00     0.028 C 
ATOM     12  C   LIG d   1       2.941  83.613 109.383  0.00  0.00     0.006 C 
ENDBRANCH   8  11
ENDBRANCH   7   8
ENDBRANCH   1   7
BRANCH   6  13
ATOM     13  N   LIG d   1       1.494  84.630 113.419  0.00  0.00    -0.311 N 
ATOM     14  C   LIG d   1       1.603  83.350 113.067  0.00  0.00     0.210 C 
ATOM     15  C   LIG d   1       0.286  82.568 113.057  0.00  0.00     0.109 C 
ATOM     16  O   LIG d   1       2.670  82.781 112.792  0.00  0.00    -0.276 OA
ATOM     17  H   LIG d   1       0.595  85.001 113.657  0.00  0.00     0.149 HD
ENDBRANCH   6  13
BRANCH   5  18
ATOM     18  N   LIG d   1       2.948  85.460 115.975  0.00  0.00     0.381 N 
ATOM     19  H   LIG d   1       2.073  85.123 116.323  0.00  0.00    -0.090 HD
ATOM     20  H   LIG d   1       3.391  85.994 116.702  0.00  0.00    -0.090 HD
ATOM     21  H   LIG d   1       3.528  84.694 115.715  0.00  0.00    -0.090 HD
ENDBRANCH   5  18
BRANCH   3  22
ATOM     22  C   LIG d   1       4.375  89.426 113.700  0.00  0.00     0.382 C 
ATOM     23  O   LIG d   1       4.644  89.914 114.824  0.00  0.00    -0.241 OA
ATOM     24  O   LIG d   1       4.547  90.114 112.676  0.00  0.00    -0.241 OA
ENDBRANCH   3  22
TORSDOF 7
ENDMDL
MODEL 6
REMARK VINA RESULT:      -5.7      5.985      8.982
REMARK  7 active torsions:
REMARK  status: ('A' for Active; 'I' for Inactive)
REMARK    1  A    between atoms: C_2  and  C_3 
REMARK    2  A    between atoms: C_3  and  O_6 
REMARK    3  A    between atoms: C_3  and  C_4 
REMARK    4  A    between atoms: C_7  and  O_6 
REMARK    5  A    between atoms: C_9  and  C_10 
REMARK    6  A    between atoms: N_15  and  C_14 
REMARK    7  A    between atoms: N_20  and  C_19 
REMARK       I    between atoms: C_22  and  N_20 
ROOT
ATOM      1  C   LIG d   1      -3.066  76.989 115.943  0.00  0.00     0.161 C 
ATOM      2  C   LIG d   1      -3.332  77.841 114.859  0.00  0.00     0.016 C 
ATOM      3  C   LIG d   1      -2.520  77.907 113.703  0.00  0.00     0.038 C 
ATOM      4  C   LIG d   1      -1.465  77.009 113.486  0.00  0.00     0.028 C 
ATOM      5  C   LIG d   1      -0.853  76.471 114.775  0.00  0.00    -0.047 C 
ATOM      6  C   LIG d   1      -1.982  75.923 115.676  0.00  0.00     0.091 C 
ENDROOT
BRANCH   1   7
ATOM      7  O   LIG d   1      -4.287  76.362 116.383  0.00  0.00    -0.368 OA
BRANCH   7   8
ATOM      8  C   LIG d   1      -5.492  76.749 115.678  0.00  0.00     0.119 C 
BRANCH   8   9
ATOM      9  C   LIG d   1      -6.509  77.231 116.729  0.00  0.00     0.028 C 
ATOM     10  C   LIG d   1      -6.126  78.592 117.335  0.00  0.00     0.006 C 
ENDBRANCH   8   9
BRANCH   8  11
ATOM     11  C   LIG d   1      -6.150  75.544 114.999  0.00  0.00     0.028 C 
ATOM     12  C   LIG d   1      -5.138  74.637 114.282  0.00  0.00     0.006 C 
ENDBRANCH   8  11
ENDBRANCH   7   8
ENDBRANCH   1   7
BRANCH   6  13
ATOM     13  N   LIG d   1      -1.479  75.454 116.993  0.00  0.00    -0.311 N 
ATOM     14  C   LIG d   1      -1.087  74.202 117.225  0.00  0.00     0.210 C 
ATOM     15  C   LIG d   1      -0.622  73.925 118.658  0.00  0.00     0.109 C 
ATOM     16  O   LIG d   1      -1.050  73.303 116.372  0.00  0.00    -0.276 OA
ATOM     17  H   LIG d   1      -1.446  76.126 117.735  0.00  0.00     0.149 HD
ENDBRANCH   6  13
BRANCH   5  18
ATOM     18  N   LIG d   1       0.140  75.445 114.403  0.00  0.00     0.381 N 
ATOM     19  H   LIG d   1      -0.297  74.546 114.375  0.00  0.00    -0.090 HD
ATOM     20  H   LIG d   1       0.863  75.424 115.100  0.00  0.00    -0.090 HD
ATOM     21  H   LIG d   1       0.533  75.659 113.513  0.00  0.00    -0.090 HD
ENDBRANCH   5  18
BRANCH   3  22
ATOM     22  C   LIG d   1      -2.738  78.906 112.766  0.00  0.00     0.382 C 
ATOM     23  O   LIG d   1      -3.072  80.056 113.142  0.00  0.00    -0.241 OA
ATOM     24  O   LIG d   1      -2.648  78.661 111.548  0.00  0.00    -0.241 OA
ENDBRANCH   3  22
TORSDOF 7
ENDMDL
MODEL 7
REMARK VINA RESULT:      -5.3      2.549      4.779
REMARK  7 active torsions:
REMARK  status: ('A' for Active; 'I' for Inactive)
REMARK    1  A    between atoms: C_2  and  C_3 
REMARK    2  A    between atoms: C_3  and  O_6 
REMARK    3  A    between atoms: C_3  and  C_4 
REMARK    4  A    between atoms: C_7  and  O_6 
REMARK    5  A    between atoms: C_9  and  C_10 
REMARK    6  A    between atoms: N_15  and  C_14 
REMARK    7  A    between atoms: N_20  and  C_19 
REMARK       I    between atoms: C_22  and  N_20 
ROOT
ATOM      1  C   LIG d   1      -0.128  84.621 111.967  0.00  0.00     0.161 C 
ATOM      2  C   LIG d   1      -0.102  85.700 112.866  0.00  0.00     0.016 C 
ATOM      3  C   LIG d   1       0.279  85.574 114.222  0.00  0.00     0.038 C 
ATOM      4  C   LIG d   1       0.808  84.381 114.736  0.00  0.00     0.028 C 
ATOM      5  C   LIG d   1       0.326  83.137 113.997  0.00  0.00    -0.047 C 
ATOM      6  C   LIG d   1       0.552  83.335 112.480  0.00  0.00     0.091 C 
ENDROOT
BRANCH   1   7
ATOM      7  O   LIG d   1       0.444  85.022 110.706  0.00  0.00    -0.368 OA
BRANCH   7   8
ATOM      8  C   LIG d   1       1.884  84.902 110.594  0.00  0.00     0.119 C 
BRANCH   8   9
ATOM      9  C   LIG d   1       2.456  86.325 110.442  0.00  0.00     0.028 C 
ATOM     10  C   LIG d   1       3.607  86.603 111.423  0.00  0.00     0.006 C 
ENDBRANCH   8   9
BRANCH   8  11
ATOM     11  C   LIG d   1       2.283  84.166 109.312  0.00  0.00     0.028 C 
ATOM     12  C   LIG d   1       3.584  83.361 109.468  0.00  0.00     0.006 C 
ENDBRANCH   8  11
ENDBRANCH   7   8
ENDBRANCH   1   7
BRANCH   6  13
ATOM     13  N   LIG d   1       0.030  82.198 111.677  0.00  0.00    -0.311 N 
ATOM     14  C   LIG d   1       0.780  81.166 111.294  0.00  0.00     0.210 C 
ATOM     15  C   LIG d   1       0.049  80.113 110.455  0.00  0.00     0.109 C 
ATOM     16  O   LIG d   1       1.971  81.006 111.598  0.00  0.00    -0.276 OA
ATOM     17  H   LIG d   1      -0.935  82.232 111.413  0.00  0.00     0.149 HD
ENDBRANCH   6  13
BRANCH   5  18
ATOM     18  N   LIG d   1       1.060  81.980 114.545  0.00  0.00     0.381 N 
ATOM     19  H   LIG d   1       1.355  82.179 115.480  0.00  0.00    -0.090 HD
ATOM     20  H   LIG d   1       1.878  81.819 113.984  0.00  0.00    -0.090 HD
ATOM     21  H   LIG d   1       0.478  81.172 114.537  0.00  0.00    -0.090 HD
ENDBRANCH   5  18
BRANCH   3  22
ATOM     22  C   LIG d   1       0.094  86.640 115.090  0.00  0.00     0.382 C 
ATOM     23  O   LIG d   1       0.850  87.639 115.024  0.00  0.00    -0.241 OA
ATOM     24  O   LIG d   1      -0.790  86.595 115.966  0.00  0.00    -0.241 OA
ENDBRANCH   3  22
TORSDOF 7
ENDMDL
MODEL 8
REMARK VINA RESULT:      -5.2      3.043      6.632
REMARK  7 active torsions:
REMARK  status: ('A' for Active; 'I' for Inactive)
REMARK    1  A    between atoms: C_2  and  C_3 
REMARK    2  A    between atoms: C_3  and  O_6 
REMARK    3  A    between atoms: C_3  and  C_4 
REMARK    4  A    between atoms: C_7  and  O_6 
REMARK    5  A    between atoms: C_9  and  C_10 
REMARK    6  A    between atoms: N_15  and  C_14 
REMARK    7  A    between atoms: N_20  and  C_19 
REMARK       I    between atoms: C_22  and  N_20 
ROOT
ATOM      1  C   LIG d   1       2.824  84.704 112.150  0.00  0.00     0.161 C 
ATOM      2  C   LIG d   1       3.448  85.962 112.117  0.00  0.00     0.016 C 
ATOM      3  C   LIG d   1       3.208  86.975 113.074  0.00  0.00     0.038 C 
ATOM      4  C   LIG d   1       2.436  86.742 114.222  0.00  0.00     0.028 C 
ATOM      5  C   LIG d   1       1.384  85.655 114.034  0.00  0.00    -0.047 C 
ATOM      6  C   LIG d   1       2.064  84.393 113.456  0.00  0.00     0.091 C 
ENDROOT
BRANCH   1   7
ATOM      7  O   LIG d   1       3.791  83.672 111.874  0.00  0.00    -0.368 OA
BRANCH   7   8
ATOM      8  C   LIG d   1       3.743  83.091 110.548  0.00  0.00     0.119 C 
BRANCH   8   9
ATOM      9  C   LIG d   1       2.623  83.807 109.769  0.00  0.00     0.028 C 
ATOM     10  C   LIG d   1       1.520  82.840 109.307  0.00  0.00     0.006 C 
ENDBRANCH   8   9
BRANCH   8  11
ATOM     11  C   LIG d   1       3.325  81.618 110.599  0.00  0.00     0.028 C 
ATOM     12  C   LIG d   1       4.221  80.714 109.739  0.00  0.00     0.006 C 
ENDBRANCH   8  11
ENDBRANCH   7   8
ENDBRANCH   1   7
BRANCH   6  13
ATOM     13  N   LIG d   1       1.091  83.309 113.163  0.00  0.00    -0.311 N 
ATOM     14  C   LIG d   1      -0.031  83.498 112.469  0.00  0.00     0.210 C 
ATOM     15  C   LIG d   1      -0.903  82.250 112.298  0.00  0.00     0.109 C 
ATOM     16  O   LIG d   1      -0.370  84.573 111.952  0.00  0.00    -0.276 OA
ATOM     17  H   LIG d   1       1.303  82.397 113.518  0.00  0.00     0.149 HD
ENDBRANCH   6  13
BRANCH   5  18
ATOM     18  N   LIG d   1       0.747  85.420 115.344  0.00  0.00     0.381 N 
ATOM     19  H   LIG d   1       0.016  86.087 115.490  0.00  0.00    -0.090 HD
ATOM     20  H   LIG d   1       1.435  85.542 116.066  0.00  0.00    -0.090 HD
ATOM     21  H   LIG d   1       0.376  84.496 115.382  0.00  0.00    -0.090 HD
ENDBRANCH   5  18
BRANCH   3  22
ATOM     22  C   LIG d   1       3.712  88.250 112.867  0.00  0.00     0.382 C 
ATOM     23  O   LIG d   1       3.066  89.251 113.260  0.00  0.00    -0.241 OA
ATOM     24  O   LIG d   1       4.782  88.414 112.252  0.00  0.00    -0.241 OA
ENDBRANCH   3  22
TORSDOF 7
ENDMDL
MODEL 9
REMARK VINA RESULT:      -5.0      3.186      4.628
REMARK  7 active torsions:
REMARK  status: ('A' for Active; 'I' for Inactive)
REMARK    1  A    between atoms: C_2  and  C_3 
REMARK    2  A    between atoms: C_3  and  O_6 
REMARK    3  A    between atoms: C_3  and  C_4 
REMARK    4  A    between atoms: C_7  and  O_6 
REMARK    5  A    between atoms: C_9  and  C_10 
REMARK    6  A    between atoms: N_15  and  C_14 
REMARK    7  A    between atoms: N_20  and  C_19 
REMARK       I    between atoms: C_22  and  N_20 
ROOT
ATOM      1  C   LIG d   1       1.925  84.783 113.525  0.00  0.00     0.161 C 
ATOM      2  C   LIG d   1       0.986  83.792 113.192  0.00  0.00     0.016 C 
ATOM      3  C   LIG d   1       0.326  83.734 111.944  0.00  0.00     0.038 C 
ATOM      4  C   LIG d   1       0.674  84.581 110.881  0.00  0.00     0.028 C 
ATOM      5  C   LIG d   1       1.254  85.916 111.335  0.00  0.00    -0.047 C 
ATOM      6  C   LIG d   1       2.399  85.650 112.339  0.00  0.00     0.091 C 
ENDROOT
BRANCH   1   7
ATOM      7  O   LIG d   1       3.054  84.183 114.190  0.00  0.00    -0.368 OA
BRANCH   7   8
ATOM      8  C   LIG d   1       3.159  84.427 115.614  0.00  0.00     0.119 C 
BRANCH   8   9
ATOM      9  C   LIG d   1       4.575  84.971 115.888  0.00  0.00     0.028 C 
ATOM     10  C   LIG d   1       4.581  86.487 116.148  0.00  0.00     0.006 C 
ENDBRANCH   8   9
BRANCH   8  11
ATOM     11  C   LIG d   1       3.064  83.123 116.411  0.00  0.00     0.028 C 
ATOM     12  C   LIG d   1       1.685  82.918 117.057  0.00  0.00     0.006 C 
ENDBRANCH   8  11
ENDBRANCH   7   8
ENDBRANCH   1   7
BRANCH   6  13
ATOM     13  N   LIG d   1       2.967  86.904 112.897  0.00  0.00    -0.311 N 
ATOM     14  C   LIG d   1       3.972  87.569 112.331  0.00  0.00     0.210 C 
ATOM     15  C   LIG d   1       4.418  88.829 113.081  0.00  0.00     0.109 C 
ATOM     16  O   LIG d   1       4.516  87.254 111.263  0.00  0.00    -0.276 OA
ATOM     17  H   LIG d   1       2.564  87.249 113.747  0.00  0.00     0.149 HD
ENDBRANCH   6  13
BRANCH   5  18
ATOM     18  N   LIG d   1       1.700  86.641 110.130  0.00  0.00     0.381 N 
ATOM     19  H   LIG d   1       1.059  87.382 109.924  0.00  0.00    -0.090 HD
ATOM     20  H   LIG d   1       1.707  86.005 109.352  0.00  0.00    -0.090 HD
ATOM     21  H   LIG d   1       2.613  87.013 110.274  0.00  0.00    -0.090 HD
ENDBRANCH   5  18
BRANCH   3  22
ATOM     22  C   LIG d   1      -0.723  82.846 111.762  0.00  0.00     0.382 C 
ATOM     23  O   LIG d   1      -1.599  82.720 112.651  0.00  0.00    -0.241 OA
ATOM     24  O   LIG d   1      -0.781  82.137 110.740  0.00  0.00    -0.241 OA
ENDBRANCH   3  22
TORSDOF 7
ENDMDL
