MODEL 1
REMARK VINA RESULT:      -5.9      0.000      0.000
REMARK  7 active torsions:
REMARK  status: ('A' for Active; 'I' for Inactive)
REMARK    1  A    between atoms: C_2  and  C_3 
REMARK    2  A    between atoms: C_3  and  O_6 
REMARK    3  A    between atoms: C_3  and  C_4 
REMARK    4  A    between atoms: C_7  and  O_6 
REMARK    5  A    between atoms: C_9  and  C_10 
REMARK    6  A    between atoms: N_15  and  C_14 
REMARK    7  A    between atoms: N_20  and  C_19 
REMARK       I    between atoms: C_22  and  N_20 
ROOT
ATOM      1  C   LIG d   1       1.333  82.711 110.081  0.00  0.00     0.161 C 
ATOM      2  C   LIG d   1       1.649  84.074 110.200  0.00  0.00     0.016 C 
ATOM      3  C   LIG d   1       0.973  84.956 111.074  0.00  0.00     0.038 C 
ATOM      4  C   LIG d   1       0.029  84.499 112.005  0.00  0.00     0.028 C 
ATOM      5  C   LIG d   1      -0.680  83.220 111.570  0.00  0.00    -0.047 C 
ATOM      6  C   LIG d   1       0.381  82.170 111.168  0.00  0.00     0.091 C 
ENDROOT
BRANCH   1   7
ATOM      7  O   LIG d   1       2.544  81.930 110.042  0.00  0.00    -0.368 OA
BRANCH   7   8
ATOM      8  C   LIG d   1       3.761  82.622 110.414  0.00  0.00     0.119 C 
BRANCH   8   9
ATOM      9  C   LIG d   1       4.881  82.122 109.482  0.00  0.00     0.028 C 
ATOM     10  C   LIG d   1       4.860  80.594 109.305  0.00  0.00     0.006 C 
ENDBRANCH   8   9
BRANCH   8  11
ATOM     11  C   LIG d   1       4.210  82.241 111.828  0.00  0.00     0.028 C 
ATOM     12  C   LIG d   1       4.396  83.461 112.743  0.00  0.00     0.006 C 
ENDBRANCH   8  11
ENDBRANCH   7   8
ENDBRANCH   1   7
BRANCH   6  13
ATOM     13  N   LIG d   1      -0.229  80.918 110.650  0.00  0.00    -0.311 N 
ATOM     14  C   LIG d   1      -0.589  79.900 111.430  0.00  0.00     0.210 C 
ATOM     15  C   LIG d   1      -1.180  78.696 110.691  0.00  0.00     0.109 C 
ATOM     16  O   LIG d   1      -0.504  79.894 112.668  0.00  0.00    -0.276 OA
ATOM     17  H   LIG d   1      -0.363  80.852 109.660  0.00  0.00     0.149 HD
ENDBRANCH   6  13
BRANCH   5  18
ATOM     18  N   LIG d   1      -1.533  82.781 112.690  0.00  0.00     0.381 N 
ATOM     19  H   LIG d   1      -0.963  82.423 113.430  0.00  0.00    -0.090 HD
ATOM     20  H   LIG d   1      -2.135  82.043 112.370  0.00  0.00    -0.090 HD
ATOM     21  H   LIG d   1      -2.080  83.545 113.022  0.00  0.00    -0.090 HD
ENDBRANCH   5  18
BRANCH   3  22
ATOM     22  C   LIG d   1       1.212  86.320 110.994  0.00  0.00     0.382 C 
ATOM     23  O   LIG d   1       0.327  87.134 111.354  0.00  0.00    -0.241 OA
ATOM     24  O   LIG d   1       2.284  86.747 110.525  0.00  0.00    -0.241 OA
ENDBRANCH   3  22
TORSDOF 7
ENDMDL
MODEL 2
REMARK VINA RESULT:      -5.9      2.111      4.836
REMARK  7 active torsions:
REMARK  status: ('A' for Active; 'I' for Inactive)
REMARK    1  A    between atoms: C_2  and  C_3 
REMARK    2  A    between atoms: C_3  and  O_6 
REMARK    3  A    between atoms: C_3  and  C_4 
REMARK    4  A    between atoms: C_7  and  O_6 
REMARK    5  A    between atoms: C_9  and  C_10 
REMARK    6  A    between atoms: N_15  and  C_14 
REMARK    7  A    between atoms: N_20  and  C_19 
REMARK       I    between atoms: C_22  and  N_20 
ROOT
ATOM      1  C   LIG d   1       1.467  82.506 111.526  0.00  0.00     0.161 C 
ATOM      2  C   LIG d   1       0.309  81.753 111.781  0.00  0.00     0.016 C 
ATOM      3  C   LIG d   1      -0.907  82.320 112.226  0.00  0.00     0.038 C 
ATOM      4  C   LIG d   1      -1.092  83.709 112.302  0.00  0.00     0.028 C 
ATOM      5  C   LIG d   1       0.201  84.481 112.540  0.00  0.00    -0.047 C 
ATOM      6  C   LIG d   1       1.251  84.034 111.497  0.00  0.00     0.091 C 
ENDROOT
BRANCH   1   7
ATOM      7  O   LIG d   1       2.078  82.063 110.298  0.00  0.00    -0.368 OA
BRANCH   7   8
ATOM      8  C   LIG d   1       3.115  81.060 110.428  0.00  0.00     0.119 C 
BRANCH   8   9
ATOM      9  C   LIG d   1       4.470  81.766 110.229  0.00  0.00     0.028 C 
ATOM     10  C   LIG d   1       5.121  82.175 111.562  0.00  0.00     0.006 C 
ENDBRANCH   8   9
BRANCH   8  11
ATOM     11  C   LIG d   1       3.030  80.022 109.306  0.00  0.00     0.028 C 
ATOM     12  C   LIG d   1       1.741  79.187 109.362  0.00  0.00     0.006 C 
ENDBRANCH   8  11
ENDBRANCH   7   8
ENDBRANCH   1   7
BRANCH   6  13
ATOM     13  N   LIG d   1       2.573  84.679 111.711  0.00  0.00    -0.311 N 
ATOM     14  C   LIG d   1       2.957  85.788 111.082  0.00  0.00     0.210 C 
ATOM     15  C   LIG d   1       4.366  86.275 111.433  0.00  0.00     0.109 C 
ATOM     16  O   LIG d   1       2.253  86.433 110.290  0.00  0.00    -0.276 OA
ATOM     17  H   LIG d   1       3.195  84.240 112.360  0.00  0.00     0.149 HD
ENDBRANCH   6  13
BRANCH   5  18
ATOM     18  N   LIG d   1      -0.117  85.919 112.460  0.00  0.00     0.381 N 
ATOM     19  H   LIG d   1       0.729  86.453 112.449  0.00  0.00    -0.090 HD
ATOM     20  H   LIG d   1      -0.645  86.181 113.274  0.00  0.00    -0.090 HD
ATOM     21  H   LIG d   1      -0.647  86.106 111.637  0.00  0.00    -0.090 HD
ENDBRANCH   5  18
BRANCH   3  22
ATOM     22  C   LIG d   1      -1.941  81.494 112.639  0.00  0.00     0.382 C 
ATOM     23  O   LIG d   1      -1.686  80.360 113.111  0.00  0.00    -0.241 OA
ATOM     24  O   LIG d   1      -3.127  81.850 112.503  0.00  0.00    -0.241 OA
ENDBRANCH   3  22
TORSDOF 7
ENDMDL
MODEL 3
REMARK VINA RESULT:      -5.8      3.206      4.356
REMARK  7 active torsions:
REMARK  status: ('A' for Active; 'I' for Inactive)
REMARK    1  A    between atoms: C_2  and  C_3 
REMARK    2  A    between atoms: C_3  and  O_6 
REMARK    3  A    between atoms: C_3  and  C_4 
REMARK    4  A    between atoms: C_7  and  O_6 
REMARK    5  A    between atoms: C_9  and  C_10 
REMARK    6  A    between atoms: N_15  and  C_14 
REMARK    7  A    between atoms: N_20  and  C_19 
REMARK       I    between atoms: C_22  and  N_20 
ROOT
ATOM      1  C   LIG d   1       3.782  85.216 111.746  0.00  0.00     0.161 C 
ATOM      2  C   LIG d   1       4.478  86.436 111.716  0.00  0.00     0.016 C 
ATOM      3  C   LIG d   1       4.647  87.263 112.851  0.00  0.00     0.038 C 
ATOM      4  C   LIG d   1       4.259  86.849 114.134  0.00  0.00     0.028 C 
ATOM      5  C   LIG d   1       3.105  85.852 114.126  0.00  0.00    -0.047 C 
ATOM      6  C   LIG d   1       3.448  84.696 113.160  0.00  0.00     0.091 C 
ENDROOT
BRANCH   1   7
ATOM      7  O   LIG d   1       4.513  84.219 111.005  0.00  0.00    -0.368 OA
BRANCH   7   8
ATOM      8  C   LIG d   1       4.055  83.966 109.654  0.00  0.00     0.119 C 
BRANCH   8   9
ATOM      9  C   LIG d   1       2.553  84.309 109.602  0.00  0.00     0.028 C 
ATOM     10  C   LIG d   1       1.676  83.070 109.358  0.00  0.00     0.006 C 
ENDBRANCH   8   9
BRANCH   8  11
ATOM     11  C   LIG d   1       4.142  82.477 109.305  0.00  0.00     0.028 C 
ATOM     12  C   LIG d   1       5.315  81.770 110.003  0.00  0.00     0.006 C 
ENDBRANCH   8  11
ENDBRANCH   7   8
ENDBRANCH   1   7
BRANCH   6  13
ATOM     13  N   LIG d   1       2.336  83.719 113.028  0.00  0.00    -0.311 N 
ATOM     14  C   LIG d   1       2.516  82.399 113.025  0.00  0.00     0.210 C 
ATOM     15  C   LIG d   1       1.238  81.572 112.858  0.00  0.00     0.109 C 
ATOM     16  O   LIG d   1       3.610  81.834 113.176  0.00  0.00    -0.276 OA
ATOM     17  H   LIG d   1       1.411  84.090 112.932  0.00  0.00     0.149 HD
ENDBRANCH   6  13
BRANCH   5  18
ATOM     18  N   LIG d   1       2.896  85.402 115.515  0.00  0.00     0.381 N 
ATOM     19  H   LIG d   1       3.779  85.230 115.952  0.00  0.00    -0.090 HD
ATOM     20  H   LIG d   1       2.377  84.542 115.503  0.00  0.00    -0.090 HD
ATOM     21  H   LIG d   1       2.393  86.094 116.026  0.00  0.00    -0.090 HD
ENDBRANCH   5  18
BRANCH   3  22
ATOM     22  C   LIG d   1       5.175  88.536 112.701  0.00  0.00     0.382 C 
ATOM     23  O   LIG d   1       6.417  88.693 112.608  0.00  0.00    -0.241 OA
ATOM     24  O   LIG d   1       4.429  89.533 112.702  0.00  0.00    -0.241 OA
ENDBRANCH   3  22
TORSDOF 7
ENDMDL
MODEL 4
REMARK VINA RESULT:      -5.7      2.367      3.436
REMARK  7 active torsions:
REMARK  status: ('A' for Active; 'I' for Inactive)
REMARK    1  A    between atoms: C_2  and  C_3 
REMARK    2  A    between atoms: C_3  and  O_6 
REMARK    3  A    between atoms: C_3  and  C_4 
REMARK    4  A    between atoms: C_7  and  O_6 
REMARK    5  A    between atoms: C_9  and  C_10 
REMARK    6  A    between atoms: N_15  and  C_14 
REMARK    7  A    between atoms: N_20  and  C_19 
REMARK       I    between atoms: C_22  and  N_20 
ROOT
ATOM      1  C   LIG d   1       3.336  84.058 111.494  0.00  0.00     0.161 C 
ATOM      2  C   LIG d   1       3.905  85.256 111.957  0.00  0.00     0.016 C 
ATOM      3  C   LIG d   1       3.377  86.533 111.661  0.00  0.00     0.038 C 
ATOM      4  C   LIG d   1       2.149  86.693 111.000  0.00  0.00     0.028 C 
ATOM      5  C   LIG d   1       1.802  85.530 110.077  0.00  0.00    -0.047 C 
ATOM      6  C   LIG d   1       1.935  84.207 110.865  0.00  0.00     0.091 C 
ENDROOT
BRANCH   1   7
ATOM      7  O   LIG d   1       3.307  83.086 112.558  0.00  0.00    -0.368 OA
BRANCH   7   8
ATOM      8  C   LIG d   1       3.910  81.802 112.266  0.00  0.00     0.119 C 
BRANCH   8   9
ATOM      9  C   LIG d   1       4.626  81.325 113.544  0.00  0.00     0.028 C 
ATOM     10  C   LIG d   1       4.028  81.945 114.818  0.00  0.00     0.006 C 
ENDBRANCH   8   9
BRANCH   8  11
ATOM     11  C   LIG d   1       5.010  81.930 111.208  0.00  0.00     0.028 C 
ATOM     12  C   LIG d   1       4.796  80.993 110.009  0.00  0.00     0.006 C 
ENDBRANCH   8  11
ENDBRANCH   7   8
ENDBRANCH   1   7
BRANCH   6  13
ATOM     13  N   LIG d   1       1.694  83.014 110.013  0.00  0.00    -0.311 N 
ATOM     14  C   LIG d   1       0.803  82.069 110.309  0.00  0.00     0.210 C 
ATOM     15  C   LIG d   1       0.728  80.914 109.306  0.00  0.00     0.109 C 
ATOM     16  O   LIG d   1       0.044  82.096 111.289  0.00  0.00    -0.276 OA
ATOM     17  H   LIG d   1       2.245  82.928 109.181  0.00  0.00     0.149 HD
ENDBRANCH   6  13
BRANCH   5  18
ATOM     18  N   LIG d   1       0.440  85.762 109.562  0.00  0.00     0.381 N 
ATOM     19  H   LIG d   1       0.374  85.435 108.619  0.00  0.00    -0.090 HD
ATOM     20  H   LIG d   1       0.254  86.750 109.566  0.00  0.00    -0.090 HD
ATOM     21  H   LIG d   1      -0.226  85.289 110.132  0.00  0.00    -0.090 HD
ENDBRANCH   5  18
BRANCH   3  22
ATOM     22  C   LIG d   1       4.100  87.669 111.991  0.00  0.00     0.382 C 
ATOM     23  O   LIG d   1       5.352  87.621 112.048  0.00  0.00    -0.241 OA
ATOM     24  O   LIG d   1       3.513  88.730 112.277  0.00  0.00    -0.241 OA
ENDBRANCH   3  22
TORSDOF 7
ENDMDL
MODEL 5
REMARK VINA RESULT:      -5.7      2.695      3.785
REMARK  7 active torsions:
REMARK  status: ('A' for Active; 'I' for Inactive)
REMARK    1  A    between atoms: C_2  and  C_3 
REMARK    2  A    between atoms: C_3  and  O_6 
REMARK    3  A    between atoms: C_3  and  C_4 
REMARK    4  A    between atoms: C_7  and  O_6 
REMARK    5  A    between atoms: C_9  and  C_10 
REMARK    6  A    between atoms: N_15  and  C_14 
REMARK    7  A    between atoms: N_20  and  C_19 
REMARK       I    between atoms: C_22  and  N_20 
ROOT
ATOM      1  C   LIG d   1       2.121  85.915 111.251  0.00  0.00     0.161 C 
ATOM      2  C   LIG d   1       3.180  86.833 111.341  0.00  0.00     0.016 C 
ATOM      3  C   LIG d   1       3.769  87.223 112.566  0.00  0.00     0.038 C 
ATOM      4  C   LIG d   1       3.437  86.603 113.779  0.00  0.00     0.028 C 
ATOM      5  C   LIG d   1       2.022  86.034 113.801  0.00  0.00    -0.047 C 
ATOM      6  C   LIG d   1       1.820  85.144 112.553  0.00  0.00     0.091 C 
ENDROOT
BRANCH   1   7
ATOM      7  O   LIG d   1       2.364  84.994 110.169  0.00  0.00    -0.368 OA
BRANCH   7   8
ATOM      8  C   LIG d   1       3.135  83.813 110.498  0.00  0.00     0.119 C 
BRANCH   8   9
ATOM      9  C   LIG d   1       4.456  83.887 109.708  0.00  0.00     0.028 C 
ATOM     10  C   LIG d   1       4.978  82.498 109.305  0.00  0.00     0.006 C 
ENDBRANCH   8   9
BRANCH   8  11
ATOM     11  C   LIG d   1       2.441  82.539 110.007  0.00  0.00     0.028 C 
ATOM     12  C   LIG d   1       1.084  82.819 109.341  0.00  0.00     0.006 C 
ENDBRANCH   8  11
ENDBRANCH   7   8
ENDBRANCH   1   7
BRANCH   6  13
ATOM     13  N   LIG d   1       0.435  84.615 112.453  0.00  0.00    -0.311 N 
ATOM     14  C   LIG d   1       0.079  83.405 112.880  0.00  0.00     0.210 C 
ATOM     15  C   LIG d   1      -1.395  83.049 112.663  0.00  0.00     0.109 C 
ATOM     16  O   LIG d   1       0.838  82.604 113.447  0.00  0.00    -0.276 OA
ATOM     17  H   LIG d   1      -0.252  85.211 112.034  0.00  0.00     0.149 HD
ENDBRANCH   6  13
BRANCH   5  18
ATOM     18  N   LIG d   1       1.858  85.298 115.069  0.00  0.00     0.381 N 
ATOM     19  H   LIG d   1       2.487  84.520 115.093  0.00  0.00    -0.090 HD
ATOM     20  H   LIG d   1       0.918  84.945 115.120  0.00  0.00    -0.090 HD
ATOM     21  H   LIG d   1       2.036  85.902 115.840  0.00  0.00    -0.090 HD
ENDBRANCH   5  18
BRANCH   3  22
ATOM     22  C   LIG d   1       4.674  88.273 112.589  0.00  0.00     0.382 C 
ATOM     23  O   LIG d   1       4.262  89.454 112.692  0.00  0.00    -0.241 OA
ATOM     24  O   LIG d   1       5.895  88.058 112.464  0.00  0.00    -0.241 OA
ENDBRANCH   3  22
TORSDOF 7
ENDMDL
MODEL 6
REMARK VINA RESULT:      -5.6      6.605      9.556
REMARK  7 active torsions:
REMARK  status: ('A' for Active; 'I' for Inactive)
REMARK    1  A    between atoms: C_2  and  C_3 
REMARK    2  A    between atoms: C_3  and  O_6 
REMARK    3  A    between atoms: C_3  and  C_4 
REMARK    4  A    between atoms: C_7  and  O_6 
REMARK    5  A    between atoms: C_9  and  C_10 
REMARK    6  A    between atoms: N_15  and  C_14 
REMARK    7  A    between atoms: N_20  and  C_19 
REMARK       I    between atoms: C_22  and  N_20 
ROOT
ATOM      1  C   LIG d   1      -2.342  77.579 116.228  0.00  0.00     0.161 C 
ATOM      2  C   LIG d   1      -2.779  78.424 115.195  0.00  0.00     0.016 C 
ATOM      3  C   LIG d   1      -2.233  78.406 113.891  0.00  0.00     0.038 C 
ATOM      4  C   LIG d   1      -1.309  77.430 113.488  0.00  0.00     0.028 C 
ATOM      5  C   LIG d   1      -0.470  76.879 114.636  0.00  0.00    -0.047 C 
ATOM      6  C   LIG d   1      -1.413  76.433 115.777  0.00  0.00     0.091 C 
ENDROOT
BRANCH   1   7
ATOM      7  O   LIG d   1      -3.478  77.051 116.941  0.00  0.00    -0.368 OA
BRANCH   7   8
ATOM      8  C   LIG d   1      -4.734  77.038 116.219  0.00  0.00     0.119 C 
BRANCH   8   9
ATOM      9  C   LIG d   1      -5.835  77.494 117.196  0.00  0.00     0.028 C 
ATOM     10  C   LIG d   1      -5.539  78.871 117.813  0.00  0.00     0.006 C 
ENDBRANCH   8   9
BRANCH   8  11
ATOM     11  C   LIG d   1      -5.124  75.616 115.804  0.00  0.00     0.028 C 
ATOM     12  C   LIG d   1      -5.156  75.428 114.279  0.00  0.00     0.006 C 
ENDBRANCH   8  11
ENDBRANCH   7   8
ENDBRANCH   1   7
BRANCH   6  13
ATOM     13  N   LIG d   1      -0.670  75.959 116.974  0.00  0.00    -0.311 N 
ATOM     14  C   LIG d   1      -0.422  74.674 117.221  0.00  0.00     0.210 C 
ATOM     15  C   LIG d   1       0.342  74.401 118.521  0.00  0.00     0.109 C 
ATOM     16  O   LIG d   1      -0.734  73.736 116.471  0.00  0.00    -0.276 OA
ATOM     17  H   LIG d   1      -0.353  76.655 117.619  0.00  0.00     0.149 HD
ENDBRANCH   6  13
BRANCH   5  18
ATOM     18  N   LIG d   1       0.351  75.777 114.100  0.00  0.00     0.381 N 
ATOM     19  H   LIG d   1       0.772  76.057 113.237  0.00  0.00    -0.090 HD
ATOM     20  H   LIG d   1      -0.244  74.987 113.919  0.00  0.00    -0.090 HD
ATOM     21  H   LIG d   1       1.057  75.527 114.756  0.00  0.00    -0.090 HD
ENDBRANCH   5  18
BRANCH   3  22
ATOM     22  C   LIG d   1      -2.581  79.397 112.986  0.00  0.00     0.382 C 
ATOM     23  O   LIG d   1      -3.324  80.342 113.346  0.00  0.00    -0.241 OA
ATOM     24  O   LIG d   1      -2.198  79.335 111.802  0.00  0.00    -0.241 OA
ENDBRANCH   3  22
TORSDOF 7
ENDMDL
MODEL 7
REMARK VINA RESULT:      -5.5      1.790      2.513
REMARK  7 active torsions:
REMARK  status: ('A' for Active; 'I' for Inactive)
REMARK    1  A    between atoms: C_2  and  C_3 
REMARK    2  A    between atoms: C_3  and  O_6 
REMARK    3  A    between atoms: C_3  and  C_4 
REMARK    4  A    between atoms: C_7  and  O_6 
REMARK    5  A    between atoms: C_9  and  C_10 
REMARK    6  A    between atoms: N_15  and  C_14 
REMARK    7  A    between atoms: N_20  and  C_19 
REMARK       I    between atoms: C_22  and  N_20 
ROOT
ATOM      1  C   LIG d   1       1.922  83.766 110.438  0.00  0.00     0.161 C 
ATOM      2  C   LIG d   1       2.633  84.977 110.466  0.00  0.00     0.016 C 
ATOM      3  C   LIG d   1       2.787  85.762 111.632  0.00  0.00     0.038 C 
ATOM      4  C   LIG d   1       2.364  85.311 112.891  0.00  0.00     0.028 C 
ATOM      5  C   LIG d   1       1.198  84.330 112.822  0.00  0.00    -0.047 C 
ATOM      6  C   LIG d   1       1.548  83.203 111.825  0.00  0.00     0.091 C 
ENDROOT
BRANCH   1   7
ATOM      7  O   LIG d   1       2.657  82.785 109.680  0.00  0.00    -0.368 OA
BRANCH   7   8
ATOM      8  C   LIG d   1       3.365  81.784 110.451  0.00  0.00     0.119 C 
BRANCH   8   9
ATOM      9  C   LIG d   1       4.818  82.269 110.616  0.00  0.00     0.028 C 
ATOM     10  C   LIG d   1       5.160  82.609 112.077  0.00  0.00     0.006 C 
ENDBRANCH   8   9
BRANCH   8  11
ATOM     11  C   LIG d   1       3.464  80.460 109.687  0.00  0.00     0.028 C 
ATOM     12  C   LIG d   1       2.102  79.769 109.512  0.00  0.00     0.006 C 
ENDBRANCH   8  11
ENDBRANCH   7   8
ENDBRANCH   1   7
BRANCH   6  13
ATOM     13  N   LIG d   1       0.427  82.246 111.634  0.00  0.00    -0.311 N 
ATOM     14  C   LIG d   1       0.239  81.174 112.403  0.00  0.00     0.210 C 
ATOM     15  C   LIG d   1      -0.966  80.308 112.022  0.00  0.00     0.109 C 
ATOM     16  O   LIG d   1       0.938  80.876 113.384  0.00  0.00    -0.276 OA
ATOM     17  H   LIG d   1      -0.206  82.429 110.880  0.00  0.00     0.149 HD
ENDBRANCH   6  13
BRANCH   5  18
ATOM     18  N   LIG d   1       0.950  83.836 114.190  0.00  0.00     0.381 N 
ATOM     19  H   LIG d   1       1.681  84.144 114.799  0.00  0.00    -0.090 HD
ATOM     20  H   LIG d   1       0.953  82.831 114.178  0.00  0.00    -0.090 HD
ATOM     21  H   LIG d   1       0.071  84.169 114.519  0.00  0.00    -0.090 HD
ENDBRANCH   5  18
BRANCH   3  22
ATOM     22  C   LIG d   1       3.335  87.032 111.538  0.00  0.00     0.382 C 
ATOM     23  O   LIG d   1       4.579  87.183 111.579  0.00  0.00    -0.241 OA
ATOM     24  O   LIG d   1       2.598  88.034 111.456  0.00  0.00    -0.241 OA
ENDBRANCH   3  22
TORSDOF 7
ENDMDL
MODEL 8
REMARK VINA RESULT:      -5.5      6.879     10.569
REMARK  7 active torsions:
REMARK  status: ('A' for Active; 'I' for Inactive)
REMARK    1  A    between atoms: C_2  and  C_3 
REMARK    2  A    between atoms: C_3  and  O_6 
REMARK    3  A    between atoms: C_3  and  C_4 
REMARK    4  A    between atoms: C_7  and  O_6 
REMARK    5  A    between atoms: C_9  and  C_10 
REMARK    6  A    between atoms: N_15  and  C_14 
REMARK    7  A    between atoms: N_20  and  C_19 
REMARK       I    between atoms: C_22  and  N_20 
ROOT
ATOM      1  C   LIG d   1      -3.256  76.066 114.914  0.00  0.00     0.161 C 
ATOM      2  C   LIG d   1      -3.189  75.513 116.203  0.00  0.00     0.016 C 
ATOM      3  C   LIG d   1      -2.083  75.684 117.067  0.00  0.00     0.038 C 
ATOM      4  C   LIG d   1      -1.025  76.551 116.755  0.00  0.00     0.028 C 
ATOM      5  C   LIG d   1      -0.812  76.731 115.256  0.00  0.00    -0.047 C 
ATOM      6  C   LIG d   1      -2.160  77.106 114.599  0.00  0.00     0.091 C 
ENDROOT
BRANCH   1   7
ATOM      7  O   LIG d   1      -4.563  76.632 114.691  0.00  0.00    -0.368 OA
BRANCH   7   8
ATOM      8  C   LIG d   1      -5.529  75.769 114.042  0.00  0.00     0.119 C 
BRANCH   8   9
ATOM      9  C   LIG d   1      -5.926  76.438 112.712  0.00  0.00     0.028 C 
ATOM     10  C   LIG d   1      -7.451  76.553 112.545  0.00  0.00     0.006 C 
ENDBRANCH   8   9
BRANCH   8  11
ATOM     11  C   LIG d   1      -6.825  75.676 114.852  0.00  0.00     0.028 C 
ATOM     12  C   LIG d   1      -6.774  74.588 115.936  0.00  0.00     0.006 C 
ENDBRANCH   8  11
ENDBRANCH   7   8
ENDBRANCH   1   7
BRANCH   6  13
ATOM     13  N   LIG d   1      -2.059  77.218 113.120  0.00  0.00    -0.311 N 
ATOM     14  C   LIG d   1      -2.603  78.213 112.421  0.00  0.00     0.210 C 
ATOM     15  C   LIG d   1      -2.397  78.127 110.906  0.00  0.00     0.109 C 
ATOM     16  O   LIG d   1      -3.210  79.175 112.915  0.00  0.00    -0.276 OA
ATOM     17  H   LIG d   1      -1.556  76.497 112.641  0.00  0.00     0.149 HD
ENDBRANCH   6  13
BRANCH   5  18
ATOM     18  N   LIG d   1       0.226  77.762 115.074  0.00  0.00     0.381 N 
ATOM     19  H   LIG d   1      -0.101  78.465 114.442  0.00  0.00    -0.090 HD
ATOM     20  H   LIG d   1       1.043  77.334 114.673  0.00  0.00    -0.090 HD
ATOM     21  H   LIG d   1       0.455  78.174 115.951  0.00  0.00    -0.090 HD
ENDBRANCH   5  18
BRANCH   3  22
ATOM     22  C   LIG d   1      -2.009  74.951 118.242  0.00  0.00     0.382 C 
ATOM     23  O   LIG d   1      -1.719  73.731 118.203  0.00  0.00    -0.241 OA
ATOM     24  O   LIG d   1      -2.272  75.484 119.337  0.00  0.00    -0.241 OA
ENDBRANCH   3  22
TORSDOF 7
ENDMDL
MODEL 9
REMARK VINA RESULT:      -5.4      5.927      8.563
REMARK  7 active torsions:
REMARK  status: ('A' for Active; 'I' for Inactive)
REMARK    1  A    between atoms: C_2  and  C_3 
REMARK    2  A    between atoms: C_3  and  O_6 
REMARK    3  A    between atoms: C_3  and  C_4 
REMARK    4  A    between atoms: C_7  and  O_6 
REMARK    5  A    between atoms: C_9  and  C_10 
REMARK    6  A    between atoms: N_15  and  C_14 
REMARK    7  A    between atoms: N_20  and  C_19 
REMARK       I    between atoms: C_22  and  N_20 
ROOT
ATOM      1  C   LIG d   1      -2.916  77.752 115.055  0.00  0.00     0.161 C 
ATOM      2  C   LIG d   1      -1.579  78.145 115.230  0.00  0.00     0.016 C 
ATOM      3  C   LIG d   1      -0.612  77.346 115.883  0.00  0.00     0.038 C 
ATOM      4  C   LIG d   1      -0.882  76.026 116.274  0.00  0.00     0.028 C 
ATOM      5  C   LIG d   1      -2.357  75.772 116.570  0.00  0.00    -0.047 C 
ATOM      6  C   LIG d   1      -3.202  76.270 115.375  0.00  0.00     0.091 C 
ENDROOT
BRANCH   1   7
ATOM      7  O   LIG d   1      -3.346  78.067 113.715  0.00  0.00    -0.368 OA
BRANCH   7   8
ATOM      8  C   LIG d   1      -2.362  78.706 112.864  0.00  0.00     0.119 C 
BRANCH   8   9
ATOM      9  C   LIG d   1      -2.741  80.196 112.758  0.00  0.00     0.028 C 
ATOM     10  C   LIG d   1      -1.514  81.098 112.542  0.00  0.00     0.006 C 
ENDBRANCH   8   9
BRANCH   8  11
ATOM     11  C   LIG d   1      -2.431  78.167 111.432  0.00  0.00     0.028 C 
ATOM     12  C   LIG d   1      -1.044  77.865 110.842  0.00  0.00     0.006 C 
ENDBRANCH   8  11
ENDBRANCH   7   8
ENDBRANCH   1   7
BRANCH   6  13
ATOM     13  N   LIG d   1      -4.662  76.136 115.618  0.00  0.00    -0.311 N 
ATOM     14  C   LIG d   1      -5.506  75.604 114.736  0.00  0.00     0.210 C 
ATOM     15  C   LIG d   1      -6.972  75.579 115.178  0.00  0.00     0.109 C 
ATOM     16  O   LIG d   1      -5.175  75.120 113.643  0.00  0.00    -0.276 OA
ATOM     17  H   LIG d   1      -5.011  76.474 116.493  0.00  0.00     0.149 HD
ENDBRANCH   6  13
BRANCH   5  18
ATOM     18  N   LIG d   1      -2.516  74.329 116.829  0.00  0.00     0.381 N 
ATOM     19  H   LIG d   1      -2.917  73.883 116.028  0.00  0.00    -0.090 HD
ATOM     20  H   LIG d   1      -3.143  74.205 117.605  0.00  0.00    -0.090 HD
ATOM     21  H   LIG d   1      -1.632  73.920 117.039  0.00  0.00    -0.090 HD
ENDBRANCH   5  18
BRANCH   3  22
ATOM     22  C   LIG d   1       0.630  77.882 116.187  0.00  0.00     0.382 C 
ATOM     23  O   LIG d   1       0.868  79.090 115.948  0.00  0.00    -0.241 OA
ATOM     24  O   LIG d   1       1.531  77.161 116.657  0.00  0.00    -0.241 OA
ENDBRANCH   3  22
TORSDOF 7
ENDMDL
