MODEL 1
REMARK VINA RESULT:      -6.6      0.000      0.000
REMARK  7 active torsions:
REMARK  status: ('A' for Active; 'I' for Inactive)
REMARK    1  A    between atoms: C_2  and  C_3 
REMARK    2  A    between atoms: C_3  and  O_6 
REMARK    3  A    between atoms: C_3  and  C_4 
REMARK    4  A    between atoms: C_7  and  O_6 
REMARK    5  A    between atoms: C_9  and  C_10 
REMARK    6  A    between atoms: N_15  and  C_14 
REMARK    7  A    between atoms: N_20  and  C_19 
REMARK       I    between atoms: C_22  and  N_20 
ROOT
ATOM      1  C   LIG d   1       1.552  82.337 112.179  0.00  0.00     0.161 C 
ATOM      2  C   LIG d   1       0.431  81.496 112.269  0.00  0.00     0.016 C 
ATOM      3  C   LIG d   1      -0.897  81.947 112.090  0.00  0.00     0.038 C 
ATOM      4  C   LIG d   1      -1.185  83.250 111.657  0.00  0.00     0.028 C 
ATOM      5  C   LIG d   1      -0.116  84.267 112.044  0.00  0.00    -0.047 C 
ATOM      6  C   LIG d   1       1.266  83.737 111.598  0.00  0.00     0.091 C 
ENDROOT
BRANCH   1   7
ATOM      7  O   LIG d   1       2.593  81.685 111.425  0.00  0.00    -0.368 OA
BRANCH   7   8
ATOM      8  C   LIG d   1       2.590  81.924 109.996  0.00  0.00     0.119 C 
BRANCH   8   9
ATOM      9  C   LIG d   1       2.407  80.561 109.299  0.00  0.00     0.028 C 
ATOM     10  C   LIG d   1       0.978  80.362 108.766  0.00  0.00     0.006 C 
ENDBRANCH   8   9
BRANCH   8  11
ATOM     11  C   LIG d   1       3.946  82.446 109.515  0.00  0.00     0.028 C 
ATOM     12  C   LIG d   1       4.420  81.770 108.219  0.00  0.00     0.006 C 
ENDBRANCH   8  11
ENDBRANCH   7   8
ENDBRANCH   1   7
BRANCH   6  13
ATOM     13  N   LIG d   1       2.377  84.633 112.013  0.00  0.00    -0.311 N 
ATOM     14  C   LIG d   1       2.821  85.643 111.267  0.00  0.00     0.210 C 
ATOM     15  C   LIG d   1       3.988  86.429 111.873  0.00  0.00     0.109 C 
ATOM     16  O   LIG d   1       2.338  85.984 110.177  0.00  0.00    -0.276 OA
ATOM     17  H   LIG d   1       2.806  84.447 112.898  0.00  0.00     0.149 HD
ENDBRANCH   6  13
BRANCH   5  18
ATOM     18  N   LIG d   1      -0.474  85.551 111.412  0.00  0.00     0.381 N 
ATOM     19  H   LIG d   1      -0.655  85.411 110.438  0.00  0.00    -0.090 HD
ATOM     20  H   LIG d   1       0.301  86.184 111.501  0.00  0.00    -0.090 HD
ATOM     21  H   LIG d   1      -1.279  85.936 111.855  0.00  0.00    -0.090 HD
ENDBRANCH   5  18
BRANCH   3  22
ATOM     22  C   LIG d   1      -1.956  81.102 112.385  0.00  0.00     0.382 C 
ATOM     23  O   LIG d   1      -3.134  81.528 112.322  0.00  0.00    -0.241 OA
ATOM     24  O   LIG d   1      -1.746  79.932 112.755  0.00  0.00    -0.241 OA
ENDBRANCH   3  22
TORSDOF 7
ENDMDL
MODEL 2
REMARK VINA RESULT:      -6.4      2.218      4.280
REMARK  7 active torsions:
REMARK  status: ('A' for Active; 'I' for Inactive)
REMARK    1  A    between atoms: C_2  and  C_3 
REMARK    2  A    between atoms: C_3  and  O_6 
REMARK    3  A    between atoms: C_3  and  C_4 
REMARK    4  A    between atoms: C_7  and  O_6 
REMARK    5  A    between atoms: C_9  and  C_10 
REMARK    6  A    between atoms: N_15  and  C_14 
REMARK    7  A    between atoms: N_20  and  C_19 
REMARK       I    between atoms: C_22  and  N_20 
ROOT
ATOM      1  C   LIG d   1       1.023  82.398 111.476  0.00  0.00     0.161 C 
ATOM      2  C   LIG d   1      -0.186  82.051 112.102  0.00  0.00     0.016 C 
ATOM      3  C   LIG d   1      -0.963  80.931 111.728  0.00  0.00     0.038 C 
ATOM      4  C   LIG d   1      -0.504  79.988 110.796  0.00  0.00     0.028 C 
ATOM      5  C   LIG d   1       0.473  80.568 109.779  0.00  0.00    -0.047 C 
ATOM      6  C   LIG d   1       1.595  81.319 110.532  0.00  0.00     0.091 C 
ENDROOT
BRANCH   1   7
ATOM      7  O   LIG d   1       2.000  82.763 112.470  0.00  0.00    -0.368 OA
BRANCH   7   8
ATOM      8  C   LIG d   1       2.145  84.181 112.730  0.00  0.00     0.119 C 
BRANCH   8   9
ATOM      9  C   LIG d   1       3.485  84.630 112.117  0.00  0.00     0.028 C 
ATOM     10  C   LIG d   1       3.307  85.311 110.750  0.00  0.00     0.006 C 
ENDBRANCH   8   9
BRANCH   8  11
ATOM     11  C   LIG d   1       2.271  84.462 114.230  0.00  0.00     0.028 C 
ATOM     12  C   LIG d   1       0.954  84.240 114.991  0.00  0.00     0.006 C 
ENDBRANCH   8  11
ENDBRANCH   7   8
ENDBRANCH   1   7
BRANCH   6  13
ATOM     13  N   LIG d   1       2.548  81.988 109.609  0.00  0.00    -0.311 N 
ATOM     14  C   LIG d   1       3.657  81.408 109.153  0.00  0.00     0.210 C 
ATOM     15  C   LIG d   1       4.510  82.282 108.228  0.00  0.00     0.109 C 
ATOM     16  O   LIG d   1       3.998  80.242 109.402  0.00  0.00    -0.276 OA
ATOM     17  H   LIG d   1       2.332  82.926 109.332  0.00  0.00     0.149 HD
ENDBRANCH   6  13
BRANCH   5  18
ATOM     18  N   LIG d   1       0.976  79.451 108.957  0.00  0.00     0.381 N 
ATOM     19  H   LIG d   1       1.913  79.227 109.227  0.00  0.00    -0.090 HD
ATOM     20  H   LIG d   1       0.985  79.735 107.993  0.00  0.00    -0.090 HD
ATOM     21  H   LIG d   1       0.390  78.653 109.070  0.00  0.00    -0.090 HD
ENDBRANCH   5  18
BRANCH   3  22
ATOM     22  C   LIG d   1      -2.233  80.766 112.260  0.00  0.00     0.382 C 
ATOM     23  O   LIG d   1      -2.583  79.650 112.713  0.00  0.00    -0.241 OA
ATOM     24  O   LIG d   1      -3.048  81.708 112.252  0.00  0.00    -0.241 OA
ENDBRANCH   3  22
TORSDOF 7
ENDMDL
MODEL 3
REMARK VINA RESULT:      -6.2      2.091      5.326
REMARK  7 active torsions:
REMARK  status: ('A' for Active; 'I' for Inactive)
REMARK    1  A    between atoms: C_2  and  C_3 
REMARK    2  A    between atoms: C_3  and  O_6 
REMARK    3  A    between atoms: C_3  and  C_4 
REMARK    4  A    between atoms: C_7  and  O_6 
REMARK    5  A    between atoms: C_9  and  C_10 
REMARK    6  A    between atoms: N_15  and  C_14 
REMARK    7  A    between atoms: N_20  and  C_19 
REMARK       I    between atoms: C_22  and  N_20 
ROOT
ATOM      1  C   LIG d   1       2.413  83.903 110.851  0.00  0.00     0.161 C 
ATOM      2  C   LIG d   1       3.079  83.175 109.852  0.00  0.00     0.016 C 
ATOM      3  C   LIG d   1       2.926  81.781 109.672  0.00  0.00     0.038 C 
ATOM      4  C   LIG d   1       1.974  81.041 110.389  0.00  0.00     0.028 C 
ATOM      5  C   LIG d   1       1.643  81.639 111.752  0.00  0.00    -0.047 C 
ATOM      6  C   LIG d   1       1.286  83.132 111.571  0.00  0.00     0.091 C 
ENDROOT
BRANCH   1   7
ATOM      7  O   LIG d   1       1.905  85.135 110.301  0.00  0.00    -0.368 OA
BRANCH   7   8
ATOM      8  C   LIG d   1       2.539  86.351 110.769  0.00  0.00     0.119 C 
BRANCH   8   9
ATOM      9  C   LIG d   1       3.687  85.941 111.712  0.00  0.00     0.028 C 
ATOM     10  C   LIG d   1       4.218  87.124 112.539  0.00  0.00     0.006 C 
ENDBRANCH   8   9
BRANCH   8  11
ATOM     11  C   LIG d   1       1.584  87.182 111.630  0.00  0.00     0.028 C 
ATOM     12  C   LIG d   1       0.107  86.958 111.268  0.00  0.00     0.006 C 
ENDBRANCH   8  11
ENDBRANCH   7   8
ENDBRANCH   1   7
BRANCH   6  13
ATOM     13  N   LIG d   1       1.031  83.815 112.866  0.00  0.00    -0.311 N 
ATOM     14  C   LIG d   1      -0.190  84.024 113.356  0.00  0.00     0.210 C 
ATOM     15  C   LIG d   1      -0.231  84.764 114.696  0.00  0.00     0.109 C 
ATOM     16  O   LIG d   1      -1.242  83.639 112.823  0.00  0.00    -0.276 OA
ATOM     17  H   LIG d   1       1.829  84.133 113.379  0.00  0.00     0.149 HD
ENDBRANCH   6  13
BRANCH   5  18
ATOM     18  N   LIG d   1       0.541  80.848 112.330  0.00  0.00     0.381 N 
ATOM     19  H   LIG d   1      -0.309  81.040 111.838  0.00  0.00    -0.090 HD
ATOM     20  H   LIG d   1       0.417  81.116 113.291  0.00  0.00    -0.090 HD
ATOM     21  H   LIG d   1       0.753  79.876 112.274  0.00  0.00    -0.090 HD
ENDBRANCH   5  18
BRANCH   3  22
ATOM     22  C   LIG d   1       3.760  81.105 108.794  0.00  0.00     0.382 C 
ATOM     23  O   LIG d   1       3.940  79.870 108.924  0.00  0.00    -0.241 OA
ATOM     24  O   LIG d   1       4.370  81.723 107.900  0.00  0.00    -0.241 OA
ENDBRANCH   3  22
TORSDOF 7
ENDMDL
MODEL 4
REMARK VINA RESULT:      -6.0      2.480      5.103
REMARK  7 active torsions:
REMARK  status: ('A' for Active; 'I' for Inactive)
REMARK    1  A    between atoms: C_2  and  C_3 
REMARK    2  A    between atoms: C_3  and  O_6 
REMARK    3  A    between atoms: C_3  and  C_4 
REMARK    4  A    between atoms: C_7  and  O_6 
REMARK    5  A    between atoms: C_9  and  C_10 
REMARK    6  A    between atoms: N_15  and  C_14 
REMARK    7  A    between atoms: N_20  and  C_19 
REMARK       I    between atoms: C_22  and  N_20 
ROOT
ATOM      1  C   LIG d   1       2.082  83.782 111.629  0.00  0.00     0.161 C 
ATOM      2  C   LIG d   1       1.286  84.901 111.923  0.00  0.00     0.016 C 
ATOM      3  C   LIG d   1       0.556  85.615 110.945  0.00  0.00     0.038 C 
ATOM      4  C   LIG d   1       0.452  85.164 109.621  0.00  0.00     0.028 C 
ATOM      5  C   LIG d   1       1.644  84.326 109.171  0.00  0.00    -0.047 C 
ATOM      6  C   LIG d   1       1.892  83.208 110.209  0.00  0.00     0.091 C 
ENDROOT
BRANCH   1   7
ATOM      7  O   LIG d   1       1.865  82.755 112.617  0.00  0.00    -0.368 OA
BRANCH   7   8
ATOM      8  C   LIG d   1       0.562  82.744 113.250  0.00  0.00     0.119 C 
BRANCH   8   9
ATOM      9  C   LIG d   1       0.783  82.554 114.763  0.00  0.00     0.028 C 
ATOM     10  C   LIG d   1       0.533  83.846 115.559  0.00  0.00     0.006 C 
ENDBRANCH   8   9
BRANCH   8  11
ATOM     11  C   LIG d   1      -0.263  81.532 112.805  0.00  0.00     0.028 C 
ATOM     12  C   LIG d   1      -1.654  81.920 112.277  0.00  0.00     0.006 C 
ENDBRANCH   8  11
ENDBRANCH   7   8
ENDBRANCH   1   7
BRANCH   6  13
ATOM     13  N   LIG d   1       3.093  82.393 109.889  0.00  0.00    -0.311 N 
ATOM     14  C   LIG d   1       3.042  81.249 109.210  0.00  0.00     0.210 C 
ATOM     15  C   LIG d   1       4.394  80.558 109.006  0.00  0.00     0.109 C 
ATOM     16  O   LIG d   1       2.011  80.756 108.729  0.00  0.00    -0.276 OA
ATOM     17  H   LIG d   1       3.976  82.735 110.214  0.00  0.00     0.149 HD
ENDBRANCH   6  13
BRANCH   5  18
ATOM     18  N   LIG d   1       1.341  83.807 107.824  0.00  0.00     0.381 N 
ATOM     19  H   LIG d   1       0.446  83.360 107.827  0.00  0.00    -0.090 HD
ATOM     20  H   LIG d   1       2.035  83.125 107.575  0.00  0.00    -0.090 HD
ATOM     21  H   LIG d   1       1.346  84.553 107.163  0.00  0.00    -0.090 HD
ENDBRANCH   5  18
BRANCH   3  22
ATOM     22  C   LIG d   1      -0.047  86.818 111.281  0.00  0.00     0.382 C 
ATOM     23  O   LIG d   1       0.651  87.777 111.691  0.00  0.00    -0.241 OA
ATOM     24  O   LIG d   1      -1.285  86.942 111.220  0.00  0.00    -0.241 OA
ENDBRANCH   3  22
TORSDOF 7
ENDMDL
MODEL 5
REMARK VINA RESULT:      -6.0      2.380      5.592
REMARK  7 active torsions:
REMARK  status: ('A' for Active; 'I' for Inactive)
REMARK    1  A    between atoms: C_2  and  C_3 
REMARK    2  A    between atoms: C_3  and  O_6 
REMARK    3  A    between atoms: C_3  and  C_4 
REMARK    4  A    between atoms: C_7  and  O_6 
REMARK    5  A    between atoms: C_9  and  C_10 
REMARK    6  A    between atoms: N_15  and  C_14 
REMARK    7  A    between atoms: N_20  and  C_19 
REMARK       I    between atoms: C_22  and  N_20 
ROOT
ATOM      1  C   LIG d   1       2.640  83.859 111.856  0.00  0.00     0.161 C 
ATOM      2  C   LIG d   1       2.705  85.167 112.366  0.00  0.00     0.016 C 
ATOM      3  C   LIG d   1       2.204  86.296 111.679  0.00  0.00     0.038 C 
ATOM      4  C   LIG d   1       1.463  86.174 110.494  0.00  0.00     0.028 C 
ATOM      5  C   LIG d   1       1.810  84.927 109.688  0.00  0.00    -0.047 C 
ATOM      6  C   LIG d   1       1.737  83.693 110.617  0.00  0.00     0.091 C 
ENDROOT
BRANCH   1   7
ATOM      7  O   LIG d   1       2.235  82.948 112.897  0.00  0.00    -0.368 OA
BRANCH   7   8
ATOM      8  C   LIG d   1       0.808  82.820 113.113  0.00  0.00     0.119 C 
BRANCH   8   9
ATOM      9  C   LIG d   1       0.458  83.622 114.381  0.00  0.00     0.028 C 
ATOM     10  C   LIG d   1      -0.501  84.789 114.092  0.00  0.00     0.006 C 
ENDBRANCH   8   9
BRANCH   8  11
ATOM     11  C   LIG d   1       0.420  81.373 113.427  0.00  0.00     0.028 C 
ATOM     12  C   LIG d   1       0.461  81.058 114.931  0.00  0.00     0.006 C 
ENDBRANCH   8  11
ENDBRANCH   7   8
ENDBRANCH   1   7
BRANCH   6  13
ATOM     13  N   LIG d   1       2.144  82.441 109.928  0.00  0.00    -0.311 N 
ATOM     14  C   LIG d   1       1.307  81.434 109.682  0.00  0.00     0.210 C 
ATOM     15  C   LIG d   1       1.936  80.227 108.979  0.00  0.00     0.109 C 
ATOM     16  O   LIG d   1       0.096  81.440 109.949  0.00  0.00    -0.276 OA
ATOM     17  H   LIG d   1       3.102  82.365 109.648  0.00  0.00     0.149 HD
ENDBRANCH   6  13
BRANCH   5  18
ATOM     18  N   LIG d   1       0.870  84.854 108.554  0.00  0.00     0.381 N 
ATOM     19  H   LIG d   1       0.754  85.762 108.151  0.00  0.00    -0.090 HD
ATOM     20  H   LIG d   1      -0.024  84.543 108.892  0.00  0.00    -0.090 HD
ATOM     21  H   LIG d   1       1.213  84.219 107.867  0.00  0.00    -0.090 HD
ENDBRANCH   5  18
BRANCH   3  22
ATOM     22  C   LIG d   1       2.477  87.569 112.157  0.00  0.00     0.382 C 
ATOM     23  O   LIG d   1       3.598  87.821 112.662  0.00  0.00    -0.241 OA
ATOM     24  O   LIG d   1       1.603  88.455 112.130  0.00  0.00    -0.241 OA
ENDBRANCH   3  22
TORSDOF 7
ENDMDL
MODEL 6
REMARK VINA RESULT:      -5.9      1.867      5.075
REMARK  7 active torsions:
REMARK  status: ('A' for Active; 'I' for Inactive)
REMARK    1  A    between atoms: C_2  and  C_3 
REMARK    2  A    between atoms: C_3  and  O_6 
REMARK    3  A    between atoms: C_3  and  C_4 
REMARK    4  A    between atoms: C_7  and  O_6 
REMARK    5  A    between atoms: C_9  and  C_10 
REMARK    6  A    between atoms: N_15  and  C_14 
REMARK    7  A    between atoms: N_20  and  C_19 
REMARK       I    between atoms: C_22  and  N_20 
ROOT
ATOM      1  C   LIG d   1       0.492  84.383 110.731  0.00  0.00     0.161 C 
ATOM      2  C   LIG d   1       1.339  85.503 110.779  0.00  0.00     0.016 C 
ATOM      3  C   LIG d   1       1.724  86.137 111.983  0.00  0.00     0.038 C 
ATOM      4  C   LIG d   1       1.407  85.598 113.238  0.00  0.00     0.028 C 
ATOM      5  C   LIG d   1       0.135  84.757 113.233  0.00  0.00    -0.047 C 
ATOM      6  C   LIG d   1       0.227  83.714 112.096  0.00  0.00     0.091 C 
ENDROOT
BRANCH   1   7
ATOM      7  O   LIG d   1       1.010  83.419 109.793  0.00  0.00    -0.368 OA
BRANCH   7   8
ATOM      8  C   LIG d   1       2.260  82.783 110.157  0.00  0.00     0.119 C 
BRANCH   8   9
ATOM      9  C   LIG d   1       3.207  82.898 108.947  0.00  0.00     0.028 C 
ATOM     10  C   LIG d   1       4.529  82.140 109.162  0.00  0.00     0.006 C 
ENDBRANCH   8   9
BRANCH   8  11
ATOM     11  C   LIG d   1       2.074  81.280 110.386  0.00  0.00     0.028 C 
ATOM     12  C   LIG d   1       0.928  80.687 109.551  0.00  0.00     0.006 C 
ENDBRANCH   8  11
ENDBRANCH   7   8
ENDBRANCH   1   7
BRANCH   6  13
ATOM     13  N   LIG d   1      -1.013  82.905 111.967  0.00  0.00    -0.311 N 
ATOM     14  C   LIG d   1      -1.166  81.704 112.522  0.00  0.00     0.210 C 
ATOM     15  C   LIG d   1      -2.515  81.032 112.249  0.00  0.00     0.109 C 
ATOM     16  O   LIG d   1      -0.325  81.146 113.243  0.00  0.00    -0.276 OA
ATOM     17  H   LIG d   1      -1.759  83.296 111.425  0.00  0.00     0.149 HD
ENDBRANCH   6  13
BRANCH   5  18
ATOM     18  N   LIG d   1      -0.001  84.146 114.569  0.00  0.00     0.381 N 
ATOM     19  H   LIG d   1      -0.139  83.159 114.477  0.00  0.00    -0.090 HD
ATOM     20  H   LIG d   1      -0.807  84.536 115.024  0.00  0.00    -0.090 HD
ATOM     21  H   LIG d   1       0.815  84.326 115.111  0.00  0.00    -0.090 HD
ENDBRANCH   5  18
BRANCH   3  22
ATOM     22  C   LIG d   1       2.400  87.347 111.937  0.00  0.00     0.382 C 
ATOM     23  O   LIG d   1       3.635  87.366 111.713  0.00  0.00    -0.241 OA
ATOM     24  O   LIG d   1       1.800  88.415 112.160  0.00  0.00    -0.241 OA
ENDBRANCH   3  22
TORSDOF 7
ENDMDL
MODEL 7
REMARK VINA RESULT:      -5.9      2.397      4.506
REMARK  7 active torsions:
REMARK  status: ('A' for Active; 'I' for Inactive)
REMARK    1  A    between atoms: C_2  and  C_3 
REMARK    2  A    between atoms: C_3  and  O_6 
REMARK    3  A    between atoms: C_3  and  C_4 
REMARK    4  A    between atoms: C_7  and  O_6 
REMARK    5  A    between atoms: C_9  and  C_10 
REMARK    6  A    between atoms: N_15  and  C_14 
REMARK    7  A    between atoms: N_20  and  C_19 
REMARK       I    between atoms: C_22  and  N_20 
ROOT
ATOM      1  C   LIG d   1       0.064  84.293 110.605  0.00  0.00     0.161 C 
ATOM      2  C   LIG d   1      -0.145  85.248 111.614  0.00  0.00     0.016 C 
ATOM      3  C   LIG d   1      -0.451  84.911 112.952  0.00  0.00     0.038 C 
ATOM      4  C   LIG d   1      -0.421  83.585 113.409  0.00  0.00     0.028 C 
ATOM      5  C   LIG d   1      -0.711  82.561 112.317  0.00  0.00    -0.047 C 
ATOM      6  C   LIG d   1       0.211  82.841 111.108  0.00  0.00     0.091 C 
ENDROOT
BRANCH   1   7
ATOM      7  O   LIG d   1       1.206  84.665 109.808  0.00  0.00    -0.368 OA
BRANCH   7   8
ATOM      8  C   LIG d   1       2.496  84.226 110.300  0.00  0.00     0.119 C 
BRANCH   8   9
ATOM      9  C   LIG d   1       3.277  85.481 110.736  0.00  0.00     0.028 C 
ATOM     10  C   LIG d   1       3.533  85.515 112.252  0.00  0.00     0.006 C 
ENDBRANCH   8   9
BRANCH   8  11
ATOM     11  C   LIG d   1       3.333  83.595 109.183  0.00  0.00     0.028 C 
ATOM     12  C   LIG d   1       4.356  82.576 109.708  0.00  0.00     0.006 C 
ENDBRANCH   8  11
ENDBRANCH   7   8
ENDBRANCH   1   7
BRANCH   6  13
ATOM     13  N   LIG d   1      -0.067  81.937 109.962  0.00  0.00    -0.311 N 
ATOM     14  C   LIG d   1       0.744  80.946 109.597  0.00  0.00     0.210 C 
ATOM     15  C   LIG d   1       0.280  80.147 108.375  0.00  0.00     0.109 C 
ATOM     16  O   LIG d   1       1.788  80.632 110.189  0.00  0.00    -0.276 OA
ATOM     17  H   LIG d   1      -0.909  82.101 109.445  0.00  0.00     0.149 HD
ENDBRANCH   6  13
BRANCH   5  18
ATOM     18  N   LIG d   1      -0.511  81.220 112.898  0.00  0.00     0.381 N 
ATOM     19  H   LIG d   1      -0.861  81.202 113.836  0.00  0.00    -0.090 HD
ATOM     20  H   LIG d   1       0.473  81.021 112.925  0.00  0.00    -0.090 HD
ATOM     21  H   LIG d   1      -0.981  80.536 112.347  0.00  0.00    -0.090 HD
ENDBRANCH   5  18
BRANCH   3  22
ATOM     22  C   LIG d   1      -0.832  85.905 113.841  0.00  0.00     0.382 C 
ATOM     23  O   LIG d   1       0.027  86.691 114.309  0.00  0.00    -0.241 OA
ATOM     24  O   LIG d   1      -2.017  85.998 114.215  0.00  0.00    -0.241 OA
ENDBRANCH   3  22
TORSDOF 7
ENDMDL
MODEL 8
REMARK VINA RESULT:      -5.8      2.576      5.970
REMARK  7 active torsions:
REMARK  status: ('A' for Active; 'I' for Inactive)
REMARK    1  A    between atoms: C_2  and  C_3 
REMARK    2  A    between atoms: C_3  and  O_6 
REMARK    3  A    between atoms: C_3  and  C_4 
REMARK    4  A    between atoms: C_7  and  O_6 
REMARK    5  A    between atoms: C_9  and  C_10 
REMARK    6  A    between atoms: N_15  and  C_14 
REMARK    7  A    between atoms: N_20  and  C_19 
REMARK       I    between atoms: C_22  and  N_20 
ROOT
ATOM      1  C   LIG d   1       1.130  81.478 111.753  0.00  0.00     0.161 C 
ATOM      2  C   LIG d   1       2.126  82.302 111.202  0.00  0.00     0.016 C 
ATOM      3  C   LIG d   1       2.360  82.415 109.813  0.00  0.00     0.038 C 
ATOM      4  C   LIG d   1       1.510  81.824 108.866  0.00  0.00     0.028 C 
ATOM      5  C   LIG d   1       0.800  80.578 109.385  0.00  0.00    -0.047 C 
ATOM      6  C   LIG d   1       0.121  80.912 110.732  0.00  0.00     0.091 C 
ENDROOT
BRANCH   1   7
ATOM      7  O   LIG d   1       0.439  82.183 112.803  0.00  0.00    -0.368 OA
BRANCH   7   8
ATOM      8  C   LIG d   1       0.318  83.617 112.636  0.00  0.00     0.119 C 
BRANCH   8   9
ATOM      9  C   LIG d   1      -0.087  84.210 114.000  0.00  0.00     0.028 C 
ATOM     10  C   LIG d   1       0.944  83.907 115.100  0.00  0.00     0.006 C 
ENDBRANCH   8   9
BRANCH   8  11
ATOM     11  C   LIG d   1      -0.828  83.972 111.683  0.00  0.00     0.028 C 
ATOM     12  C   LIG d   1      -0.731  85.408 111.144  0.00  0.00     0.006 C 
ENDBRANCH   8  11
ENDBRANCH   7   8
ENDBRANCH   1   7
BRANCH   6  13
ATOM     13  N   LIG d   1      -0.526  79.725 111.350  0.00  0.00    -0.311 N 
ATOM     14  C   LIG d   1      -1.738  79.754 111.901  0.00  0.00     0.210 C 
ATOM     15  C   LIG d   1      -2.209  78.425 112.499  0.00  0.00     0.109 C 
ATOM     16  O   LIG d   1      -2.482  80.747 111.922  0.00  0.00    -0.276 OA
ATOM     17  H   LIG d   1      -0.006  78.870 111.349  0.00  0.00     0.149 HD
ENDBRANCH   6  13
BRANCH   5  18
ATOM     18  N   LIG d   1      -0.155  80.146 108.347  0.00  0.00     0.381 N 
ATOM     19  H   LIG d   1      -0.260  79.151 108.376  0.00  0.00    -0.090 HD
ATOM     20  H   LIG d   1       0.208  80.399 107.445  0.00  0.00    -0.090 HD
ATOM     21  H   LIG d   1      -1.038  80.584 108.492  0.00  0.00    -0.090 HD
ENDBRANCH   5  18
BRANCH   3  22
ATOM     22  C   LIG d   1       3.480  83.095 109.358  0.00  0.00     0.382 C 
ATOM     23  O   LIG d   1       3.665  84.291 109.688  0.00  0.00    -0.241 OA
ATOM     24  O   LIG d   1       4.286  82.541 108.587  0.00  0.00    -0.241 OA
ENDBRANCH   3  22
TORSDOF 7
ENDMDL
MODEL 9
REMARK VINA RESULT:      -5.7      2.490      5.551
REMARK  7 active torsions:
REMARK  status: ('A' for Active; 'I' for Inactive)
REMARK    1  A    between atoms: C_2  and  C_3 
REMARK    2  A    between atoms: C_3  and  O_6 
REMARK    3  A    between atoms: C_3  and  C_4 
REMARK    4  A    between atoms: C_7  and  O_6 
REMARK    5  A    between atoms: C_9  and  C_10 
REMARK    6  A    between atoms: N_15  and  C_14 
REMARK    7  A    between atoms: N_20  and  C_19 
REMARK       I    between atoms: C_22  and  N_20 
ROOT
ATOM      1  C   LIG d   1       2.866  84.755 112.222  0.00  0.00     0.161 C 
ATOM      2  C   LIG d   1       3.662  85.912 112.208  0.00  0.00     0.016 C 
ATOM      3  C   LIG d   1       3.753  86.807 113.299  0.00  0.00     0.038 C 
ATOM      4  C   LIG d   1       3.167  86.522 114.542  0.00  0.00     0.028 C 
ATOM      5  C   LIG d   1       1.943  85.619 114.442  0.00  0.00    -0.047 C 
ATOM      6  C   LIG d   1       2.308  84.370 113.607  0.00  0.00     0.091 C 
ENDROOT
BRANCH   1   7
ATOM      7  O   LIG d   1       3.599  83.651 111.653  0.00  0.00    -0.368 OA
BRANCH   7   8
ATOM      8  C   LIG d   1       3.510  83.501 110.214  0.00  0.00     0.119 C 
BRANCH   8   9
ATOM      9  C   LIG d   1       2.015  83.447 109.846  0.00  0.00     0.028 C 
ATOM     10  C   LIG d   1       1.417  82.041 110.026  0.00  0.00     0.006 C 
ENDBRANCH   8   9
BRANCH   8  11
ATOM     11  C   LIG d   1       4.090  82.160 109.757  0.00  0.00     0.028 C 
ATOM     12  C   LIG d   1       4.584  82.189 108.302  0.00  0.00     0.006 C 
ENDBRANCH   8  11
ENDBRANCH   7   8
ENDBRANCH   1   7
BRANCH   6  13
ATOM     13  N   LIG d   1       1.143  83.473 113.390  0.00  0.00    -0.311 N 
ATOM     14  C   LIG d   1       1.100  82.211 113.812  0.00  0.00     0.210 C 
ATOM     15  C   LIG d   1      -0.187  81.456 113.465  0.00  0.00     0.109 C 
ATOM     16  O   LIG d   1       1.993  81.654 114.469  0.00  0.00    -0.276 OA
ATOM     17  H   LIG d   1       0.361  83.853 112.892  0.00  0.00     0.149 HD
ENDBRANCH   6  13
BRANCH   5  18
ATOM     18  N   LIG d   1       1.516  85.292 115.816  0.00  0.00     0.381 N 
ATOM     19  H   LIG d   1       0.744  85.872 116.078  0.00  0.00    -0.090 HD
ATOM     20  H   LIG d   1       2.278  85.476 116.445  0.00  0.00    -0.090 HD
ATOM     21  H   LIG d   1       1.254  84.332 115.872  0.00  0.00    -0.090 HD
ENDBRANCH   5  18
BRANCH   3  22
ATOM     22  C   LIG d   1       4.403  88.021 113.140  0.00  0.00     0.382 C 
ATOM     23  O   LIG d   1       5.609  88.046 112.794  0.00  0.00    -0.241 OA
ATOM     24  O   LIG d   1       3.812  89.091 113.382  0.00  0.00    -0.241 OA
ENDBRANCH   3  22
TORSDOF 7
ENDMDL
