MODEL 1
REMARK VINA RESULT:      -6.4      0.000      0.000
REMARK  7 active torsions:
REMARK  status: ('A' for Active; 'I' for Inactive)
REMARK    1  A    between atoms: C_2  and  C_3 
REMARK    2  A    between atoms: C_3  and  O_6 
REMARK    3  A    between atoms: C_3  and  C_4 
REMARK    4  A    between atoms: C_7  and  O_6 
REMARK    5  A    between atoms: C_9  and  C_10 
REMARK    6  A    between atoms: N_15  and  C_14 
REMARK    7  A    between atoms: N_20  and  C_19 
REMARK       I    between atoms: C_22  and  N_20 
ROOT
ATOM      1  C   LIG d   1       1.377  82.942 111.747  0.00  0.00     0.161 C 
ATOM      2  C   LIG d   1       2.378  82.800 110.772  0.00  0.00     0.016 C 
ATOM      3  C   LIG d   1       2.449  81.703 109.883  0.00  0.00     0.038 C 
ATOM      4  C   LIG d   1       1.429  80.743 109.807  0.00  0.00     0.028 C 
ATOM      5  C   LIG d   1       0.660  80.573 111.113  0.00  0.00    -0.047 C 
ATOM      6  C   LIG d   1       0.194  81.962 111.606  0.00  0.00     0.091 C 
ENDROOT
BRANCH   1   7
ATOM      7  O   LIG d   1       0.901  84.302 111.764  0.00  0.00    -0.368 OA
BRANCH   7   8
ATOM      8  C   LIG d   1       1.233  85.108 110.607  0.00  0.00     0.119 C 
BRANCH   8   9
ATOM      9  C   LIG d   1       1.818  86.438 111.121  0.00  0.00     0.028 C 
ATOM     10  C   LIG d   1       3.247  86.279 111.665  0.00  0.00     0.006 C 
ENDBRANCH   8   9
BRANCH   8  11
ATOM     11  C   LIG d   1      -0.022  85.495 109.819  0.00  0.00     0.028 C 
ATOM     12  C   LIG d   1      -1.032  86.292 110.660  0.00  0.00     0.006 C 
ENDBRANCH   8  11
ENDBRANCH   7   8
ENDBRANCH   1   7
BRANCH   6  13
ATOM     13  N   LIG d   1      -0.494  81.895 112.922  0.00  0.00    -0.311 N 
ATOM     14  C   LIG d   1      -1.814  81.770 113.054  0.00  0.00     0.210 C 
ATOM     15  C   LIG d   1      -2.319  81.741 114.500  0.00  0.00     0.109 C 
ATOM     16  O   LIG d   1      -2.610  81.648 112.111  0.00  0.00    -0.276 OA
ATOM     17  H   LIG d   1       0.080  81.955 113.740  0.00  0.00     0.149 HD
ENDBRANCH   6  13
BRANCH   5  18
ATOM     18  N   LIG d   1      -0.458  79.646 110.854  0.00  0.00     0.381 N 
ATOM     19  H   LIG d   1      -0.786  79.260 111.718  0.00  0.00    -0.090 HD
ATOM     20  H   LIG d   1      -0.129  78.892 110.278  0.00  0.00    -0.090 HD
ATOM     21  H   LIG d   1      -1.200  80.126 110.394  0.00  0.00    -0.090 HD
ENDBRANCH   5  18
BRANCH   3  22
ATOM     22  C   LIG d   1       3.569  81.537 109.083  0.00  0.00     0.382 C 
ATOM     23  O   LIG d   1       4.517  80.814 109.474  0.00  0.00    -0.241 OA
ATOM     24  O   LIG d   1       3.664  82.137 107.995  0.00  0.00    -0.241 OA
ENDBRANCH   3  22
TORSDOF 7
ENDMDL
MODEL 2
REMARK VINA RESULT:      -6.4      1.529      4.918
REMARK  7 active torsions:
REMARK  status: ('A' for Active; 'I' for Inactive)
REMARK    1  A    between atoms: C_2  and  C_3 
REMARK    2  A    between atoms: C_3  and  O_6 
REMARK    3  A    between atoms: C_3  and  C_4 
REMARK    4  A    between atoms: C_7  and  O_6 
REMARK    5  A    between atoms: C_9  and  C_10 
REMARK    6  A    between atoms: N_15  and  C_14 
REMARK    7  A    between atoms: N_20  and  C_19 
REMARK       I    between atoms: C_22  and  N_20 
ROOT
ATOM      1  C   LIG d   1       0.207  82.937 111.350  0.00  0.00     0.161 C 
ATOM      2  C   LIG d   1      -0.912  82.675 112.158  0.00  0.00     0.016 C 
ATOM      3  C   LIG d   1      -1.429  81.376 112.372  0.00  0.00     0.038 C 
ATOM      4  C   LIG d   1      -0.768  80.229 111.910  0.00  0.00     0.028 C 
ATOM      5  C   LIG d   1       0.082  80.478 110.668  0.00  0.00    -0.047 C 
ATOM      6  C   LIG d   1       1.008  81.688 110.928  0.00  0.00     0.091 C 
ENDROOT
BRANCH   1   7
ATOM      7  O   LIG d   1       1.070  83.888 112.005  0.00  0.00    -0.368 OA
BRANCH   7   8
ATOM      8  C   LIG d   1       1.157  85.198 111.392  0.00  0.00     0.119 C 
BRANCH   8   9
ATOM      9  C   LIG d   1       0.067  85.273 110.305  0.00  0.00     0.028 C 
ATOM     10  C   LIG d   1      -1.021  86.309 110.636  0.00  0.00     0.006 C 
ENDBRANCH   8   9
BRANCH   8  11
ATOM     11  C   LIG d   1       2.484  85.379 110.650  0.00  0.00     0.028 C 
ATOM     12  C   LIG d   1       3.684  84.815 111.427  0.00  0.00     0.006 C 
ENDBRANCH   8  11
ENDBRANCH   7   8
ENDBRANCH   1   7
BRANCH   6  13
ATOM     13  N   LIG d   1       1.814  82.052 109.733  0.00  0.00    -0.311 N 
ATOM     14  C   LIG d   1       3.070  81.651 109.546  0.00  0.00     0.210 C 
ATOM     15  C   LIG d   1       3.724  82.156 108.256  0.00  0.00     0.109 C 
ATOM     16  O   LIG d   1       3.693  80.898 110.309  0.00  0.00    -0.276 OA
ATOM     17  H   LIG d   1       1.375  82.636 109.048  0.00  0.00     0.149 HD
ENDBRANCH   6  13
BRANCH   5  18
ATOM     18  N   LIG d   1       0.821  79.236 110.377  0.00  0.00     0.381 N 
ATOM     19  H   LIG d   1       1.259  79.304 109.480  0.00  0.00    -0.090 HD
ATOM     20  H   LIG d   1       0.172  78.469 110.353  0.00  0.00    -0.090 HD
ATOM     21  H   LIG d   1       1.509  79.076 111.079  0.00  0.00    -0.090 HD
ENDBRANCH   5  18
BRANCH   3  22
ATOM     22  C   LIG d   1      -2.644  81.219 113.021  0.00  0.00     0.382 C 
ATOM     23  O   LIG d   1      -3.385  80.247 112.738  0.00  0.00    -0.241 OA
ATOM     24  O   LIG d   1      -3.029  82.062 113.854  0.00  0.00    -0.241 OA
ENDBRANCH   3  22
TORSDOF 7
ENDMDL
MODEL 3
REMARK VINA RESULT:      -6.3      2.856      5.407
REMARK  7 active torsions:
REMARK  status: ('A' for Active; 'I' for Inactive)
REMARK    1  A    between atoms: C_2  and  C_3 
REMARK    2  A    between atoms: C_3  and  O_6 
REMARK    3  A    between atoms: C_3  and  C_4 
REMARK    4  A    between atoms: C_7  and  O_6 
REMARK    5  A    between atoms: C_9  and  C_10 
REMARK    6  A    between atoms: N_15  and  C_14 
REMARK    7  A    between atoms: N_20  and  C_19 
REMARK       I    between atoms: C_22  and  N_20 
ROOT
ATOM      1  C   LIG d   1       2.146  84.100 111.830  0.00  0.00     0.161 C 
ATOM      2  C   LIG d   1       1.166  83.093 111.823  0.00  0.00     0.016 C 
ATOM      3  C   LIG d   1      -0.058  83.194 112.522  0.00  0.00     0.038 C 
ATOM      4  C   LIG d   1      -0.453  84.381 113.158  0.00  0.00     0.028 C 
ATOM      5  C   LIG d   1       0.719  85.242 113.615  0.00  0.00    -0.047 C 
ATOM      6  C   LIG d   1       1.685  85.446 112.426  0.00  0.00     0.091 C 
ENDROOT
BRANCH   1   7
ATOM      7  O   LIG d   1       2.659  84.292 110.497  0.00  0.00    -0.368 OA
BRANCH   7   8
ATOM      8  C   LIG d   1       2.308  83.275 109.526  0.00  0.00     0.119 C 
BRANCH   8   9
ATOM      9  C   LIG d   1       3.621  82.698 108.964  0.00  0.00     0.028 C 
ATOM     10  C   LIG d   1       4.191  81.572 109.844  0.00  0.00     0.006 C 
ENDBRANCH   8   9
BRANCH   8  11
ATOM     11  C   LIG d   1       1.583  83.882 108.321  0.00  0.00     0.028 C 
ATOM     12  C   LIG d   1       0.784  85.144 108.679  0.00  0.00     0.006 C 
ENDBRANCH   8  11
ENDBRANCH   7   8
ENDBRANCH   1   7
BRANCH   6  13
ATOM     13  N   LIG d   1       2.902  86.208 112.810  0.00  0.00    -0.311 N 
ATOM     14  C   LIG d   1       3.011  87.529 112.680  0.00  0.00     0.210 C 
ATOM     15  C   LIG d   1       4.359  88.113 113.117  0.00  0.00     0.109 C 
ATOM     16  O   LIG d   1       2.108  88.277 112.276  0.00  0.00    -0.276 OA
ATOM     17  H   LIG d   1       3.672  85.684 113.176  0.00  0.00     0.149 HD
ENDBRANCH   6  13
BRANCH   5  18
ATOM     18  N   LIG d   1       0.166  86.507 114.135  0.00  0.00     0.381 N 
ATOM     19  H   LIG d   1      -0.749  86.656 113.760  0.00  0.00    -0.090 HD
ATOM     20  H   LIG d   1       0.755  87.265 113.839  0.00  0.00    -0.090 HD
ATOM     21  H   LIG d   1       0.125  86.478 115.130  0.00  0.00    -0.090 HD
ENDBRANCH   5  18
BRANCH   3  22
ATOM     22  C   LIG d   1      -0.885  82.085 112.624  0.00  0.00     0.382 C 
ATOM     23  O   LIG d   1      -0.539  81.108 113.330  0.00  0.00    -0.241 OA
ATOM     24  O   LIG d   1      -1.952  82.032 111.984  0.00  0.00    -0.241 OA
ENDBRANCH   3  22
TORSDOF 7
ENDMDL
MODEL 4
REMARK VINA RESULT:      -6.0      2.395      5.464
REMARK  7 active torsions:
REMARK  status: ('A' for Active; 'I' for Inactive)
REMARK    1  A    between atoms: C_2  and  C_3 
REMARK    2  A    between atoms: C_3  and  O_6 
REMARK    3  A    between atoms: C_3  and  C_4 
REMARK    4  A    between atoms: C_7  and  O_6 
REMARK    5  A    between atoms: C_9  and  C_10 
REMARK    6  A    between atoms: N_15  and  C_14 
REMARK    7  A    between atoms: N_20  and  C_19 
REMARK       I    between atoms: C_22  and  N_20 
ROOT
ATOM      1  C   LIG d   1      -0.115  82.825 111.227  0.00  0.00     0.161 C 
ATOM      2  C   LIG d   1      -0.593  84.133 111.406  0.00  0.00     0.016 C 
ATOM      3  C   LIG d   1      -0.308  85.195 110.516  0.00  0.00     0.038 C 
ATOM      4  C   LIG d   1       0.356  84.983 109.299  0.00  0.00     0.028 C 
ATOM      5  C   LIG d   1       1.293  83.780 109.321  0.00  0.00    -0.047 C 
ATOM      6  C   LIG d   1       0.518  82.550 109.847  0.00  0.00     0.091 C 
ENDROOT
BRANCH   1   7
ATOM      7  O   LIG d   1      -1.169  81.878 111.492  0.00  0.00    -0.368 OA
BRANCH   7   8
ATOM      8  C   LIG d   1      -1.537  81.707 112.883  0.00  0.00     0.119 C 
BRANCH   8   9
ATOM      9  C   LIG d   1      -0.372  80.981 113.584  0.00  0.00     0.028 C 
ATOM     10  C   LIG d   1       0.071  81.693 114.874  0.00  0.00     0.006 C 
ENDBRANCH   8   9
BRANCH   8  11
ATOM     11  C   LIG d   1      -2.743  80.774 113.030  0.00  0.00     0.028 C 
ATOM     12  C   LIG d   1      -2.507  79.392 112.401  0.00  0.00     0.006 C 
ENDBRANCH   8  11
ENDBRANCH   7   8
ENDBRANCH   1   7
BRANCH   6  13
ATOM     13  N   LIG d   1       1.384  81.349 109.980  0.00  0.00    -0.311 N 
ATOM     14  C   LIG d   1       1.279  80.279 109.194  0.00  0.00     0.210 C 
ATOM     15  C   LIG d   1       2.255  79.143 109.515  0.00  0.00     0.109 C 
ATOM     16  O   LIG d   1       0.491  80.176 108.242  0.00  0.00    -0.276 OA
ATOM     17  H   LIG d   1       2.072  81.361 110.708  0.00  0.00     0.149 HD
ENDBRANCH   6  13
BRANCH   5  18
ATOM     18  N   LIG d   1       1.812  83.594 107.952  0.00  0.00     0.381 N 
ATOM     19  H   LIG d   1       2.792  83.396 107.986  0.00  0.00    -0.090 HD
ATOM     20  H   LIG d   1       1.680  84.446 107.436  0.00  0.00    -0.090 HD
ATOM     21  H   LIG d   1       1.330  82.847 107.504  0.00  0.00    -0.090 HD
ENDBRANCH   5  18
BRANCH   3  22
ATOM     22  C   LIG d   1      -0.653  86.492 110.861  0.00  0.00     0.382 C 
ATOM     23  O   LIG d   1       0.208  87.261 111.352  0.00  0.00    -0.241 OA
ATOM     24  O   LIG d   1      -1.826  86.890 110.728  0.00  0.00    -0.241 OA
ENDBRANCH   3  22
TORSDOF 7
ENDMDL
MODEL 5
REMARK VINA RESULT:      -6.0      3.336      5.996
REMARK  7 active torsions:
REMARK  status: ('A' for Active; 'I' for Inactive)
REMARK    1  A    between atoms: C_2  and  C_3 
REMARK    2  A    between atoms: C_3  and  O_6 
REMARK    3  A    between atoms: C_3  and  C_4 
REMARK    4  A    between atoms: C_7  and  O_6 
REMARK    5  A    between atoms: C_9  and  C_10 
REMARK    6  A    between atoms: N_15  and  C_14 
REMARK    7  A    between atoms: N_20  and  C_19 
REMARK       I    between atoms: C_22  and  N_20 
ROOT
ATOM      1  C   LIG d   1       3.003  85.943 112.251  0.00  0.00     0.161 C 
ATOM      2  C   LIG d   1       3.836  87.074 112.274  0.00  0.00     0.016 C 
ATOM      3  C   LIG d   1       4.048  87.862 113.428  0.00  0.00     0.038 C 
ATOM      4  C   LIG d   1       3.555  87.482 114.686  0.00  0.00     0.028 C 
ATOM      5  C   LIG d   1       2.295  86.627 114.610  0.00  0.00    -0.047 C 
ATOM      6  C   LIG d   1       2.546  85.449 113.640  0.00  0.00     0.091 C 
ENDROOT
BRANCH   1   7
ATOM      7  O   LIG d   1       3.646  84.876 111.527  0.00  0.00    -0.368 OA
BRANCH   7   8
ATOM      8  C   LIG d   1       3.212  84.682 110.159  0.00  0.00     0.119 C 
BRANCH   8   9
ATOM      9  C   LIG d   1       1.756  85.178 110.061  0.00  0.00     0.028 C 
ATOM     10  C   LIG d   1       1.117  84.855 108.699  0.00  0.00     0.006 C 
ENDBRANCH   8   9
BRANCH   8  11
ATOM     11  C   LIG d   1       3.159  83.195 109.796  0.00  0.00     0.028 C 
ATOM     12  C   LIG d   1       4.551  82.547 109.733  0.00  0.00     0.006 C 
ENDBRANCH   8  11
ENDBRANCH   7   8
ENDBRANCH   1   7
BRANCH   6  13
ATOM     13  N   LIG d   1       1.335  84.610 113.443  0.00  0.00    -0.311 N 
ATOM     14  C   LIG d   1       1.362  83.279 113.419  0.00  0.00     0.210 C 
ATOM     15  C   LIG d   1       0.005  82.609 113.183  0.00  0.00     0.109 C 
ATOM     16  O   LIG d   1       2.376  82.588 113.603  0.00  0.00    -0.276 OA
ATOM     17  H   LIG d   1       0.464  85.088 113.317  0.00  0.00     0.149 HD
ENDBRANCH   6  13
BRANCH   5  18
ATOM     18  N   LIG d   1       1.971  86.189 115.980  0.00  0.00     0.381 N 
ATOM     19  H   LIG d   1       1.419  86.886 116.437  0.00  0.00    -0.090 HD
ATOM     20  H   LIG d   1       2.826  86.075 116.496  0.00  0.00    -0.090 HD
ATOM     21  H   LIG d   1       1.473  85.326 115.954  0.00  0.00    -0.090 HD
ENDBRANCH   5  18
BRANCH   3  22
ATOM     22  C   LIG d   1       4.726  89.067 113.323  0.00  0.00     0.382 C 
ATOM     23  O   LIG d   1       4.108  90.149 113.466  0.00  0.00    -0.241 OA
ATOM     24  O   LIG d   1       5.940  89.086 113.042  0.00  0.00    -0.241 OA
ENDBRANCH   3  22
TORSDOF 7
ENDMDL
MODEL 6
REMARK VINA RESULT:      -6.0      2.033      4.956
REMARK  7 active torsions:
REMARK  status: ('A' for Active; 'I' for Inactive)
REMARK    1  A    between atoms: C_2  and  C_3 
REMARK    2  A    between atoms: C_3  and  O_6 
REMARK    3  A    between atoms: C_3  and  C_4 
REMARK    4  A    between atoms: C_7  and  O_6 
REMARK    5  A    between atoms: C_9  and  C_10 
REMARK    6  A    between atoms: N_15  and  C_14 
REMARK    7  A    between atoms: N_20  and  C_19 
REMARK       I    between atoms: C_22  and  N_20 
ROOT
ATOM      1  C   LIG d   1       0.506  82.875 112.356  0.00  0.00     0.161 C 
ATOM      2  C   LIG d   1      -0.717  82.557 112.971  0.00  0.00     0.016 C 
ATOM      3  C   LIG d   1      -1.414  81.349 112.739  0.00  0.00     0.038 C 
ATOM      4  C   LIG d   1      -0.856  80.304 111.987  0.00  0.00     0.028 C 
ATOM      5  C   LIG d   1       0.146  80.779 110.940  0.00  0.00    -0.047 C 
ATOM      6  C   LIG d   1       1.184  81.701 111.620  0.00  0.00     0.091 C 
ENDROOT
BRANCH   1   7
ATOM      7  O   LIG d   1       1.407  83.445 113.326  0.00  0.00    -0.368 OA
BRANCH   7   8
ATOM      8  C   LIG d   1       1.660  84.866 113.203  0.00  0.00     0.119 C 
BRANCH   8   9
ATOM      9  C   LIG d   1       3.133  85.039 112.784  0.00  0.00     0.028 C 
ATOM     10  C   LIG d   1       3.276  85.648 111.379  0.00  0.00     0.006 C 
ENDBRANCH   8   9
BRANCH   8  11
ATOM     11  C   LIG d   1       1.537  85.574 114.555  0.00  0.00     0.028 C 
ATOM     12  C   LIG d   1       0.085  85.928 114.913  0.00  0.00     0.006 C 
ENDBRANCH   8  11
ENDBRANCH   7   8
ENDBRANCH   1   7
BRANCH   6  13
ATOM     13  N   LIG d   1       2.151  82.276 110.650  0.00  0.00    -0.311 N 
ATOM     14  C   LIG d   1       3.364  81.769 110.436  0.00  0.00     0.210 C 
ATOM     15  C   LIG d   1       4.210  82.528 109.408  0.00  0.00     0.109 C 
ATOM     16  O   LIG d   1       3.808  80.744 110.975  0.00  0.00    -0.276 OA
ATOM     17  H   LIG d   1       1.862  83.091 110.145  0.00  0.00     0.149 HD
ENDBRANCH   6  13
BRANCH   5  18
ATOM     18  N   LIG d   1       0.750  79.581 110.326  0.00  0.00     0.381 N 
ATOM     19  H   LIG d   1       0.033  79.004 109.933  0.00  0.00    -0.090 HD
ATOM     20  H   LIG d   1       1.224  79.055 111.039  0.00  0.00    -0.090 HD
ATOM     21  H   LIG d   1       1.396  79.851 109.617  0.00  0.00    -0.090 HD
ENDBRANCH   5  18
BRANCH   3  22
ATOM     22  C   LIG d   1      -2.701  81.193 113.230  0.00  0.00     0.382 C 
ATOM     23  O   LIG d   1      -3.684  81.306 112.458  0.00  0.00    -0.241 OA
ATOM     24  O   LIG d   1      -2.894  80.985 114.443  0.00  0.00    -0.241 OA
ENDBRANCH   3  22
TORSDOF 7
ENDMDL
MODEL 7
REMARK VINA RESULT:      -5.9      2.202      4.981
REMARK  7 active torsions:
REMARK  status: ('A' for Active; 'I' for Inactive)
REMARK    1  A    between atoms: C_2  and  C_3 
REMARK    2  A    between atoms: C_3  and  O_6 
REMARK    3  A    between atoms: C_3  and  C_4 
REMARK    4  A    between atoms: C_7  and  O_6 
REMARK    5  A    between atoms: C_9  and  C_10 
REMARK    6  A    between atoms: N_15  and  C_14 
REMARK    7  A    between atoms: N_20  and  C_19 
REMARK       I    between atoms: C_22  and  N_20 
ROOT
ATOM      1  C   LIG d   1       1.317  83.927 111.692  0.00  0.00     0.161 C 
ATOM      2  C   LIG d   1       2.129  85.071 111.624  0.00  0.00     0.016 C 
ATOM      3  C   LIG d   1       1.889  86.242 112.380  0.00  0.00     0.038 C 
ATOM      4  C   LIG d   1       0.902  86.292 113.375  0.00  0.00     0.028 C 
ATOM      5  C   LIG d   1      -0.261  85.337 113.124  0.00  0.00    -0.047 C 
ATOM      6  C   LIG d   1       0.301  83.923 112.853  0.00  0.00     0.091 C 
ENDROOT
BRANCH   1   7
ATOM      7  O   LIG d   1       2.141  82.746 111.743  0.00  0.00    -0.368 OA
BRANCH   7   8
ATOM      8  C   LIG d   1       2.259  81.997 110.509  0.00  0.00     0.119 C 
BRANCH   8   9
ATOM      9  C   LIG d   1       1.493  80.673 110.695  0.00  0.00     0.028 C 
ATOM     10  C   LIG d   1       1.914  79.602 109.675  0.00  0.00     0.006 C 
ENDBRANCH   8   9
BRANCH   8  11
ATOM     11  C   LIG d   1       3.711  81.590 110.240  0.00  0.00     0.028 C 
ATOM     12  C   LIG d   1       4.544  82.725 109.624  0.00  0.00     0.006 C 
ENDBRANCH   8  11
ENDBRANCH   7   8
ENDBRANCH   1   7
BRANCH   6  13
ATOM     13  N   LIG d   1      -0.765  82.945 112.514  0.00  0.00    -0.311 N 
ATOM     14  C   LIG d   1      -1.348  82.154 113.414  0.00  0.00     0.210 C 
ATOM     15  C   LIG d   1      -2.409  81.205 112.849  0.00  0.00     0.109 C 
ATOM     16  O   LIG d   1      -1.108  82.171 114.630  0.00  0.00    -0.276 OA
ATOM     17  H   LIG d   1      -1.043  82.887 111.554  0.00  0.00     0.149 HD
ENDBRANCH   6  13
BRANCH   5  18
ATOM     18  N   LIG d   1      -1.146  85.392 114.302  0.00  0.00     0.381 N 
ATOM     19  H   LIG d   1      -1.492  86.323 114.423  0.00  0.00    -0.090 HD
ATOM     20  H   LIG d   1      -0.615  85.145 115.119  0.00  0.00    -0.090 HD
ATOM     21  H   LIG d   1      -1.907  84.759 114.187  0.00  0.00    -0.090 HD
ENDBRANCH   5  18
BRANCH   3  22
ATOM     22  C   LIG d   1       2.617  87.392 112.116  0.00  0.00     0.382 C 
ATOM     23  O   LIG d   1       3.842  87.313 111.857  0.00  0.00    -0.241 OA
ATOM     24  O   LIG d   1       2.074  88.511 112.177  0.00  0.00    -0.241 OA
ENDBRANCH   3  22
TORSDOF 7
ENDMDL
MODEL 8
REMARK VINA RESULT:      -5.9      2.386      5.574
REMARK  7 active torsions:
REMARK  status: ('A' for Active; 'I' for Inactive)
REMARK    1  A    between atoms: C_2  and  C_3 
REMARK    2  A    between atoms: C_3  and  O_6 
REMARK    3  A    between atoms: C_3  and  C_4 
REMARK    4  A    between atoms: C_7  and  O_6 
REMARK    5  A    between atoms: C_9  and  C_10 
REMARK    6  A    between atoms: N_15  and  C_14 
REMARK    7  A    between atoms: N_20  and  C_19 
REMARK       I    between atoms: C_22  and  N_20 
ROOT
ATOM      1  C   LIG d   1       1.454  82.102 112.579  0.00  0.00     0.161 C 
ATOM      2  C   LIG d   1       0.320  81.290 112.746  0.00  0.00     0.016 C 
ATOM      3  C   LIG d   1      -0.994  81.716 112.440  0.00  0.00     0.038 C 
ATOM      4  C   LIG d   1      -1.246  82.938 111.798  0.00  0.00     0.028 C 
ATOM      5  C   LIG d   1      -0.183  83.997 112.072  0.00  0.00    -0.047 C 
ATOM      6  C   LIG d   1       1.210  83.397 111.776  0.00  0.00     0.091 C 
ENDROOT
BRANCH   1   7
ATOM      7  O   LIG d   1       2.519  81.335 111.982  0.00  0.00    -0.368 OA
BRANCH   7   8
ATOM      8  C   LIG d   1       2.652  81.443 110.543  0.00  0.00     0.119 C 
BRANCH   8   9
ATOM      9  C   LIG d   1       2.139  80.125 109.931  0.00  0.00     0.028 C 
ATOM     10  C   LIG d   1       0.870  80.326 109.085  0.00  0.00     0.006 C 
ENDBRANCH   8   9
BRANCH   8  11
ATOM     11  C   LIG d   1       4.123  81.538 110.125  0.00  0.00     0.028 C 
ATOM     12  C   LIG d   1       4.337  82.446 108.904  0.00  0.00     0.006 C 
ENDBRANCH   8  11
ENDBRANCH   7   8
ENDBRANCH   1   7
BRANCH   6  13
ATOM     13  N   LIG d   1       2.313  84.340 112.098  0.00  0.00    -0.311 N 
ATOM     14  C   LIG d   1       2.815  85.207 111.221  0.00  0.00     0.210 C 
ATOM     15  C   LIG d   1       3.962  86.073 111.752  0.00  0.00     0.109 C 
ATOM     16  O   LIG d   1       2.399  85.363 110.063  0.00  0.00    -0.276 OA
ATOM     17  H   LIG d   1       2.689  84.302 113.025  0.00  0.00     0.149 HD
ENDBRANCH   6  13
BRANCH   5  18
ATOM     18  N   LIG d   1      -0.497  85.170 111.234  0.00  0.00     0.381 N 
ATOM     19  H   LIG d   1      -0.953  85.868 111.787  0.00  0.00    -0.090 HD
ATOM     20  H   LIG d   1      -1.126  84.888 110.502  0.00  0.00    -0.090 HD
ATOM     21  H   LIG d   1       0.339  85.541 110.840  0.00  0.00    -0.090 HD
ENDBRANCH   5  18
BRANCH   3  22
ATOM     22  C   LIG d   1      -2.075  80.932 112.812  0.00  0.00     0.382 C 
ATOM     23  O   LIG d   1      -1.884  79.835 113.391  0.00  0.00    -0.241 OA
ATOM     24  O   LIG d   1      -3.237  81.287 112.538  0.00  0.00    -0.241 OA
ENDBRANCH   3  22
TORSDOF 7
ENDMDL
MODEL 9
REMARK VINA RESULT:      -5.7      2.425      5.494
REMARK  7 active torsions:
REMARK  status: ('A' for Active; 'I' for Inactive)
REMARK    1  A    between atoms: C_2  and  C_3 
REMARK    2  A    between atoms: C_3  and  O_6 
REMARK    3  A    between atoms: C_3  and  C_4 
REMARK    4  A    between atoms: C_7  and  O_6 
REMARK    5  A    between atoms: C_9  and  C_10 
REMARK    6  A    between atoms: N_15  and  C_14 
REMARK    7  A    between atoms: N_20  and  C_19 
REMARK       I    between atoms: C_22  and  N_20 
ROOT
ATOM      1  C   LIG d   1       0.052  84.011 112.097  0.00  0.00     0.161 C 
ATOM      2  C   LIG d   1       0.512  85.192 112.703  0.00  0.00     0.016 C 
ATOM      3  C   LIG d   1       1.043  86.282 111.977  0.00  0.00     0.038 C 
ATOM      4  C   LIG d   1       1.011  86.326 110.575  0.00  0.00     0.028 C 
ATOM      5  C   LIG d   1       1.019  84.947 109.926  0.00  0.00    -0.047 C 
ATOM      6  C   LIG d   1      -0.095  84.085 110.563  0.00  0.00     0.091 C 
ENDROOT
BRANCH   1   7
ATOM      7  O   LIG d   1      -1.193  83.605 112.700  0.00  0.00    -0.368 OA
BRANCH   7   8
ATOM      8  C   LIG d   1      -1.135  82.444 113.564  0.00  0.00     0.119 C 
BRANCH   8   9
ATOM      9  C   LIG d   1      -1.876  81.297 112.849  0.00  0.00     0.028 C 
ATOM     10  C   LIG d   1      -0.961  80.095 112.562  0.00  0.00     0.006 C 
ENDBRANCH   8   9
BRANCH   8  11
ATOM     11  C   LIG d   1      -1.909  82.677 114.865  0.00  0.00     0.028 C 
ATOM     12  C   LIG d   1      -1.360  83.859 115.680  0.00  0.00     0.006 C 
ENDBRANCH   8  11
ENDBRANCH   7   8
ENDBRANCH   1   7
BRANCH   6  13
ATOM     13  N   LIG d   1      -0.101  82.693 110.043  0.00  0.00    -0.311 N 
ATOM     14  C   LIG d   1       1.006  81.987 109.825  0.00  0.00     0.210 C 
ATOM     15  C   LIG d   1       0.776  80.578 109.269  0.00  0.00     0.109 C 
ATOM     16  O   LIG d   1       2.156  82.381 110.069  0.00  0.00    -0.276 OA
ATOM     17  H   LIG d   1      -0.994  82.283 109.847  0.00  0.00     0.149 HD
ENDBRANCH   6  13
BRANCH   5  18
ATOM     18  N   LIG d   1       0.843  85.137 108.473  0.00  0.00     0.381 N 
ATOM     19  H   LIG d   1       0.865  84.251 108.010  0.00  0.00    -0.090 HD
ATOM     20  H   LIG d   1       1.603  85.694 108.124  0.00  0.00    -0.090 HD
ATOM     21  H   LIG d   1      -0.023  85.594 108.292  0.00  0.00    -0.090 HD
ENDBRANCH   5  18
BRANCH   3  22
ATOM     22  C   LIG d   1       1.652  87.328 112.655  0.00  0.00     0.382 C 
ATOM     23  O   LIG d   1       1.861  87.237 113.889  0.00  0.00    -0.241 OA
ATOM     24  O   LIG d   1       1.954  88.378 112.057  0.00  0.00    -0.241 OA
ENDBRANCH   3  22
TORSDOF 7
ENDMDL
