MODEL 1
REMARK VINA RESULT:      -6.5      0.000      0.000
REMARK  7 active torsions:
REMARK  status: ('A' for Active; 'I' for Inactive)
REMARK    1  A    between atoms: C_2  and  C_3 
REMARK    2  A    between atoms: C_3  and  O_6 
REMARK    3  A    between atoms: C_3  and  C_4 
REMARK    4  A    between atoms: C_7  and  O_6 
REMARK    5  A    between atoms: C_9  and  C_10 
REMARK    6  A    between atoms: N_15  and  C_14 
REMARK    7  A    between atoms: N_20  and  C_19 
REMARK       I    between atoms: C_22  and  N_20 
ROOT
ATOM      1  C   LIG d   1       1.233  81.775 111.965  0.00  0.00     0.161 C 
ATOM      2  C   LIG d   1       2.318  82.422 111.350  0.00  0.00     0.016 C 
ATOM      3  C   LIG d   1       2.516  82.448 109.950  0.00  0.00     0.038 C 
ATOM      4  C   LIG d   1       1.555  81.954 109.056  0.00  0.00     0.028 C 
ATOM      5  C   LIG d   1       0.690  80.847 109.647  0.00  0.00    -0.047 C 
ATOM      6  C   LIG d   1       0.116  81.326 111.000  0.00  0.00     0.091 C 
ENDROOT
BRANCH   1   7
ATOM      7  O   LIG d   1       0.690  82.612 113.005  0.00  0.00    -0.368 OA
BRANCH   7   8
ATOM      8  C   LIG d   1       0.910  84.037 112.856  0.00  0.00     0.119 C 
BRANCH   8   9
ATOM      9  C   LIG d   1       1.347  84.583 114.229  0.00  0.00     0.028 C 
ATOM     10  C   LIG d   1       0.880  86.031 114.460  0.00  0.00     0.006 C 
ENDBRANCH   8   9
BRANCH   8  11
ATOM     11  C   LIG d   1      -0.392  84.770 112.523  0.00  0.00     0.028 C 
ATOM     12  C   LIG d   1      -0.560  85.033 111.018  0.00  0.00     0.006 C 
ENDBRANCH   8  11
ENDBRANCH   7   8
ENDBRANCH   1   7
BRANCH   6  13
ATOM     13  N   LIG d   1      -0.674  80.271 111.686  0.00  0.00    -0.311 N 
ATOM     14  C   LIG d   1      -1.798  80.517 112.358  0.00  0.00     0.210 C 
ATOM     15  C   LIG d   1      -2.445  79.290 113.007  0.00  0.00     0.109 C 
ATOM     16  O   LIG d   1      -2.338  81.630 112.450  0.00  0.00    -0.276 OA
ATOM     17  H   LIG d   1      -0.325  79.334 111.635  0.00  0.00     0.149 HD
ENDBRANCH   6  13
BRANCH   5  18
ATOM     18  N   LIG d   1      -0.355  80.521 108.658  0.00  0.00     0.381 N 
ATOM     19  H   LIG d   1      -0.118  79.675 108.181  0.00  0.00    -0.090 HD
ATOM     20  H   LIG d   1      -0.404  81.262 107.981  0.00  0.00    -0.090 HD
ATOM     21  H   LIG d   1      -1.235  80.419 109.113  0.00  0.00    -0.090 HD
ENDBRANCH   5  18
BRANCH   3  22
ATOM     22  C   LIG d   1       3.707  82.938 109.434  0.00  0.00     0.382 C 
ATOM     23  O   LIG d   1       4.167  84.029 109.848  0.00  0.00    -0.241 OA
ATOM     24  O   LIG d   1       4.302  82.325 108.529  0.00  0.00    -0.241 OA
ENDBRANCH   3  22
TORSDOF 7
ENDMDL
MODEL 2
REMARK VINA RESULT:      -6.2      2.783      5.870
REMARK  7 active torsions:
REMARK  status: ('A' for Active; 'I' for Inactive)
REMARK    1  A    between atoms: C_2  and  C_3 
REMARK    2  A    between atoms: C_3  and  O_6 
REMARK    3  A    between atoms: C_3  and  C_4 
REMARK    4  A    between atoms: C_7  and  O_6 
REMARK    5  A    between atoms: C_9  and  C_10 
REMARK    6  A    between atoms: N_15  and  C_14 
REMARK    7  A    between atoms: N_20  and  C_19 
REMARK       I    between atoms: C_22  and  N_20 
ROOT
ATOM      1  C   LIG d   1       2.311  83.482 112.457  0.00  0.00     0.161 C 
ATOM      2  C   LIG d   1       1.395  82.457 112.168  0.00  0.00     0.016 C 
ATOM      3  C   LIG d   1       0.017  82.685 111.944  0.00  0.00     0.038 C 
ATOM      4  C   LIG d   1      -0.513  83.980 111.844  0.00  0.00     0.028 C 
ATOM      5  C   LIG d   1       0.278  85.021 112.628  0.00  0.00    -0.047 C 
ATOM      6  C   LIG d   1       1.771  84.911 112.243  0.00  0.00     0.091 C 
ENDROOT
BRANCH   1   7
ATOM      7  O   LIG d   1       3.521  83.284 111.699  0.00  0.00    -0.368 OA
BRANCH   7   8
ATOM      8  C   LIG d   1       3.367  82.636 110.412  0.00  0.00     0.119 C 
BRANCH   8   9
ATOM      9  C   LIG d   1       4.736  82.039 110.029  0.00  0.00     0.028 C 
ATOM     10  C   LIG d   1       4.641  80.553 109.644  0.00  0.00     0.006 C 
ENDBRANCH   8   9
BRANCH   8  11
ATOM     11  C   LIG d   1       3.045  83.650 109.312  0.00  0.00     0.028 C 
ATOM     12  C   LIG d   1       1.721  83.348 108.592  0.00  0.00     0.006 C 
ENDBRANCH   8  11
ENDBRANCH   7   8
ENDBRANCH   1   7
BRANCH   6  13
ATOM     13  N   LIG d   1       2.629  85.838 113.027  0.00  0.00    -0.311 N 
ATOM     14  C   LIG d   1       2.957  87.061 112.612  0.00  0.00     0.210 C 
ATOM     15  C   LIG d   1       3.867  87.844 113.564  0.00  0.00     0.109 C 
ATOM     16  O   LIG d   1       2.554  87.584 111.562  0.00  0.00    -0.276 OA
ATOM     17  H   LIG d   1       2.973  85.507 113.906  0.00  0.00     0.149 HD
ENDBRANCH   6  13
BRANCH   5  18
ATOM     18  N   LIG d   1      -0.302  86.343 112.325  0.00  0.00     0.381 N 
ATOM     19  H   LIG d   1      -1.300  86.285 112.334  0.00  0.00    -0.090 HD
ATOM     20  H   LIG d   1      -0.010  86.623 111.406  0.00  0.00    -0.090 HD
ATOM     21  H   LIG d   1       0.005  87.012 112.997  0.00  0.00    -0.090 HD
ENDBRANCH   5  18
BRANCH   3  22
ATOM     22  C   LIG d   1      -0.852  81.609 111.857  0.00  0.00     0.382 C 
ATOM     23  O   LIG d   1      -0.528  80.592 111.196  0.00  0.00    -0.241 OA
ATOM     24  O   LIG d   1      -1.975  81.658 112.393  0.00  0.00    -0.241 OA
ENDBRANCH   3  22
TORSDOF 7
ENDMDL
MODEL 3
REMARK VINA RESULT:      -6.0      1.695      1.925
REMARK  7 active torsions:
REMARK  status: ('A' for Active; 'I' for Inactive)
REMARK    1  A    between atoms: C_2  and  C_3 
REMARK    2  A    between atoms: C_3  and  O_6 
REMARK    3  A    between atoms: C_3  and  C_4 
REMARK    4  A    between atoms: C_7  and  O_6 
REMARK    5  A    between atoms: C_9  and  C_10 
REMARK    6  A    between atoms: N_15  and  C_14 
REMARK    7  A    between atoms: N_20  and  C_19 
REMARK       I    between atoms: C_22  and  N_20 
ROOT
ATOM      1  C   LIG d   1       1.301  82.572 111.575  0.00  0.00     0.161 C 
ATOM      2  C   LIG d   1       2.646  82.375 111.220  0.00  0.00     0.016 C 
ATOM      3  C   LIG d   1       3.052  81.609 110.103  0.00  0.00     0.038 C 
ATOM      4  C   LIG d   1       2.130  81.108 109.173  0.00  0.00     0.028 C 
ATOM      5  C   LIG d   1       0.748  80.854 109.766  0.00  0.00    -0.047 C 
ATOM      6  C   LIG d   1       0.279  82.126 110.509  0.00  0.00     0.091 C 
ENDROOT
BRANCH   1   7
ATOM      7  O   LIG d   1       1.086  83.952 111.929  0.00  0.00    -0.368 OA
BRANCH   7   8
ATOM      8  C   LIG d   1       1.488  84.934 110.942  0.00  0.00     0.119 C 
BRANCH   8   9
ATOM      9  C   LIG d   1       2.351  85.988 111.662  0.00  0.00     0.028 C 
ATOM     10  C   LIG d   1       3.837  85.893 111.276  0.00  0.00     0.006 C 
ENDBRANCH   8   9
BRANCH   8  11
ATOM     11  C   LIG d   1       0.281  85.702 110.397  0.00  0.00     0.028 C 
ATOM     12  C   LIG d   1      -0.771  86.004 111.476  0.00  0.00     0.006 C 
ENDBRANCH   8  11
ENDBRANCH   7   8
ENDBRANCH   1   7
BRANCH   6  13
ATOM     13  N   LIG d   1      -1.028  81.935 111.190  0.00  0.00    -0.311 N 
ATOM     14  C   LIG d   1      -1.223  81.050 112.167  0.00  0.00     0.210 C 
ATOM     15  C   LIG d   1      -2.651  81.001 112.719  0.00  0.00     0.109 C 
ATOM     16  O   LIG d   1      -0.341  80.324 112.650  0.00  0.00    -0.276 OA
ATOM     17  H   LIG d   1      -1.791  82.506 110.882  0.00  0.00     0.149 HD
ENDBRANCH   6  13
BRANCH   5  18
ATOM     18  N   LIG d   1      -0.148  80.467 108.660  0.00  0.00     0.381 N 
ATOM     19  H   LIG d   1       0.372  80.411 107.807  0.00  0.00    -0.090 HD
ATOM     20  H   LIG d   1      -0.855  81.172 108.553  0.00  0.00    -0.090 HD
ATOM     21  H   LIG d   1      -0.572  79.587 108.857  0.00  0.00    -0.090 HD
ENDBRANCH   5  18
BRANCH   3  22
ATOM     22  C   LIG d   1       4.394  81.302 109.931  0.00  0.00     0.382 C 
ATOM     23  O   LIG d   1       5.259  82.206 110.018  0.00  0.00    -0.241 OA
ATOM     24  O   LIG d   1       4.745  80.142 109.647  0.00  0.00    -0.241 OA
ENDBRANCH   3  22
TORSDOF 7
ENDMDL
MODEL 4
REMARK VINA RESULT:      -5.9      3.564      5.601
REMARK  7 active torsions:
REMARK  status: ('A' for Active; 'I' for Inactive)
REMARK    1  A    between atoms: C_2  and  C_3 
REMARK    2  A    between atoms: C_3  and  O_6 
REMARK    3  A    between atoms: C_3  and  C_4 
REMARK    4  A    between atoms: C_7  and  O_6 
REMARK    5  A    between atoms: C_9  and  C_10 
REMARK    6  A    between atoms: N_15  and  C_14 
REMARK    7  A    between atoms: N_20  and  C_19 
REMARK       I    between atoms: C_22  and  N_20 
ROOT
ATOM      1  C   LIG d   1       3.805  85.669 110.994  0.00  0.00     0.161 C 
ATOM      2  C   LIG d   1       4.066  86.652 111.964  0.00  0.00     0.016 C 
ATOM      3  C   LIG d   1       3.057  87.440 112.564  0.00  0.00     0.038 C 
ATOM      4  C   LIG d   1       1.694  87.194 112.343  0.00  0.00     0.028 C 
ATOM      5  C   LIG d   1       1.406  86.550 110.991  0.00  0.00    -0.047 C 
ATOM      6  C   LIG d   1       2.314  85.310 110.823  0.00  0.00     0.091 C 
ENDROOT
BRANCH   1   7
ATOM      7  O   LIG d   1       4.576  84.485 111.278  0.00  0.00    -0.368 OA
BRANCH   7   8
ATOM      8  C   LIG d   1       3.868  83.406 111.936  0.00  0.00     0.119 C 
BRANCH   8   9
ATOM      9  C   LIG d   1       4.467  83.252 113.348  0.00  0.00     0.028 C 
ATOM     10  C   LIG d   1       3.631  83.971 114.421  0.00  0.00     0.006 C 
ENDBRANCH   8   9
BRANCH   8  11
ATOM     11  C   LIG d   1       4.123  82.066 111.240  0.00  0.00     0.028 C 
ATOM     12  C   LIG d   1       4.888  82.219 109.915  0.00  0.00     0.006 C 
ENDBRANCH   8  11
ENDBRANCH   7   8
ENDBRANCH   1   7
BRANCH   6  13
ATOM     13  N   LIG d   1       2.156  84.669 109.491  0.00  0.00    -0.311 N 
ATOM     14  C   LIG d   1       1.359  83.625 109.270  0.00  0.00     0.210 C 
ATOM     15  C   LIG d   1       1.359  83.106 107.829  0.00  0.00     0.109 C 
ATOM     16  O   LIG d   1       0.628  83.100 110.123  0.00  0.00    -0.276 OA
ATOM     17  H   LIG d   1       2.690  85.051 108.735  0.00  0.00     0.149 HD
ENDBRANCH   6  13
BRANCH   5  18
ATOM     18  N   LIG d   1      -0.032  86.223 110.951  0.00  0.00     0.381 N 
ATOM     19  H   LIG d   1      -0.512  86.880 110.369  0.00  0.00    -0.090 HD
ATOM     20  H   LIG d   1      -0.407  86.291 111.880  0.00  0.00    -0.090 HD
ATOM     21  H   LIG d   1      -0.162  85.300 110.599  0.00  0.00    -0.090 HD
ENDBRANCH   5  18
BRANCH   3  22
ATOM     22  C   LIG d   1       3.411  88.515 113.365  0.00  0.00     0.382 C 
ATOM     23  O   LIG d   1       4.323  89.296 113.000  0.00  0.00    -0.241 OA
ATOM     24  O   LIG d   1       2.861  88.689 114.469  0.00  0.00    -0.241 OA
ENDBRANCH   3  22
TORSDOF 7
ENDMDL
MODEL 5
REMARK VINA RESULT:      -5.9      2.712      5.807
REMARK  7 active torsions:
REMARK  status: ('A' for Active; 'I' for Inactive)
REMARK    1  A    between atoms: C_2  and  C_3 
REMARK    2  A    between atoms: C_3  and  O_6 
REMARK    3  A    between atoms: C_3  and  C_4 
REMARK    4  A    between atoms: C_7  and  O_6 
REMARK    5  A    between atoms: C_9  and  C_10 
REMARK    6  A    between atoms: N_15  and  C_14 
REMARK    7  A    between atoms: N_20  and  C_19 
REMARK       I    between atoms: C_22  and  N_20 
ROOT
ATOM      1  C   LIG d   1       1.832  82.885 111.682  0.00  0.00     0.161 C 
ATOM      2  C   LIG d   1       0.784  81.950 111.705  0.00  0.00     0.016 C 
ATOM      3  C   LIG d   1      -0.560  82.294 111.976  0.00  0.00     0.038 C 
ATOM      4  C   LIG d   1      -0.974  83.629 112.095  0.00  0.00     0.028 C 
ATOM      5  C   LIG d   1       0.128  84.564 112.580  0.00  0.00    -0.047 C 
ATOM      6  C   LIG d   1       1.382  84.361 111.699  0.00  0.00     0.091 C 
ENDROOT
BRANCH   1   7
ATOM      7  O   LIG d   1       2.685  82.635 110.547  0.00  0.00    -0.368 OA
BRANCH   7   8
ATOM      8  C   LIG d   1       3.858  81.822 110.799  0.00  0.00     0.119 C 
BRANCH   8   9
ATOM      9  C   LIG d   1       4.842  82.673 111.627  0.00  0.00     0.028 C 
ATOM     10  C   LIG d   1       4.810  82.317 113.123  0.00  0.00     0.006 C 
ENDBRANCH   8   9
BRANCH   8  11
ATOM     11  C   LIG d   1       4.599  81.496 109.499  0.00  0.00     0.028 C 
ATOM     12  C   LIG d   1       4.011  82.221 108.279  0.00  0.00     0.006 C 
ENDBRANCH   8  11
ENDBRANCH   7   8
ENDBRANCH   1   7
BRANCH   6  13
ATOM     13  N   LIG d   1       2.536  85.178 112.158  0.00  0.00    -0.311 N 
ATOM     14  C   LIG d   1       2.856  86.357 111.629  0.00  0.00     0.210 C 
ATOM     15  C   LIG d   1       4.095  87.023 112.236  0.00  0.00     0.109 C 
ATOM     16  O   LIG d   1       2.213  86.930 110.737  0.00  0.00    -0.276 OA
ATOM     17  H   LIG d   1       3.094  84.802 112.900  0.00  0.00     0.149 HD
ENDBRANCH   6  13
BRANCH   5  18
ATOM     18  N   LIG d   1      -0.399  85.941 112.526  0.00  0.00     0.381 N 
ATOM     19  H   LIG d   1       0.232  86.526 112.016  0.00  0.00    -0.090 HD
ATOM     20  H   LIG d   1      -0.473  86.298 113.462  0.00  0.00    -0.090 HD
ATOM     21  H   LIG d   1      -1.295  85.946 112.090  0.00  0.00    -0.090 HD
ENDBRANCH   5  18
BRANCH   3  22
ATOM     22  C   LIG d   1      -1.500  81.293 112.171  0.00  0.00     0.382 C 
ATOM     23  O   LIG d   1      -1.242  80.115 111.825  0.00  0.00    -0.241 OA
ATOM     24  O   LIG d   1      -2.619  81.561 112.648  0.00  0.00    -0.241 OA
ENDBRANCH   3  22
TORSDOF 7
ENDMDL
MODEL 6
REMARK VINA RESULT:      -5.8      3.071      3.664
REMARK  7 active torsions:
REMARK  status: ('A' for Active; 'I' for Inactive)
REMARK    1  A    between atoms: C_2  and  C_3 
REMARK    2  A    between atoms: C_3  and  O_6 
REMARK    3  A    between atoms: C_3  and  C_4 
REMARK    4  A    between atoms: C_7  and  O_6 
REMARK    5  A    between atoms: C_9  and  C_10 
REMARK    6  A    between atoms: N_15  and  C_14 
REMARK    7  A    between atoms: N_20  and  C_19 
REMARK       I    between atoms: C_22  and  N_20 
ROOT
ATOM      1  C   LIG d   1       2.523  83.959 110.768  0.00  0.00     0.161 C 
ATOM      2  C   LIG d   1       3.244  82.759 110.656  0.00  0.00     0.016 C 
ATOM      3  C   LIG d   1       3.258  81.965 109.486  0.00  0.00     0.038 C 
ATOM      4  C   LIG d   1       2.669  82.399 108.289  0.00  0.00     0.028 C 
ATOM      5  C   LIG d   1       1.506  83.363 108.500  0.00  0.00    -0.047 C 
ATOM      6  C   LIG d   1       1.965  84.505 109.436  0.00  0.00     0.091 C 
ENDROOT
BRANCH   1   7
ATOM      7  O   LIG d   1       3.334  84.958 111.417  0.00  0.00    -0.368 OA
BRANCH   7   8
ATOM      8  C   LIG d   1       3.206  85.045 112.858  0.00  0.00     0.119 C 
BRANCH   8   9
ATOM      9  C   LIG d   1       1.862  84.396 113.243  0.00  0.00     0.028 C 
ATOM     10  C   LIG d   1       1.985  83.477 114.470  0.00  0.00     0.006 C 
ENDBRANCH   8   9
BRANCH   8  11
ATOM     11  C   LIG d   1       3.100  86.501 113.321  0.00  0.00     0.028 C 
ATOM     12  C   LIG d   1       2.645  87.451 112.201  0.00  0.00     0.006 C 
ENDBRANCH   8  11
ENDBRANCH   7   8
ENDBRANCH   1   7
BRANCH   6  13
ATOM     13  N   LIG d   1       0.863  85.447 109.763  0.00  0.00    -0.311 N 
ATOM     14  C   LIG d   1      -0.270  85.073 110.354  0.00  0.00     0.210 C 
ATOM     15  C   LIG d   1      -1.283  86.200 110.581  0.00  0.00     0.109 C 
ATOM     16  O   LIG d   1      -0.520  83.922 110.740  0.00  0.00    -0.276 OA
ATOM     17  H   LIG d   1       0.995  86.408 109.513  0.00  0.00     0.149 HD
ENDBRANCH   6  13
BRANCH   5  18
ATOM     18  N   LIG d   1       1.077  83.841 107.173  0.00  0.00     0.381 N 
ATOM     19  H   LIG d   1       0.212  84.338 107.255  0.00  0.00    -0.090 HD
ATOM     20  H   LIG d   1       0.929  83.048 106.574  0.00  0.00    -0.090 HD
ATOM     21  H   LIG d   1       1.774  84.436 106.782  0.00  0.00    -0.090 HD
ENDBRANCH   5  18
BRANCH   3  22
ATOM     22  C   LIG d   1       3.832  80.704 109.518  0.00  0.00     0.382 C 
ATOM     23  O   LIG d   1       5.054  80.578 109.777  0.00  0.00    -0.241 OA
ATOM     24  O   LIG d   1       3.155  79.694 109.248  0.00  0.00    -0.241 OA
ENDBRANCH   3  22
TORSDOF 7
ENDMDL
MODEL 7
REMARK VINA RESULT:      -5.7      3.283      4.812
REMARK  7 active torsions:
REMARK  status: ('A' for Active; 'I' for Inactive)
REMARK    1  A    between atoms: C_2  and  C_3 
REMARK    2  A    between atoms: C_3  and  O_6 
REMARK    3  A    between atoms: C_3  and  C_4 
REMARK    4  A    between atoms: C_7  and  O_6 
REMARK    5  A    between atoms: C_9  and  C_10 
REMARK    6  A    between atoms: N_15  and  C_14 
REMARK    7  A    between atoms: N_20  and  C_19 
REMARK       I    between atoms: C_22  and  N_20 
ROOT
ATOM      1  C   LIG d   1       2.676  84.141 109.824  0.00  0.00     0.161 C 
ATOM      2  C   LIG d   1       2.908  82.828 109.380  0.00  0.00     0.016 C 
ATOM      3  C   LIG d   1       3.532  81.837 110.173  0.00  0.00     0.038 C 
ATOM      4  C   LIG d   1       3.833  82.051 111.526  0.00  0.00     0.028 C 
ATOM      5  C   LIG d   1       4.078  83.517 111.868  0.00  0.00    -0.047 C 
ATOM      6  C   LIG d   1       2.897  84.361 111.336  0.00  0.00     0.091 C 
ENDROOT
BRANCH   1   7
ATOM      7  O   LIG d   1       1.350  84.558 109.446  0.00  0.00    -0.368 OA
BRANCH   7   8
ATOM      8  C   LIG d   1       0.379  84.645 110.518  0.00  0.00     0.119 C 
BRANCH   8   9
ATOM      9  C   LIG d   1      -0.284  83.261 110.656  0.00  0.00     0.028 C 
ATOM     10  C   LIG d   1      -0.559  82.886 112.122  0.00  0.00     0.006 C 
ENDBRANCH   8   9
BRANCH   8  11
ATOM     11  C   LIG d   1      -0.759  85.606 110.162  0.00  0.00     0.028 C 
ATOM     12  C   LIG d   1      -1.131  86.545 111.320  0.00  0.00     0.006 C 
ENDBRANCH   8  11
ENDBRANCH   7   8
ENDBRANCH   1   7
BRANCH   6  13
ATOM     13  N   LIG d   1       3.097  85.817 111.554  0.00  0.00    -0.311 N 
ATOM     14  C   LIG d   1       2.628  86.471 112.615  0.00  0.00     0.210 C 
ATOM     15  C   LIG d   1       2.929  87.973 112.635  0.00  0.00     0.109 C 
ATOM     16  O   LIG d   1       2.018  85.944 113.558  0.00  0.00    -0.276 OA
ATOM     17  H   LIG d   1       3.608  86.317 110.853  0.00  0.00     0.149 HD
ENDBRANCH   6  13
BRANCH   5  18
ATOM     18  N   LIG d   1       4.243  83.612 113.331  0.00  0.00     0.381 N 
ATOM     19  H   LIG d   1       5.188  83.395 113.579  0.00  0.00    -0.090 HD
ATOM     20  H   LIG d   1       3.639  82.941 113.770  0.00  0.00    -0.090 HD
ATOM     21  H   LIG d   1       4.013  84.531 113.641  0.00  0.00    -0.090 HD
ENDBRANCH   5  18
BRANCH   3  22
ATOM     22  C   LIG d   1       3.898  80.629 109.600  0.00  0.00     0.382 C 
ATOM     23  O   LIG d   1       3.020  79.868 109.126  0.00  0.00    -0.241 OA
ATOM     24  O   LIG d   1       5.091  80.270 109.590  0.00  0.00    -0.241 OA
ENDBRANCH   3  22
TORSDOF 7
ENDMDL
MODEL 8
REMARK VINA RESULT:      -5.6      3.400      5.624
REMARK  7 active torsions:
REMARK  status: ('A' for Active; 'I' for Inactive)
REMARK    1  A    between atoms: C_2  and  C_3 
REMARK    2  A    between atoms: C_3  and  O_6 
REMARK    3  A    between atoms: C_3  and  C_4 
REMARK    4  A    between atoms: C_7  and  O_6 
REMARK    5  A    between atoms: C_9  and  C_10 
REMARK    6  A    between atoms: N_15  and  C_14 
REMARK    7  A    between atoms: N_20  and  C_19 
REMARK       I    between atoms: C_22  and  N_20 
ROOT
ATOM      1  C   LIG d   1       3.458  85.485 111.467  0.00  0.00     0.161 C 
ATOM      2  C   LIG d   1       4.163  86.631 111.869  0.00  0.00     0.016 C 
ATOM      3  C   LIG d   1       3.740  87.476 112.920  0.00  0.00     0.038 C 
ATOM      4  C   LIG d   1       2.655  87.146 113.746  0.00  0.00     0.028 C 
ATOM      5  C   LIG d   1       1.618  86.264 113.059  0.00  0.00    -0.047 C 
ATOM      6  C   LIG d   1       2.332  85.048 112.428  0.00  0.00     0.091 C 
ENDROOT
BRANCH   1   7
ATOM      7  O   LIG d   1       4.378  84.397 111.246  0.00  0.00    -0.368 OA
BRANCH   7   8
ATOM      8  C   LIG d   1       3.848  83.247 110.542  0.00  0.00     0.119 C 
BRANCH   8   9
ATOM      9  C   LIG d   1       4.324  81.987 111.290  0.00  0.00     0.028 C 
ATOM     10  C   LIG d   1       4.601  82.257 112.778  0.00  0.00     0.006 C 
ENDBRANCH   8   9
BRANCH   8  11
ATOM     11  C   LIG d   1       4.443  83.133 109.135  0.00  0.00     0.028 C 
ATOM     12  C   LIG d   1       3.605  82.242 108.204  0.00  0.00     0.006 C 
ENDBRANCH   8  11
ENDBRANCH   7   8
ENDBRANCH   1   7
BRANCH   6  13
ATOM     13  N   LIG d   1       1.402  84.177 111.664  0.00  0.00    -0.311 N 
ATOM     14  C   LIG d   1       0.768  83.134 112.198  0.00  0.00     0.210 C 
ATOM     15  C   LIG d   1      -0.130  82.358 111.230  0.00  0.00     0.109 C 
ATOM     16  O   LIG d   1       0.840  82.797 113.389  0.00  0.00    -0.276 OA
ATOM     17  H   LIG d   1       1.261  84.397 110.697  0.00  0.00     0.149 HD
ENDBRANCH   6  13
BRANCH   5  18
ATOM     18  N   LIG d   1       0.615  85.884 114.072  0.00  0.00     0.381 N 
ATOM     19  H   LIG d   1       0.741  84.926 114.331  0.00  0.00    -0.090 HD
ATOM     20  H   LIG d   1      -0.303  85.985 113.675  0.00  0.00    -0.090 HD
ATOM     21  H   LIG d   1       0.703  86.468 114.875  0.00  0.00    -0.090 HD
ENDBRANCH   5  18
BRANCH   3  22
ATOM     22  C   LIG d   1       4.382  88.688 113.129  0.00  0.00     0.382 C 
ATOM     23  O   LIG d   1       5.364  89.008 112.417  0.00  0.00    -0.241 OA
ATOM     24  O   LIG d   1       4.019  89.445 114.049  0.00  0.00    -0.241 OA
ENDBRANCH   3  22
TORSDOF 7
ENDMDL
MODEL 9
REMARK VINA RESULT:      -5.6      2.792      3.831
REMARK  7 active torsions:
REMARK  status: ('A' for Active; 'I' for Inactive)
REMARK    1  A    between atoms: C_2  and  C_3 
REMARK    2  A    between atoms: C_3  and  O_6 
REMARK    3  A    between atoms: C_3  and  C_4 
REMARK    4  A    between atoms: C_7  and  O_6 
REMARK    5  A    between atoms: C_9  and  C_10 
REMARK    6  A    between atoms: N_15  and  C_14 
REMARK    7  A    between atoms: N_20  and  C_19 
REMARK       I    between atoms: C_22  and  N_20 
ROOT
ATOM      1  C   LIG d   1       1.559  82.760 111.426  0.00  0.00     0.161 C 
ATOM      2  C   LIG d   1       2.397  81.694 111.061  0.00  0.00     0.016 C 
ATOM      3  C   LIG d   1       2.853  81.479 109.740  0.00  0.00     0.038 C 
ATOM      4  C   LIG d   1       2.622  82.409 108.716  0.00  0.00     0.028 C 
ATOM      5  C   LIG d   1       1.359  83.238 108.924  0.00  0.00    -0.047 C 
ATOM      6  C   LIG d   1       1.387  83.847 110.345  0.00  0.00     0.091 C 
ENDROOT
BRANCH   1   7
ATOM      7  O   LIG d   1       2.023  83.348 112.658  0.00  0.00    -0.368 OA
BRANCH   7   8
ATOM      8  C   LIG d   1       3.196  84.192 112.558  0.00  0.00     0.119 C 
BRANCH   8   9
ATOM      9  C   LIG d   1       4.403  83.367 113.044  0.00  0.00     0.028 C 
ATOM     10  C   LIG d   1       4.057  82.473 114.247  0.00  0.00     0.006 C 
ENDBRANCH   8   9
BRANCH   8  11
ATOM     11  C   LIG d   1       3.108  85.384 113.516  0.00  0.00     0.028 C 
ATOM     12  C   LIG d   1       1.761  85.458 114.252  0.00  0.00     0.006 C 
ENDBRANCH   8  11
ENDBRANCH   7   8
ENDBRANCH   1   7
BRANCH   6  13
ATOM     13  N   LIG d   1       0.149  84.605 110.661  0.00  0.00    -0.311 N 
ATOM     14  C   LIG d   1       0.138  85.905 110.950  0.00  0.00     0.210 C 
ATOM     15  C   LIG d   1      -1.244  86.487 111.266  0.00  0.00     0.109 C 
ATOM     16  O   LIG d   1       1.138  86.639 110.944  0.00  0.00    -0.276 OA
ATOM     17  H   LIG d   1      -0.712  84.094 110.658  0.00  0.00     0.149 HD
ENDBRANCH   6  13
BRANCH   5  18
ATOM     18  N   LIG d   1       1.315  84.258 107.859  0.00  0.00     0.381 N 
ATOM     19  H   LIG d   1       0.927  83.861 107.026  0.00  0.00    -0.090 HD
ATOM     20  H   LIG d   1       2.252  84.558 107.657  0.00  0.00    -0.090 HD
ATOM     21  H   LIG d   1       0.765  85.035 108.153  0.00  0.00    -0.090 HD
ENDBRANCH   5  18
BRANCH   3  22
ATOM     22  C   LIG d   1       3.515  80.302 109.425  0.00  0.00     0.382 C 
ATOM     23  O   LIG d   1       4.765  80.243 109.513  0.00  0.00    -0.241 OA
ATOM     24  O   LIG d   1       2.882  79.313 109.010  0.00  0.00    -0.241 OA
ENDBRANCH   3  22
TORSDOF 7
ENDMDL
