MODEL 1
REMARK VINA RESULT:      -5.6      0.000      0.000
REMARK  7 active torsions:
REMARK  status: ('A' for Active; 'I' for Inactive)
REMARK    1  A    between atoms: C_2  and  C_3 
REMARK    2  A    between atoms: C_3  and  O_6 
REMARK    3  A    between atoms: C_3  and  C_4 
REMARK    4  A    between atoms: C_7  and  O_6 
REMARK    5  A    between atoms: C_9  and  C_10 
REMARK    6  A    between atoms: N_15  and  C_14 
REMARK    7  A    between atoms: N_20  and  C_19 
REMARK       I    between atoms: C_22  and  N_20 
ROOT
ATOM      1  C   LIG d   1      -0.195  83.782 112.788  0.00  0.00     0.161 C 
ATOM      2  C   LIG d   1       0.639  84.746 112.197  0.00  0.00     0.016 C 
ATOM      3  C   LIG d   1       1.145  84.636 110.882  0.00  0.00     0.038 C 
ATOM      4  C   LIG d   1       0.728  83.620 110.010  0.00  0.00     0.028 C 
ATOM      5  C   LIG d   1       0.283  82.350 110.727  0.00  0.00    -0.047 C 
ATOM      6  C   LIG d   1      -0.751  82.723 111.814  0.00  0.00     0.091 C 
ENDROOT
BRANCH   1   7
ATOM      7  O   LIG d   1      -1.273  84.433 113.490  0.00  0.00    -0.368 OA
BRANCH   7   8
ATOM      8  C   LIG d   1      -1.221  84.370 114.937  0.00  0.00     0.119 C 
BRANCH   8   9
ATOM      9  C   LIG d   1      -2.565  83.794 115.423  0.00  0.00     0.028 C 
ATOM     10  C   LIG d   1      -2.383  82.680 116.467  0.00  0.00     0.006 C 
ENDBRANCH   8   9
BRANCH   8  11
ATOM     11  C   LIG d   1      -1.133  85.770 115.552  0.00  0.00     0.028 C 
ATOM     12  C   LIG d   1       0.297  86.150 115.967  0.00  0.00     0.006 C 
ENDBRANCH   8  11
ENDBRANCH   7   8
ENDBRANCH   1   7
BRANCH   6  13
ATOM     13  N   LIG d   1      -1.175  81.549 112.620  0.00  0.00    -0.311 N 
ATOM     14  C   LIG d   1      -2.450  81.214 112.813  0.00  0.00     0.210 C 
ATOM     15  C   LIG d   1      -2.668  79.979 113.693  0.00  0.00     0.109 C 
ATOM     16  O   LIG d   1      -3.419  81.803 112.311  0.00  0.00    -0.276 OA
ATOM     17  H   LIG d   1      -0.452  80.997 113.038  0.00  0.00     0.149 HD
ENDBRANCH   6  13
BRANCH   5  18
ATOM     18  N   LIG d   1      -0.255  81.428 109.709  0.00  0.00     0.381 N 
ATOM     19  H   LIG d   1       0.498  80.982 109.225  0.00  0.00    -0.090 HD
ATOM     20  H   LIG d   1      -0.791  81.956 109.043  0.00  0.00    -0.090 HD
ATOM     21  H   LIG d   1      -0.833  80.742 110.143  0.00  0.00    -0.090 HD
ENDBRANCH   5  18
BRANCH   3  22
ATOM     22  C   LIG d   1       2.112  85.526 110.441  0.00  0.00     0.382 C 
ATOM     23  O   LIG d   1       1.806  86.721 110.212  0.00  0.00    -0.241 OA
ATOM     24  O   LIG d   1       3.277  85.139 110.226  0.00  0.00    -0.241 OA
ENDBRANCH   3  22
TORSDOF 7
ENDMDL
MODEL 2
REMARK VINA RESULT:      -5.3      8.838     12.627
REMARK  7 active torsions:
REMARK  status: ('A' for Active; 'I' for Inactive)
REMARK    1  A    between atoms: C_2  and  C_3 
REMARK    2  A    between atoms: C_3  and  O_6 
REMARK    3  A    between atoms: C_3  and  C_4 
REMARK    4  A    between atoms: C_7  and  O_6 
REMARK    5  A    between atoms: C_9  and  C_10 
REMARK    6  A    between atoms: N_15  and  C_14 
REMARK    7  A    between atoms: N_20  and  C_19 
REMARK       I    between atoms: C_22  and  N_20 
ROOT
ATOM      1  C   LIG d   1      -7.611  75.796 117.289  0.00  0.00     0.161 C 
ATOM      2  C   LIG d   1      -8.935  76.010 117.709  0.00  0.00     0.016 C 
ATOM      3  C   LIG d   1      -9.424  77.268 118.129  0.00  0.00     0.038 C 
ATOM      4  C   LIG d   1      -8.658  78.438 118.013  0.00  0.00     0.028 C 
ATOM      5  C   LIG d   1      -7.155  78.186 118.070  0.00  0.00    -0.047 C 
ATOM      6  C   LIG d   1      -6.792  77.082 117.050  0.00  0.00     0.091 C 
ENDROOT
BRANCH   1   7
ATOM      7  O   LIG d   1      -7.601  74.968 116.109  0.00  0.00    -0.368 OA
BRANCH   7   8
ATOM      8  C   LIG d   1      -7.188  73.593 116.299  0.00  0.00     0.119 C 
BRANCH   8   9
ATOM      9  C   LIG d   1      -6.171  73.258 115.191  0.00  0.00     0.028 C 
ATOM     10  C   LIG d   1      -5.809  74.484 114.336  0.00  0.00     0.006 C 
ENDBRANCH   8   9
BRANCH   8  11
ATOM     11  C   LIG d   1      -8.356  72.626 116.083  0.00  0.00     0.028 C 
ATOM     12  C   LIG d   1      -9.064  72.245 117.393  0.00  0.00     0.006 C 
ENDBRANCH   8  11
ENDBRANCH   7   8
ENDBRANCH   1   7
BRANCH   6  13
ATOM     13  N   LIG d   1      -5.353  76.714 117.101  0.00  0.00    -0.311 N 
ATOM     14  C   LIG d   1      -4.428  77.265 116.316  0.00  0.00     0.210 C 
ATOM     15  C   LIG d   1      -3.008  76.728 116.517  0.00  0.00     0.109 C 
ATOM     16  O   LIG d   1      -4.644  78.169 115.496  0.00  0.00    -0.276 OA
ATOM     17  H   LIG d   1      -5.085  76.010 117.760  0.00  0.00     0.149 HD
ENDBRANCH   6  13
BRANCH   5  18
ATOM     18  N   LIG d   1      -6.478  79.468 117.799  0.00  0.00     0.381 N 
ATOM     19  H   LIG d   1      -7.103  80.087 117.322  0.00  0.00    -0.090 HD
ATOM     20  H   LIG d   1      -5.687  79.298 117.202  0.00  0.00    -0.090 HD
ATOM     21  H   LIG d   1      -6.176  79.881 118.653  0.00  0.00    -0.090 HD
ENDBRANCH   5  18
BRANCH   3  22
ATOM     22  C   LIG d   1     -10.680  77.358 118.709  0.00  0.00     0.382 C 
ATOM     23  O   LIG d   1     -10.890  78.192 119.623  0.00  0.00    -0.241 OA
ATOM     24  O   LIG d   1     -11.594  76.586 118.361  0.00  0.00    -0.241 OA
ENDBRANCH   3  22
TORSDOF 7
ENDMDL
MODEL 3
REMARK VINA RESULT:      -5.2      2.390      4.852
REMARK  7 active torsions:
REMARK  status: ('A' for Active; 'I' for Inactive)
REMARK    1  A    between atoms: C_2  and  C_3 
REMARK    2  A    between atoms: C_3  and  O_6 
REMARK    3  A    between atoms: C_3  and  C_4 
REMARK    4  A    between atoms: C_7  and  O_6 
REMARK    5  A    between atoms: C_9  and  C_10 
REMARK    6  A    between atoms: N_15  and  C_14 
REMARK    7  A    between atoms: N_20  and  C_19 
REMARK       I    between atoms: C_22  and  N_20 
ROOT
ATOM      1  C   LIG d   1       0.232  83.551 110.319  0.00  0.00     0.161 C 
ATOM      2  C   LIG d   1       0.774  84.847 110.319  0.00  0.00     0.016 C 
ATOM      3  C   LIG d   1       0.870  85.650 111.478  0.00  0.00     0.038 C 
ATOM      4  C   LIG d   1       0.567  85.151 112.754  0.00  0.00     0.028 C 
ATOM      5  C   LIG d   1      -0.458  84.022 112.734  0.00  0.00    -0.047 C 
ATOM      6  C   LIG d   1      -0.002  82.948 111.719  0.00  0.00     0.091 C 
ENDROOT
BRANCH   1   7
ATOM      7  O   LIG d   1       1.059  82.676 109.527  0.00  0.00    -0.368 OA
BRANCH   7   8
ATOM      8  C   LIG d   1       2.290  82.229 110.148  0.00  0.00     0.119 C 
BRANCH   8   9
ATOM      9  C   LIG d   1       3.458  82.778 109.306  0.00  0.00     0.028 C 
ATOM     10  C   LIG d   1       4.295  83.816 110.072  0.00  0.00     0.006 C 
ENDBRANCH   8   9
BRANCH   8  11
ATOM     11  C   LIG d   1       2.425  80.705 110.084  0.00  0.00     0.028 C 
ATOM     12  C   LIG d   1       1.277  80.037 109.310  0.00  0.00     0.006 C 
ENDBRANCH   8  11
ENDBRANCH   7   8
ENDBRANCH   1   7
BRANCH   6  13
ATOM     13  N   LIG d   1      -0.991  81.847 111.576  0.00  0.00    -0.311 N 
ATOM     14  C   LIG d   1      -0.953  80.729 112.298  0.00  0.00     0.210 C 
ATOM     15  C   LIG d   1      -2.055  79.715 111.978  0.00  0.00     0.109 C 
ATOM     16  O   LIG d   1      -0.130  80.495 113.196  0.00  0.00    -0.276 OA
ATOM     17  H   LIG d   1      -1.711  81.968 110.892  0.00  0.00     0.149 HD
ENDBRANCH   6  13
BRANCH   5  18
ATOM     18  N   LIG d   1      -0.577  83.503 114.110  0.00  0.00     0.381 N 
ATOM     19  H   LIG d   1      -0.242  84.187 114.759  0.00  0.00    -0.090 HD
ATOM     20  H   LIG d   1      -0.009  82.680 114.197  0.00  0.00    -0.090 HD
ATOM     21  H   LIG d   1      -1.528  83.283 114.310  0.00  0.00    -0.090 HD
ENDBRANCH   5  18
BRANCH   3  22
ATOM     22  C   LIG d   1       1.236  86.983 111.363  0.00  0.00     0.382 C 
ATOM     23  O   LIG d   1       1.858  87.376 110.347  0.00  0.00    -0.241 OA
ATOM     24  O   LIG d   1       0.992  87.787 112.283  0.00  0.00    -0.241 OA
ENDBRANCH   3  22
TORSDOF 7
ENDMDL
MODEL 4
REMARK VINA RESULT:      -5.2      3.390      6.014
REMARK  7 active torsions:
REMARK  status: ('A' for Active; 'I' for Inactive)
REMARK    1  A    between atoms: C_2  and  C_3 
REMARK    2  A    between atoms: C_3  and  O_6 
REMARK    3  A    between atoms: C_3  and  C_4 
REMARK    4  A    between atoms: C_7  and  O_6 
REMARK    5  A    between atoms: C_9  and  C_10 
REMARK    6  A    between atoms: N_15  and  C_14 
REMARK    7  A    between atoms: N_20  and  C_19 
REMARK       I    between atoms: C_22  and  N_20 
ROOT
ATOM      1  C   LIG d   1       1.864  84.166 112.567  0.00  0.00     0.161 C 
ATOM      2  C   LIG d   1       1.490  82.885 112.128  0.00  0.00     0.016 C 
ATOM      3  C   LIG d   1       0.476  82.657 111.169  0.00  0.00     0.038 C 
ATOM      4  C   LIG d   1      -0.133  83.709 110.469  0.00  0.00     0.028 C 
ATOM      5  C   LIG d   1      -0.144  85.024 111.241  0.00  0.00    -0.047 C 
ATOM      6  C   LIG d   1       1.289  85.329 111.733  0.00  0.00     0.091 C 
ENDROOT
BRANCH   1   7
ATOM      7  O   LIG d   1       3.301  84.259 112.633  0.00  0.00    -0.368 OA
BRANCH   7   8
ATOM      8  C   LIG d   1       3.978  84.556 111.387  0.00  0.00     0.119 C 
BRANCH   8   9
ATOM      9  C   LIG d   1       4.974  83.412 111.117  0.00  0.00     0.028 C 
ATOM     10  C   LIG d   1       4.825  82.825 109.703  0.00  0.00     0.006 C 
ENDBRANCH   8   9
BRANCH   8  11
ATOM     11  C   LIG d   1       4.835  85.820 111.506  0.00  0.00     0.028 C 
ATOM     12  C   LIG d   1       4.869  86.384 112.935  0.00  0.00     0.006 C 
ENDBRANCH   8  11
ENDBRANCH   7   8
ENDBRANCH   1   7
BRANCH   6  13
ATOM     13  N   LIG d   1       1.351  86.556 112.569  0.00  0.00    -0.311 N 
ATOM     14  C   LIG d   1       1.712  87.748 112.096  0.00  0.00     0.210 C 
ATOM     15  C   LIG d   1       1.729  88.876 113.132  0.00  0.00     0.109 C 
ATOM     16  O   LIG d   1       1.989  87.984 110.911  0.00  0.00    -0.276 OA
ATOM     17  H   LIG d   1       1.113  86.461 113.537  0.00  0.00     0.149 HD
ENDBRANCH   6  13
BRANCH   5  18
ATOM     18  N   LIG d   1      -0.681  86.063 110.342  0.00  0.00     0.381 N 
ATOM     19  H   LIG d   1      -0.219  86.933 110.517  0.00  0.00    -0.090 HD
ATOM     20  H   LIG d   1      -1.661  86.183 110.532  0.00  0.00    -0.090 HD
ATOM     21  H   LIG d   1      -0.549  85.794 109.392  0.00  0.00    -0.090 HD
ENDBRANCH   5  18
BRANCH   3  22
ATOM     22  C   LIG d   1       0.033  81.364 110.932  0.00  0.00     0.382 C 
ATOM     23  O   LIG d   1      -1.123  81.024 111.281  0.00  0.00    -0.241 OA
ATOM     24  O   LIG d   1       0.790  80.522 110.413  0.00  0.00    -0.241 OA
ENDBRANCH   3  22
TORSDOF 7
ENDMDL
MODEL 5
REMARK VINA RESULT:      -5.2      4.373      6.159
REMARK  7 active torsions:
REMARK  status: ('A' for Active; 'I' for Inactive)
REMARK    1  A    between atoms: C_2  and  C_3 
REMARK    2  A    between atoms: C_3  and  O_6 
REMARK    3  A    between atoms: C_3  and  C_4 
REMARK    4  A    between atoms: C_7  and  O_6 
REMARK    5  A    between atoms: C_9  and  C_10 
REMARK    6  A    between atoms: N_15  and  C_14 
REMARK    7  A    between atoms: N_20  and  C_19 
REMARK       I    between atoms: C_22  and  N_20 
ROOT
ATOM      1  C   LIG d   1       2.904  86.022 112.071  0.00  0.00     0.161 C 
ATOM      2  C   LIG d   1       3.247  87.383 112.130  0.00  0.00     0.016 C 
ATOM      3  C   LIG d   1       4.165  87.914 113.065  0.00  0.00     0.038 C 
ATOM      4  C   LIG d   1       4.921  87.089 113.912  0.00  0.00     0.028 C 
ATOM      5  C   LIG d   1       4.240  85.763 114.233  0.00  0.00    -0.047 C 
ATOM      6  C   LIG d   1       3.802  85.091 112.912  0.00  0.00     0.091 C 
ENDROOT
BRANCH   1   7
ATOM      7  O   LIG d   1       2.877  85.584 110.698  0.00  0.00    -0.368 OA
BRANCH   7   8
ATOM      8  C   LIG d   1       1.622  85.030 110.230  0.00  0.00     0.119 C 
BRANCH   8   9
ATOM      9  C   LIG d   1       1.957  83.843 109.305  0.00  0.00     0.028 C 
ATOM     10  C   LIG d   1       3.395  83.335 109.500  0.00  0.00     0.006 C 
ENDBRANCH   8   9
BRANCH   8  11
ATOM     11  C   LIG d   1       0.865  86.029 109.351  0.00  0.00     0.028 C 
ATOM     12  C   LIG d   1      -0.520  86.387 109.913  0.00  0.00     0.006 C 
ENDBRANCH   8  11
ENDBRANCH   7   8
ENDBRANCH   1   7
BRANCH   6  13
ATOM     13  N   LIG d   1       3.053  83.828 113.140  0.00  0.00    -0.311 N 
ATOM     14  C   LIG d   1       3.620  82.623 113.110  0.00  0.00     0.210 C 
ATOM     15  C   LIG d   1       2.663  81.452 113.352  0.00  0.00     0.109 C 
ATOM     16  O   LIG d   1       4.830  82.416 112.938  0.00  0.00    -0.276 OA
ATOM     17  H   LIG d   1       2.071  83.906 113.318  0.00  0.00     0.149 HD
ENDBRANCH   6  13
BRANCH   5  18
ATOM     18  N   LIG d   1       5.195  84.948 115.008  0.00  0.00     0.381 N 
ATOM     19  H   LIG d   1       5.468  84.147 114.474  0.00  0.00    -0.090 HD
ATOM     20  H   LIG d   1       4.744  84.630 115.848  0.00  0.00    -0.090 HD
ATOM     21  H   LIG d   1       5.998  85.491 115.239  0.00  0.00    -0.090 HD
ENDBRANCH   5  18
BRANCH   3  22
ATOM     22  C   LIG d   1       4.304  89.288 113.188  0.00  0.00     0.382 C 
ATOM     23  O   LIG d   1       3.296  90.030 113.098  0.00  0.00    -0.241 OA
ATOM     24  O   LIG d   1       5.430  89.798 113.342  0.00  0.00    -0.241 OA
ENDBRANCH   3  22
TORSDOF 7
ENDMDL
MODEL 6
REMARK VINA RESULT:      -5.2      9.865     12.099
REMARK  7 active torsions:
REMARK  status: ('A' for Active; 'I' for Inactive)
REMARK    1  A    between atoms: C_2  and  C_3 
REMARK    2  A    between atoms: C_3  and  O_6 
REMARK    3  A    between atoms: C_3  and  C_4 
REMARK    4  A    between atoms: C_7  and  O_6 
REMARK    5  A    between atoms: C_9  and  C_10 
REMARK    6  A    between atoms: N_15  and  C_14 
REMARK    7  A    between atoms: N_20  and  C_19 
REMARK       I    between atoms: C_22  and  N_20 
ROOT
ATOM      1  C   LIG d   1      -7.394  76.279 116.829  0.00  0.00     0.161 C 
ATOM      2  C   LIG d   1      -6.832  77.527 117.145  0.00  0.00     0.016 C 
ATOM      3  C   LIG d   1      -7.513  78.522 117.883  0.00  0.00     0.038 C 
ATOM      4  C   LIG d   1      -8.754  78.277 118.490  0.00  0.00     0.028 C 
ATOM      5  C   LIG d   1      -9.577  77.211 117.775  0.00  0.00    -0.047 C 
ATOM      6  C   LIG d   1      -8.704  75.951 117.577  0.00  0.00     0.091 C 
ENDROOT
BRANCH   1   7
ATOM      7  O   LIG d   1      -6.421  75.237 117.043  0.00  0.00    -0.368 OA
BRANCH   7   8
ATOM      8  C   LIG d   1      -5.445  75.051 115.989  0.00  0.00     0.119 C 
BRANCH   8   9
ATOM      9  C   LIG d   1      -6.137  74.283 114.847  0.00  0.00     0.028 C 
ATOM     10  C   LIG d   1      -6.605  72.884 115.279  0.00  0.00     0.006 C 
ENDBRANCH   8   9
BRANCH   8  11
ATOM     11  C   LIG d   1      -4.296  74.148 116.447  0.00  0.00     0.028 C 
ATOM     12  C   LIG d   1      -3.003  74.377 115.649  0.00  0.00     0.006 C 
ENDBRANCH   8  11
ENDBRANCH   7   8
ENDBRANCH   1   7
BRANCH   6  13
ATOM     13  N   LIG d   1      -9.406  74.889 116.810  0.00  0.00    -0.311 N 
ATOM     14  C   LIG d   1      -9.566  73.646 117.259  0.00  0.00     0.210 C 
ATOM     15  C   LIG d   1     -10.302  72.703 116.302  0.00  0.00     0.109 C 
ATOM     16  O   LIG d   1      -9.197  73.242 118.372  0.00  0.00    -0.276 OA
ATOM     17  H   LIG d   1      -9.765  75.139 115.910  0.00  0.00     0.149 HD
ENDBRANCH   6  13
BRANCH   5  18
ATOM     18  N   LIG d   1     -10.781  76.958 118.589  0.00  0.00     0.381 N 
ATOM     19  H   LIG d   1     -11.388  76.324 118.108  0.00  0.00    -0.090 HD
ATOM     20  H   LIG d   1     -11.272  77.825 118.722  0.00  0.00    -0.090 HD
ATOM     21  H   LIG d   1     -10.522  76.576 119.472  0.00  0.00    -0.090 HD
ENDBRANCH   5  18
BRANCH   3  22
ATOM     22  C   LIG d   1      -6.968  79.794 117.987  0.00  0.00     0.382 C 
ATOM     23  O   LIG d   1      -6.651  80.426 116.951  0.00  0.00    -0.241 OA
ATOM     24  O   LIG d   1      -6.749  80.298 119.105  0.00  0.00    -0.241 OA
ENDBRANCH   3  22
TORSDOF 7
ENDMDL
MODEL 7
REMARK VINA RESULT:      -5.2      9.254     12.269
REMARK  7 active torsions:
REMARK  status: ('A' for Active; 'I' for Inactive)
REMARK    1  A    between atoms: C_2  and  C_3 
REMARK    2  A    between atoms: C_3  and  O_6 
REMARK    3  A    between atoms: C_3  and  C_4 
REMARK    4  A    between atoms: C_7  and  O_6 
REMARK    5  A    between atoms: C_9  and  C_10 
REMARK    6  A    between atoms: N_15  and  C_14 
REMARK    7  A    between atoms: N_20  and  C_19 
REMARK       I    between atoms: C_22  and  N_20 
ROOT
ATOM      1  C   LIG d   1      -6.750  75.513 116.956  0.00  0.00     0.161 C 
ATOM      2  C   LIG d   1      -8.122  75.577 117.252  0.00  0.00     0.016 C 
ATOM      3  C   LIG d   1      -9.024  74.520 116.994  0.00  0.00     0.038 C 
ATOM      4  C   LIG d   1      -8.585  73.261 116.557  0.00  0.00     0.028 C 
ATOM      5  C   LIG d   1      -7.281  73.314 115.768  0.00  0.00    -0.047 C 
ATOM      6  C   LIG d   1      -6.234  74.108 116.582  0.00  0.00     0.091 C 
ENDROOT
BRANCH   1   7
ATOM      7  O   LIG d   1      -5.987  76.051 118.054  0.00  0.00    -0.368 OA
BRANCH   7   8
ATOM      8  C   LIG d   1      -5.365  77.340 117.827  0.00  0.00     0.119 C 
BRANCH   8   9
ATOM      9  C   LIG d   1      -6.180  78.391 118.605  0.00  0.00     0.028 C 
ATOM     10  C   LIG d   1      -7.102  79.214 117.689  0.00  0.00     0.006 C 
ENDBRANCH   8   9
BRANCH   8  11
ATOM     11  C   LIG d   1      -5.465  77.756 116.356  0.00  0.00     0.028 C 
ATOM     12  C   LIG d   1      -4.094  77.849 115.668  0.00  0.00     0.006 C 
ENDBRANCH   8  11
ENDBRANCH   7   8
ENDBRANCH   1   7
BRANCH   6  13
ATOM     13  N   LIG d   1      -4.955  74.279 115.845  0.00  0.00    -0.311 N 
ATOM     14  C   LIG d   1      -3.761  74.037 116.383  0.00  0.00     0.210 C 
ATOM     15  C   LIG d   1      -2.569  74.297 115.457  0.00  0.00     0.109 C 
ATOM     16  O   LIG d   1      -3.577  73.600 117.529  0.00  0.00    -0.276 OA
ATOM     17  H   LIG d   1      -5.013  74.601 114.899  0.00  0.00     0.149 HD
ENDBRANCH   6  13
BRANCH   5  18
ATOM     18  N   LIG d   1      -6.869  71.924 115.495  0.00  0.00     0.381 N 
ATOM     19  H   LIG d   1      -7.537  71.290 115.884  0.00  0.00    -0.090 HD
ATOM     20  H   LIG d   1      -5.981  71.756 115.934  0.00  0.00    -0.090 HD
ATOM     21  H   LIG d   1      -6.795  71.778 114.512  0.00  0.00    -0.090 HD
ENDBRANCH   5  18
BRANCH   3  22
ATOM     22  C   LIG d   1     -10.387  74.730 117.135  0.00  0.00     0.382 C 
ATOM     23  O   LIG d   1     -11.201  73.879 116.700  0.00  0.00    -0.241 OA
ATOM     24  O   LIG d   1     -10.815  75.780 117.651  0.00  0.00    -0.241 OA
ENDBRANCH   3  22
TORSDOF 7
ENDMDL
MODEL 8
REMARK VINA RESULT:      -5.2      2.389      5.284
REMARK  7 active torsions:
REMARK  status: ('A' for Active; 'I' for Inactive)
REMARK    1  A    between atoms: C_2  and  C_3 
REMARK    2  A    between atoms: C_3  and  O_6 
REMARK    3  A    between atoms: C_3  and  C_4 
REMARK    4  A    between atoms: C_7  and  O_6 
REMARK    5  A    between atoms: C_9  and  C_10 
REMARK    6  A    between atoms: N_15  and  C_14 
REMARK    7  A    between atoms: N_20  and  C_19 
REMARK       I    between atoms: C_22  and  N_20 
ROOT
ATOM      1  C   LIG d   1       0.350  83.277 112.022  0.00  0.00     0.161 C 
ATOM      2  C   LIG d   1      -0.878  82.917 112.602  0.00  0.00     0.016 C 
ATOM      3  C   LIG d   1      -1.513  81.675 112.373  0.00  0.00     0.038 C 
ATOM      4  C   LIG d   1      -0.884  80.641 111.662  0.00  0.00     0.028 C 
ATOM      5  C   LIG d   1       0.130  81.140 110.639  0.00  0.00    -0.047 C 
ATOM      6  C   LIG d   1       1.103  82.120 111.333  0.00  0.00     0.091 C 
ENDROOT
BRANCH   1   7
ATOM      7  O   LIG d   1       1.191  83.905 113.009  0.00  0.00    -0.368 OA
BRANCH   7   8
ATOM      8  C   LIG d   1       1.213  85.354 112.999  0.00  0.00     0.119 C 
BRANCH   8   9
ATOM      9  C   LIG d   1       2.505  85.792 112.281  0.00  0.00     0.028 C 
ATOM     10  C   LIG d   1       2.238  86.317 110.860  0.00  0.00     0.006 C 
ENDBRANCH   8   9
BRANCH   8  11
ATOM     11  C   LIG d   1       1.326  85.920 114.417  0.00  0.00     0.028 C 
ATOM     12  C   LIG d   1       2.566  86.806 114.609  0.00  0.00     0.006 C 
ENDBRANCH   8  11
ENDBRANCH   7   8
ENDBRANCH   1   7
BRANCH   6  13
ATOM     13  N   LIG d   1       2.077  82.719 110.384  0.00  0.00    -0.311 N 
ATOM     14  C   LIG d   1       3.393  82.532 110.468  0.00  0.00     0.210 C 
ATOM     15  C   LIG d   1       4.219  83.257 109.401  0.00  0.00     0.109 C 
ATOM     16  O   LIG d   1       3.953  81.809 111.306  0.00  0.00    -0.276 OA
ATOM     17  H   LIG d   1       1.707  83.296 109.654  0.00  0.00     0.149 HD
ENDBRANCH   6  13
BRANCH   5  18
ATOM     18  N   LIG d   1       0.807  79.959 110.071  0.00  0.00     0.381 N 
ATOM     19  H   LIG d   1       0.319  79.648 109.254  0.00  0.00    -0.090 HD
ATOM     20  H   LIG d   1       0.791  79.217 110.749  0.00  0.00    -0.090 HD
ATOM     21  H   LIG d   1       1.749  80.185 109.837  0.00  0.00    -0.090 HD
ENDBRANCH   5  18
BRANCH   3  22
ATOM     22  C   LIG d   1      -2.808  81.471 112.824  0.00  0.00     0.382 C 
ATOM     23  O   LIG d   1      -3.290  80.313 112.844  0.00  0.00    -0.241 OA
ATOM     24  O   LIG d   1      -3.516  82.436 113.169  0.00  0.00    -0.241 OA
ENDBRANCH   3  22
TORSDOF 7
ENDMDL
MODEL 9
REMARK VINA RESULT:      -5.0      3.905      7.572
REMARK  7 active torsions:
REMARK  status: ('A' for Active; 'I' for Inactive)
REMARK    1  A    between atoms: C_2  and  C_3 
REMARK    2  A    between atoms: C_3  and  O_6 
REMARK    3  A    between atoms: C_3  and  C_4 
REMARK    4  A    between atoms: C_7  and  O_6 
REMARK    5  A    between atoms: C_9  and  C_10 
REMARK    6  A    between atoms: N_15  and  C_14 
REMARK    7  A    between atoms: N_20  and  C_19 
REMARK       I    between atoms: C_22  and  N_20 
ROOT
ATOM      1  C   LIG d   1       2.101  86.254 113.315  0.00  0.00     0.161 C 
ATOM      2  C   LIG d   1       0.926  85.667 113.814  0.00  0.00     0.016 C 
ATOM      3  C   LIG d   1       0.222  86.166 114.934  0.00  0.00     0.038 C 
ATOM      4  C   LIG d   1       0.565  87.383 115.544  0.00  0.00     0.028 C 
ATOM      5  C   LIG d   1       2.039  87.742 115.391  0.00  0.00    -0.047 C 
ATOM      6  C   LIG d   1       2.428  87.644 113.898  0.00  0.00     0.091 C 
ENDROOT
BRANCH   1   7
ATOM      7  O   LIG d   1       2.043  86.315 111.876  0.00  0.00    -0.368 OA
BRANCH   7   8
ATOM      8  C   LIG d   1       2.421  85.106 111.171  0.00  0.00     0.119 C 
BRANCH   8   9
ATOM      9  C   LIG d   1       3.938  85.176 110.913  0.00  0.00     0.028 C 
ATOM     10  C   LIG d   1       4.416  84.097 109.927  0.00  0.00     0.006 C 
ENDBRANCH   8   9
BRANCH   8  11
ATOM     11  C   LIG d   1       1.776  85.046 109.784  0.00  0.00     0.028 C 
ATOM     12  C   LIG d   1       0.763  86.178 109.548  0.00  0.00     0.006 C 
ENDBRANCH   8  11
ENDBRANCH   7   8
ENDBRANCH   1   7
BRANCH   6  13
ATOM     13  N   LIG d   1       3.874  87.899 113.671  0.00  0.00    -0.311 N 
ATOM     14  C   LIG d   1       4.361  89.080 113.296  0.00  0.00     0.210 C 
ATOM     15  C   LIG d   1       5.879  89.121 113.098  0.00  0.00     0.109 C 
ATOM     16  O   LIG d   1       3.683  90.107 113.140  0.00  0.00    -0.276 OA
ATOM     17  H   LIG d   1       4.499  87.128 113.806  0.00  0.00     0.149 HD
ENDBRANCH   6  13
BRANCH   5  18
ATOM     18  N   LIG d   1       2.228  89.094 115.951  0.00  0.00     0.381 N 
ATOM     19  H   LIG d   1       2.802  89.044 116.769  0.00  0.00    -0.090 HD
ATOM     20  H   LIG d   1       1.333  89.464 116.215  0.00  0.00    -0.090 HD
ATOM     21  H   LIG d   1       2.654  89.687 115.273  0.00  0.00    -0.090 HD
ENDBRANCH   5  18
BRANCH   3  22
ATOM     22  C   LIG d   1      -0.814  85.425 115.481  0.00  0.00     0.382 C 
ATOM     23  O   LIG d   1      -0.561  84.451 116.230  0.00  0.00    -0.241 OA
ATOM     24  O   LIG d   1      -1.998  85.690 115.199  0.00  0.00    -0.241 OA
ENDBRANCH   3  22
TORSDOF 7
ENDMDL
