MODEL 1
REMARK VINA RESULT:      -6.1      0.000      0.000
REMARK  7 active torsions:
REMARK  status: ('A' for Active; 'I' for Inactive)
REMARK    1  A    between atoms: C_2  and  C_3 
REMARK    2  A    between atoms: C_3  and  O_6 
REMARK    3  A    between atoms: C_3  and  C_4 
REMARK    4  A    between atoms: C_7  and  O_6 
REMARK    5  A    between atoms: C_9  and  C_10 
REMARK    6  A    between atoms: N_15  and  C_14 
REMARK    7  A    between atoms: N_20  and  C_19 
REMARK       I    between atoms: C_22  and  N_20 
ROOT
ATOM      1  C   LIG d   1       1.611  83.074 111.958  0.00  0.00     0.161 C 
ATOM      2  C   LIG d   1       2.581  82.616 111.051  0.00  0.00     0.016 C 
ATOM      3  C   LIG d   1       2.500  81.370 110.388  0.00  0.00     0.038 C 
ATOM      4  C   LIG d   1       1.359  80.558 110.473  0.00  0.00     0.028 C 
ATOM      5  C   LIG d   1       0.579  80.744 111.770  0.00  0.00    -0.047 C 
ATOM      6  C   LIG d   1       0.306  82.251 111.979  0.00  0.00     0.091 C 
ENDROOT
BRANCH   1   7
ATOM      7  O   LIG d   1       1.323  84.463 111.707  0.00  0.00    -0.368 OA
BRANCH   7   8
ATOM      8  C   LIG d   1       2.075  85.086 110.636  0.00  0.00     0.119 C 
BRANCH   8   9
ATOM      9  C   LIG d   1       2.863  86.261 111.247  0.00  0.00     0.028 C 
ATOM     10  C   LIG d   1       4.364  85.955 111.381  0.00  0.00     0.006 C 
ENDBRANCH   8   9
BRANCH   8  11
ATOM     11  C   LIG d   1       1.145  85.718 109.597  0.00  0.00     0.028 C 
ATOM     12  C   LIG d   1      -0.209  86.142 110.188  0.00  0.00     0.006 C 
ENDBRANCH   8  11
ENDBRANCH   7   8
ENDBRANCH   1   7
BRANCH   6  13
ATOM     13  N   LIG d   1      -0.381  82.529 113.268  0.00  0.00    -0.311 N 
ATOM     14  C   LIG d   1      -1.705  82.575 113.398  0.00  0.00     0.210 C 
ATOM     15  C   LIG d   1      -2.206  82.896 114.810  0.00  0.00     0.109 C 
ATOM     16  O   LIG d   1      -2.514  82.348 112.485  0.00  0.00    -0.276 OA
ATOM     17  H   LIG d   1       0.199  82.693 114.067  0.00  0.00     0.149 HD
ENDBRANCH   6  13
BRANCH   5  18
ATOM     18  N   LIG d   1      -0.655  79.942 111.666  0.00  0.00     0.381 N 
ATOM     19  H   LIG d   1      -1.412  80.522 111.365  0.00  0.00    -0.090 HD
ATOM     20  H   LIG d   1      -0.881  79.575 112.574  0.00  0.00    -0.090 HD
ATOM     21  H   LIG d   1      -0.523  79.194 111.021  0.00  0.00    -0.090 HD
ENDBRANCH   5  18
BRANCH   3  22
ATOM     22  C   LIG d   1       3.585  80.907 109.660  0.00  0.00     0.382 C 
ATOM     23  O   LIG d   1       3.685  79.686 109.391  0.00  0.00    -0.241 OA
ATOM     24  O   LIG d   1       4.489  81.689 109.307  0.00  0.00    -0.241 OA
ENDBRANCH   3  22
TORSDOF 7
ENDMDL
MODEL 2
REMARK VINA RESULT:      -5.7      3.219      5.438
REMARK  7 active torsions:
REMARK  status: ('A' for Active; 'I' for Inactive)
REMARK    1  A    between atoms: C_2  and  C_3 
REMARK    2  A    between atoms: C_3  and  O_6 
REMARK    3  A    between atoms: C_3  and  C_4 
REMARK    4  A    between atoms: C_7  and  O_6 
REMARK    5  A    between atoms: C_9  and  C_10 
REMARK    6  A    between atoms: N_15  and  C_14 
REMARK    7  A    between atoms: N_20  and  C_19 
REMARK       I    between atoms: C_22  and  N_20 
ROOT
ATOM      1  C   LIG d   1       1.584  84.646 112.788  0.00  0.00     0.161 C 
ATOM      2  C   LIG d   1       0.501  83.751 112.764  0.00  0.00     0.016 C 
ATOM      3  C   LIG d   1      -0.610  83.850 113.632  0.00  0.00     0.038 C 
ATOM      4  C   LIG d   1      -0.786  84.948 114.488  0.00  0.00     0.028 C 
ATOM      5  C   LIG d   1       0.524  85.609 114.904  0.00  0.00    -0.047 C 
ATOM      6  C   LIG d   1       1.356  85.913 113.638  0.00  0.00     0.091 C 
ENDROOT
BRANCH   1   7
ATOM      7  O   LIG d   1       1.951  85.005 111.441  0.00  0.00    -0.368 OA
BRANCH   7   8
ATOM      8  C   LIG d   1       1.018  84.619 110.402  0.00  0.00     0.119 C 
BRANCH   8   9
ATOM      9  C   LIG d   1       1.821  83.893 109.305  0.00  0.00     0.028 C 
ATOM     10  C   LIG d   1       3.318  83.796 109.641  0.00  0.00     0.006 C 
ENDBRANCH   8   9
BRANCH   8  11
ATOM     11  C   LIG d   1       0.410  85.845 109.715  0.00  0.00     0.028 C 
ATOM     12  C   LIG d   1      -0.836  86.378 110.441  0.00  0.00     0.006 C 
ENDBRANCH   8  11
ENDBRANCH   7   8
ENDBRANCH   1   7
BRANCH   6  13
ATOM     13  N   LIG d   1       2.690  86.484 113.961  0.00  0.00    -0.311 N 
ATOM     14  C   LIG d   1       3.234  87.501 113.294  0.00  0.00     0.210 C 
ATOM     15  C   LIG d   1       4.625  87.921 113.777  0.00  0.00     0.109 C 
ATOM     16  O   LIG d   1       2.681  88.116 112.370  0.00  0.00    -0.276 OA
ATOM     17  H   LIG d   1       3.195  86.065 114.717  0.00  0.00     0.149 HD
ENDBRANCH   6  13
BRANCH   5  18
ATOM     18  N   LIG d   1       0.187  86.817 115.679  0.00  0.00     0.381 N 
ATOM     19  H   LIG d   1      -0.601  87.276 115.266  0.00  0.00    -0.090 HD
ATOM     20  H   LIG d   1       0.968  87.448 115.654  0.00  0.00    -0.090 HD
ATOM     21  H   LIG d   1      -0.020  86.571 116.622  0.00  0.00    -0.090 HD
ENDBRANCH   5  18
BRANCH   3  22
ATOM     22  C   LIG d   1      -1.540  82.823 113.679  0.00  0.00     0.382 C 
ATOM     23  O   LIG d   1      -2.307  82.627 112.705  0.00  0.00    -0.241 OA
ATOM     24  O   LIG d   1      -1.652  82.118 114.699  0.00  0.00    -0.241 OA
ENDBRANCH   3  22
TORSDOF 7
ENDMDL
MODEL 3
REMARK VINA RESULT:      -5.6      2.612      4.663
REMARK  7 active torsions:
REMARK  status: ('A' for Active; 'I' for Inactive)
REMARK    1  A    between atoms: C_2  and  C_3 
REMARK    2  A    between atoms: C_3  and  O_6 
REMARK    3  A    between atoms: C_3  and  C_4 
REMARK    4  A    between atoms: C_7  and  O_6 
REMARK    5  A    between atoms: C_9  and  C_10 
REMARK    6  A    between atoms: N_15  and  C_14 
REMARK    7  A    between atoms: N_20  and  C_19 
REMARK       I    between atoms: C_22  and  N_20 
ROOT
ATOM      1  C   LIG d   1      -0.471  84.231 113.260  0.00  0.00     0.161 C 
ATOM      2  C   LIG d   1       0.290  85.244 112.653  0.00  0.00     0.016 C 
ATOM      3  C   LIG d   1       0.865  85.120 111.367  0.00  0.00     0.038 C 
ATOM      4  C   LIG d   1       0.591  84.026 110.534  0.00  0.00     0.028 C 
ATOM      5  C   LIG d   1       0.241  82.754 111.300  0.00  0.00    -0.047 C 
ATOM      6  C   LIG d   1      -0.874  83.075 112.322  0.00  0.00     0.091 C 
ENDROOT
BRANCH   1   7
ATOM      7  O   LIG d   1      -1.639  84.803 113.881  0.00  0.00    -0.368 OA
BRANCH   7   8
ATOM      8  C   LIG d   1      -1.642  84.832 115.330  0.00  0.00     0.119 C 
BRANCH   8   9
ATOM      9  C   LIG d   1      -0.246  84.383 115.804  0.00  0.00     0.028 C 
ATOM     10  C   LIG d   1       0.542  85.524 116.470  0.00  0.00     0.006 C 
ENDBRANCH   8   9
BRANCH   8  11
ATOM     11  C   LIG d   1      -2.616  83.800 115.906  0.00  0.00     0.028 C 
ATOM     12  C   LIG d   1      -1.970  82.900 116.970  0.00  0.00     0.006 C 
ENDBRANCH   8  11
ENDBRANCH   7   8
ENDBRANCH   1   7
BRANCH   6  13
ATOM     13  N   LIG d   1      -1.217  81.905 113.171  0.00  0.00    -0.311 N 
ATOM     14  C   LIG d   1      -2.463  81.469 113.351  0.00  0.00     0.210 C 
ATOM     15  C   LIG d   1      -2.597  80.260 114.282  0.00  0.00     0.109 C 
ATOM     16  O   LIG d   1      -3.466  81.949 112.801  0.00  0.00    -0.276 OA
ATOM     17  H   LIG d   1      -0.460  81.436 113.630  0.00  0.00     0.149 HD
ENDBRANCH   6  13
BRANCH   5  18
ATOM     18  N   LIG d   1      -0.156  81.734 110.312  0.00  0.00     0.381 N 
ATOM     19  H   LIG d   1      -1.057  81.957 109.938  0.00  0.00    -0.090 HD
ATOM     20  H   LIG d   1      -0.217  80.842 110.772  0.00  0.00    -0.090 HD
ATOM     21  H   LIG d   1       0.515  81.691 109.577  0.00  0.00    -0.090 HD
ENDBRANCH   5  18
BRANCH   3  22
ATOM     22  C   LIG d   1       1.759  86.081 110.919  0.00  0.00     0.382 C 
ATOM     23  O   LIG d   1       1.531  87.297 111.131  0.00  0.00    -0.241 OA
ATOM     24  O   LIG d   1       2.767  85.751 110.267  0.00  0.00    -0.241 OA
ENDBRANCH   3  22
TORSDOF 7
ENDMDL
MODEL 4
REMARK VINA RESULT:      -5.6      3.151      5.460
REMARK  7 active torsions:
REMARK  status: ('A' for Active; 'I' for Inactive)
REMARK    1  A    between atoms: C_2  and  C_3 
REMARK    2  A    between atoms: C_3  and  O_6 
REMARK    3  A    between atoms: C_3  and  C_4 
REMARK    4  A    between atoms: C_7  and  O_6 
REMARK    5  A    between atoms: C_9  and  C_10 
REMARK    6  A    between atoms: N_15  and  C_14 
REMARK    7  A    between atoms: N_20  and  C_19 
REMARK       I    between atoms: C_22  and  N_20 
ROOT
ATOM      1  C   LIG d   1       3.241  84.416 112.095  0.00  0.00     0.161 C 
ATOM      2  C   LIG d   1       3.649  85.655 112.617  0.00  0.00     0.016 C 
ATOM      3  C   LIG d   1       3.206  86.897 112.107  0.00  0.00     0.038 C 
ATOM      4  C   LIG d   1       2.201  86.982 111.132  0.00  0.00     0.028 C 
ATOM      5  C   LIG d   1       2.129  85.757 110.226  0.00  0.00    -0.047 C 
ATOM      6  C   LIG d   1       2.060  84.487 111.105  0.00  0.00     0.091 C 
ENDROOT
BRANCH   1   7
ATOM      7  O   LIG d   1       2.936  83.509 113.173  0.00  0.00    -0.368 OA
BRANCH   7   8
ATOM      8  C   LIG d   1       2.459  84.114 114.400  0.00  0.00     0.119 C 
BRANCH   8   9
ATOM      9  C   LIG d   1       3.040  83.302 115.574  0.00  0.00     0.028 C 
ATOM     10  C   LIG d   1       4.195  84.033 116.279  0.00  0.00     0.006 C 
ENDBRANCH   8   9
BRANCH   8  11
ATOM     11  C   LIG d   1       0.938  83.984 114.530  0.00  0.00     0.028 C 
ATOM     12  C   LIG d   1       0.204  85.311 114.283  0.00  0.00     0.006 C 
ENDBRANCH   8  11
ENDBRANCH   7   8
ENDBRANCH   1   7
BRANCH   6  13
ATOM     13  N   LIG d   1       2.072  83.239 110.299  0.00  0.00    -0.311 N 
ATOM     14  C   LIG d   1       1.058  82.376 110.268  0.00  0.00     0.210 C 
ATOM     15  C   LIG d   1       1.285  81.143 109.388  0.00  0.00     0.109 C 
ATOM     16  O   LIG d   1      -0.020  82.531 110.860  0.00  0.00    -0.276 OA
ATOM     17  H   LIG d   1       2.897  83.051 109.763  0.00  0.00     0.149 HD
ENDBRANCH   6  13
BRANCH   5  18
ATOM     18  N   LIG d   1       0.954  85.919 109.350  0.00  0.00     0.381 N 
ATOM     19  H   LIG d   1       0.776  86.892 109.198  0.00  0.00    -0.090 HD
ATOM     20  H   LIG d   1       0.152  85.518 109.804  0.00  0.00    -0.090 HD
ATOM     21  H   LIG d   1       1.114  85.464 108.478  0.00  0.00    -0.090 HD
ENDBRANCH   5  18
BRANCH   3  22
ATOM     22  C   LIG d   1       3.799  88.071 112.545  0.00  0.00     0.382 C 
ATOM     23  O   LIG d   1       5.050  88.162 112.592  0.00  0.00    -0.241 OA
ATOM     24  O   LIG d   1       3.100  89.024 112.937  0.00  0.00    -0.241 OA
ENDBRANCH   3  22
TORSDOF 7
ENDMDL
MODEL 5
REMARK VINA RESULT:      -5.6      2.557      5.424
REMARK  7 active torsions:
REMARK  status: ('A' for Active; 'I' for Inactive)
REMARK    1  A    between atoms: C_2  and  C_3 
REMARK    2  A    between atoms: C_3  and  O_6 
REMARK    3  A    between atoms: C_3  and  C_4 
REMARK    4  A    between atoms: C_7  and  O_6 
REMARK    5  A    between atoms: C_9  and  C_10 
REMARK    6  A    between atoms: N_15  and  C_14 
REMARK    7  A    between atoms: N_20  and  C_19 
REMARK       I    between atoms: C_22  and  N_20 
ROOT
ATOM      1  C   LIG d   1       0.771  83.426 111.756  0.00  0.00     0.161 C 
ATOM      2  C   LIG d   1      -0.323  82.585 112.020  0.00  0.00     0.016 C 
ATOM      3  C   LIG d   1      -1.280  82.847 113.028  0.00  0.00     0.038 C 
ATOM      4  C   LIG d   1      -1.291  84.052 113.745  0.00  0.00     0.028 C 
ATOM      5  C   LIG d   1       0.085  84.701 113.862  0.00  0.00    -0.047 C 
ATOM      6  C   LIG d   1       0.713  84.801 112.453  0.00  0.00     0.091 C 
ENDROOT
BRANCH   1   7
ATOM      7  O   LIG d   1       0.928  83.592 110.333  0.00  0.00    -0.368 OA
BRANCH   7   8
ATOM      8  C   LIG d   1       2.042  82.890 109.728  0.00  0.00     0.119 C 
BRANCH   8   9
ATOM      9  C   LIG d   1       1.537  81.497 109.306  0.00  0.00     0.028 C 
ATOM     10  C   LIG d   1       2.271  80.360 110.037  0.00  0.00     0.006 C 
ENDBRANCH   8   9
BRANCH   8  11
ATOM     11  C   LIG d   1       3.154  82.627 110.748  0.00  0.00     0.028 C 
ATOM     12  C   LIG d   1       4.439  83.414 110.446  0.00  0.00     0.006 C 
ENDBRANCH   8  11
ENDBRANCH   7   8
ENDBRANCH   1   7
BRANCH   6  13
ATOM     13  N   LIG d   1       2.095  85.347 112.486  0.00  0.00    -0.311 N 
ATOM     14  C   LIG d   1       2.462  86.453 111.842  0.00  0.00     0.210 C 
ATOM     15  C   LIG d   1       3.939  86.830 111.993  0.00  0.00     0.109 C 
ATOM     16  O   LIG d   1       1.697  87.176 111.185  0.00  0.00    -0.276 OA
ATOM     17  H   LIG d   1       2.773  84.841 113.021  0.00  0.00     0.149 HD
ENDBRANCH   6  13
BRANCH   5  18
ATOM     18  N   LIG d   1      -0.095  86.013 114.510  0.00  0.00     0.381 N 
ATOM     19  H   LIG d   1      -0.468  85.888 115.430  0.00  0.00    -0.090 HD
ATOM     20  H   LIG d   1      -0.751  86.554 113.974  0.00  0.00    -0.090 HD
ATOM     21  H   LIG d   1       0.778  86.491 114.560  0.00  0.00    -0.090 HD
ENDBRANCH   5  18
BRANCH   3  22
ATOM     22  C   LIG d   1      -2.215  81.877 113.355  0.00  0.00     0.382 C 
ATOM     23  O   LIG d   1      -3.401  81.993 112.962  0.00  0.00    -0.241 OA
ATOM     24  O   LIG d   1      -1.899  80.912 114.076  0.00  0.00    -0.241 OA
ENDBRANCH   3  22
TORSDOF 7
ENDMDL
MODEL 6
REMARK VINA RESULT:      -5.5      1.857      4.878
REMARK  7 active torsions:
REMARK  status: ('A' for Active; 'I' for Inactive)
REMARK    1  A    between atoms: C_2  and  C_3 
REMARK    2  A    between atoms: C_3  and  O_6 
REMARK    3  A    between atoms: C_3  and  C_4 
REMARK    4  A    between atoms: C_7  and  O_6 
REMARK    5  A    between atoms: C_9  and  C_10 
REMARK    6  A    between atoms: N_15  and  C_14 
REMARK    7  A    between atoms: N_20  and  C_19 
REMARK       I    between atoms: C_22  and  N_20 
ROOT
ATOM      1  C   LIG d   1       0.172  83.233 112.021  0.00  0.00     0.161 C 
ATOM      2  C   LIG d   1      -0.986  82.881 112.734  0.00  0.00     0.016 C 
ATOM      3  C   LIG d   1      -1.501  81.565 112.782  0.00  0.00     0.038 C 
ATOM      4  C   LIG d   1      -0.804  80.476 112.238  0.00  0.00     0.028 C 
ATOM      5  C   LIG d   1       0.108  80.859 111.078  0.00  0.00    -0.047 C 
ATOM      6  C   LIG d   1       1.007  82.038 111.514  0.00  0.00     0.091 C 
ENDROOT
BRANCH   1   7
ATOM      7  O   LIG d   1       0.989  84.113 112.818  0.00  0.00    -0.368 OA
BRANCH   7   8
ATOM      8  C   LIG d   1       0.865  85.528 112.534  0.00  0.00     0.119 C 
BRANCH   8   9
ATOM      9  C   LIG d   1       0.540  85.673 111.035  0.00  0.00     0.028 C 
ATOM     10  C   LIG d   1      -0.806  86.375 110.791  0.00  0.00     0.006 C 
ENDBRANCH   8   9
BRANCH   8  11
ATOM     11  C   LIG d   1       2.198  86.255 112.733  0.00  0.00     0.028 C 
ATOM     12  C   LIG d   1       2.893  86.599 111.406  0.00  0.00     0.006 C 
ENDBRANCH   8  11
ENDBRANCH   7   8
ENDBRANCH   1   7
BRANCH   6  13
ATOM     13  N   LIG d   1       1.872  82.530 110.410  0.00  0.00    -0.311 N 
ATOM     14  C   LIG d   1       3.158  82.838 110.568  0.00  0.00     0.210 C 
ATOM     15  C   LIG d   1       3.861  83.346 109.305  0.00  0.00     0.109 C 
ATOM     16  O   LIG d   1       3.791  82.709 111.626  0.00  0.00    -0.276 OA
ATOM     17  H   LIG d   1       1.447  82.635 109.510  0.00  0.00     0.149 HD
ENDBRANCH   6  13
BRANCH   5  18
ATOM     18  N   LIG d   1       0.875  79.657 110.699  0.00  0.00     0.381 N 
ATOM     19  H   LIG d   1       0.572  79.331 109.803  0.00  0.00    -0.090 HD
ATOM     20  H   LIG d   1       0.699  78.933 111.373  0.00  0.00    -0.090 HD
ATOM     21  H   LIG d   1       1.848  79.867 110.673  0.00  0.00    -0.090 HD
ENDBRANCH   5  18
BRANCH   3  22
ATOM     22  C   LIG d   1      -2.748  81.335 113.344  0.00  0.00     0.382 C 
ATOM     23  O   LIG d   1      -3.587  82.266 113.411  0.00  0.00    -0.241 OA
ATOM     24  O   LIG d   1      -3.028  80.221 113.824  0.00  0.00    -0.241 OA
ENDBRANCH   3  22
TORSDOF 7
ENDMDL
MODEL 7
REMARK VINA RESULT:      -5.5      1.755      5.071
REMARK  7 active torsions:
REMARK  status: ('A' for Active; 'I' for Inactive)
REMARK    1  A    between atoms: C_2  and  C_3 
REMARK    2  A    between atoms: C_3  and  O_6 
REMARK    3  A    between atoms: C_3  and  C_4 
REMARK    4  A    between atoms: C_7  and  O_6 
REMARK    5  A    between atoms: C_9  and  C_10 
REMARK    6  A    between atoms: N_15  and  C_14 
REMARK    7  A    between atoms: N_20  and  C_19 
REMARK       I    between atoms: C_22  and  N_20 
ROOT
ATOM      1  C   LIG d   1       0.084  82.758 111.180  0.00  0.00     0.161 C 
ATOM      2  C   LIG d   1      -0.832  83.334 112.077  0.00  0.00     0.016 C 
ATOM      3  C   LIG d   1      -0.727  83.212 113.482  0.00  0.00     0.038 C 
ATOM      4  C   LIG d   1       0.393  82.629 114.094  0.00  0.00     0.028 C 
ATOM      5  C   LIG d   1       1.091  81.593 113.219  0.00  0.00    -0.047 C 
ATOM      6  C   LIG d   1       1.372  82.214 111.832  0.00  0.00     0.091 C 
ENDROOT
BRANCH   1   7
ATOM      7  O   LIG d   1       0.408  83.702 110.141  0.00  0.00    -0.368 OA
BRANCH   7   8
ATOM      8  C   LIG d   1       1.130  84.887 110.559  0.00  0.00     0.119 C 
BRANCH   8   9
ATOM      9  C   LIG d   1       0.437  86.103 109.914  0.00  0.00     0.028 C 
ATOM     10  C   LIG d   1      -0.906  86.437 110.584  0.00  0.00     0.006 C 
ENDBRANCH   8   9
BRANCH   8  11
ATOM     11  C   LIG d   1       2.558  84.894 110.005  0.00  0.00     0.028 C 
ATOM     12  C   LIG d   1       3.588  85.417 111.019  0.00  0.00     0.006 C 
ENDBRANCH   8  11
ENDBRANCH   7   8
ENDBRANCH   1   7
BRANCH   6  13
ATOM     13  N   LIG d   1       1.977  81.240 110.887  0.00  0.00    -0.311 N 
ATOM     14  C   LIG d   1       3.285  81.171 110.643  0.00  0.00     0.210 C 
ATOM     15  C   LIG d   1       3.696  80.108 109.619  0.00  0.00     0.109 C 
ATOM     16  O   LIG d   1       4.146  81.867 111.201  0.00  0.00    -0.276 OA
ATOM     17  H   LIG d   1       1.354  80.616 110.414  0.00  0.00     0.149 HD
ENDBRANCH   6  13
BRANCH   5  18
ATOM     18  N   LIG d   1       2.316  81.169 113.922  0.00  0.00     0.381 N 
ATOM     19  H   LIG d   1       2.073  80.666 114.753  0.00  0.00    -0.090 HD
ATOM     20  H   LIG d   1       2.837  81.985 114.189  0.00  0.00    -0.090 HD
ATOM     21  H   LIG d   1       2.869  80.593 113.326  0.00  0.00    -0.090 HD
ENDBRANCH   5  18
BRANCH   3  22
ATOM     22  C   LIG d   1      -1.770  83.640 114.289  0.00  0.00     0.382 C 
ATOM     23  O   LIG d   1      -2.714  82.860 114.561  0.00  0.00    -0.241 OA
ATOM     24  O   LIG d   1      -1.801  84.812 114.712  0.00  0.00    -0.241 OA
ENDBRANCH   3  22
TORSDOF 7
ENDMDL
MODEL 8
REMARK VINA RESULT:      -5.4      2.259      3.611
REMARK  7 active torsions:
REMARK  status: ('A' for Active; 'I' for Inactive)
REMARK    1  A    between atoms: C_2  and  C_3 
REMARK    2  A    between atoms: C_3  and  O_6 
REMARK    3  A    between atoms: C_3  and  C_4 
REMARK    4  A    between atoms: C_7  and  O_6 
REMARK    5  A    between atoms: C_9  and  C_10 
REMARK    6  A    between atoms: N_15  and  C_14 
REMARK    7  A    between atoms: N_20  and  C_19 
REMARK       I    between atoms: C_22  and  N_20 
ROOT
ATOM      1  C   LIG d   1       0.409  82.816 113.215  0.00  0.00     0.161 C 
ATOM      2  C   LIG d   1       1.528  83.159 112.437  0.00  0.00     0.016 C 
ATOM      3  C   LIG d   1       1.921  82.445 111.283  0.00  0.00     0.038 C 
ATOM      4  C   LIG d   1       1.130  81.423 110.738  0.00  0.00     0.028 C 
ATOM      5  C   LIG d   1       0.261  80.713 111.771  0.00  0.00    -0.047 C 
ATOM      6  C   LIG d   1      -0.529  81.772 112.574  0.00  0.00     0.091 C 
ENDROOT
BRANCH   1   7
ATOM      7  O   LIG d   1      -0.327  84.005 113.563  0.00  0.00    -0.368 OA
BRANCH   7   8
ATOM      8  C   LIG d   1      -0.237  84.429 114.946  0.00  0.00     0.119 C 
BRANCH   8   9
ATOM      9  C   LIG d   1      -1.653  84.350 115.548  0.00  0.00     0.028 C 
ATOM     10  C   LIG d   1      -1.712  83.449 116.793  0.00  0.00     0.006 C 
ENDBRANCH   8   9
BRANCH   8  11
ATOM     11  C   LIG d   1       0.167  85.903 115.051  0.00  0.00     0.028 C 
ATOM     12  C   LIG d   1       0.860  86.237 116.381  0.00  0.00     0.006 C 
ENDBRANCH   8  11
ENDBRANCH   7   8
ENDBRANCH   1   7
BRANCH   6  13
ATOM     13  N   LIG d   1      -1.341  81.169 113.662  0.00  0.00    -0.311 N 
ATOM     14  C   LIG d   1      -2.663  81.307 113.753  0.00  0.00     0.210 C 
ATOM     15  C   LIG d   1      -3.302  80.620 114.964  0.00  0.00     0.109 C 
ATOM     16  O   LIG d   1      -3.370  81.905 112.929  0.00  0.00    -0.276 OA
ATOM     17  H   LIG d   1      -0.851  80.640 114.357  0.00  0.00     0.149 HD
ENDBRANCH   6  13
BRANCH   5  18
ATOM     18  N   LIG d   1      -0.610  79.768 111.047  0.00  0.00     0.381 N 
ATOM     19  H   LIG d   1      -0.358  78.829 111.279  0.00  0.00    -0.090 HD
ATOM     20  H   LIG d   1      -0.478  79.896 110.059  0.00  0.00    -0.090 HD
ATOM     21  H   LIG d   1      -1.564  79.932 111.286  0.00  0.00    -0.090 HD
ENDBRANCH   5  18
BRANCH   3  22
ATOM     22  C   LIG d   1       3.139  82.725 110.683  0.00  0.00     0.382 C 
ATOM     23  O   LIG d   1       3.214  82.833 109.435  0.00  0.00    -0.241 OA
ATOM     24  O   LIG d   1       4.173  82.828 111.370  0.00  0.00    -0.241 OA
ENDBRANCH   3  22
TORSDOF 7
ENDMDL
MODEL 9
REMARK VINA RESULT:      -5.4      1.966      3.527
REMARK  7 active torsions:
REMARK  status: ('A' for Active; 'I' for Inactive)
REMARK    1  A    between atoms: C_2  and  C_3 
REMARK    2  A    between atoms: C_3  and  O_6 
REMARK    3  A    between atoms: C_3  and  C_4 
REMARK    4  A    between atoms: C_7  and  O_6 
REMARK    5  A    between atoms: C_9  and  C_10 
REMARK    6  A    between atoms: N_15  and  C_14 
REMARK    7  A    between atoms: N_20  and  C_19 
REMARK       I    between atoms: C_22  and  N_20 
ROOT
ATOM      1  C   LIG d   1       1.142  82.080 112.813  0.00  0.00     0.161 C 
ATOM      2  C   LIG d   1       1.953  82.978 112.100  0.00  0.00     0.016 C 
ATOM      3  C   LIG d   1       2.036  83.000 110.688  0.00  0.00     0.038 C 
ATOM      4  C   LIG d   1       1.193  82.219 109.884  0.00  0.00     0.028 C 
ATOM      5  C   LIG d   1       0.720  80.940 110.565  0.00  0.00    -0.047 C 
ATOM      6  C   LIG d   1       0.131  81.296 111.949  0.00  0.00     0.091 C 
ENDROOT
BRANCH   1   7
ATOM      7  O   LIG d   1       0.460  82.775 113.875  0.00  0.00    -0.368 OA
BRANCH   7   8
ATOM      8  C   LIG d   1      -0.799  83.401 113.523  0.00  0.00     0.119 C 
BRANCH   8   9
ATOM      9  C   LIG d   1      -0.559  84.922 113.465  0.00  0.00     0.028 C 
ATOM     10  C   LIG d   1      -0.745  85.492 112.048  0.00  0.00     0.006 C 
ENDBRANCH   8   9
BRANCH   8  11
ATOM     11  C   LIG d   1      -1.848  83.197 114.619  0.00  0.00     0.028 C 
ATOM     12  C   LIG d   1      -1.518  83.964 115.910  0.00  0.00     0.006 C 
ENDBRANCH   8  11
ENDBRANCH   7   8
ENDBRANCH   1   7
BRANCH   6  13
ATOM     13  N   LIG d   1      -0.278  80.092 112.718  0.00  0.00    -0.311 N 
ATOM     14  C   LIG d   1      -1.548  79.781 112.972  0.00  0.00     0.210 C 
ATOM     15  C   LIG d   1      -1.749  78.507 113.799  0.00  0.00     0.109 C 
ATOM     16  O   LIG d   1      -2.528  80.422 112.564  0.00  0.00    -0.276 OA
ATOM     17  H   LIG d   1       0.453  79.499 113.061  0.00  0.00     0.149 HD
ENDBRANCH   6  13
BRANCH   5  18
ATOM     18  N   LIG d   1      -0.258  80.293 109.670  0.00  0.00     0.381 N 
ATOM     19  H   LIG d   1      -0.645  79.486 110.117  0.00  0.00    -0.090 HD
ATOM     20  H   LIG d   1       0.214  79.995 108.835  0.00  0.00    -0.090 HD
ATOM     21  H   LIG d   1      -0.985  80.934 109.439  0.00  0.00    -0.090 HD
ENDBRANCH   5  18
BRANCH   3  22
ATOM     22  C   LIG d   1       2.999  83.781 110.069  0.00  0.00     0.382 C 
ATOM     23  O   LIG d   1       3.001  85.025 110.236  0.00  0.00    -0.241 OA
ATOM     24  O   LIG d   1       3.840  83.264 109.309  0.00  0.00    -0.241 OA
ENDBRANCH   3  22
TORSDOF 7
ENDMDL
