MODEL 1
REMARK VINA RESULT:      -6.2      0.000      0.000
REMARK  7 active torsions:
REMARK  status: ('A' for Active; 'I' for Inactive)
REMARK    1  A    between atoms: C_2  and  C_3 
REMARK    2  A    between atoms: C_3  and  O_6 
REMARK    3  A    between atoms: C_3  and  C_4 
REMARK    4  A    between atoms: C_7  and  O_6 
REMARK    5  A    between atoms: C_9  and  C_10 
REMARK    6  A    between atoms: N_15  and  C_14 
REMARK    7  A    between atoms: N_20  and  C_19 
REMARK       I    between atoms: C_22  and  N_20 
ROOT
ATOM      1  C   LIG d   1       1.385  83.116 112.170  0.00  0.00     0.161 C 
ATOM      2  C   LIG d   1       2.416  82.865 111.250  0.00  0.00     0.016 C 
ATOM      3  C   LIG d   1       2.442  81.736 110.399  0.00  0.00     0.038 C 
ATOM      4  C   LIG d   1       1.356  80.854 110.304  0.00  0.00     0.028 C 
ATOM      5  C   LIG d   1       0.517  80.787 111.576  0.00  0.00    -0.047 C 
ATOM      6  C   LIG d   1       0.138  82.224 112.003  0.00  0.00     0.091 C 
ENDROOT
BRANCH   1   7
ATOM      7  O   LIG d   1       1.016  84.508 112.123  0.00  0.00    -0.368 OA
BRANCH   7   8
ATOM      8  C   LIG d   1       1.599  85.286 111.049  0.00  0.00     0.119 C 
BRANCH   8   9
ATOM      9  C   LIG d   1       2.171  86.576 111.669  0.00  0.00     0.028 C 
ATOM     10  C   LIG d   1       3.645  86.424 112.081  0.00  0.00     0.006 C 
ENDBRANCH   8   9
BRANCH   8  11
ATOM     11  C   LIG d   1       0.531  85.753 110.055  0.00  0.00     0.028 C 
ATOM     12  C   LIG d   1      -0.851  85.930 110.706  0.00  0.00     0.006 C 
ENDBRANCH   8  11
ENDBRANCH   7   8
ENDBRANCH   1   7
BRANCH   6  13
ATOM     13  N   LIG d   1      -0.613  82.255 113.285  0.00  0.00    -0.311 N 
ATOM     14  C   LIG d   1      -1.942  82.202 113.359  0.00  0.00     0.210 C 
ATOM     15  C   LIG d   1      -2.514  82.267 114.778  0.00  0.00     0.109 C 
ATOM     16  O   LIG d   1      -2.699  82.074 112.385  0.00  0.00    -0.276 OA
ATOM     17  H   LIG d   1      -0.075  82.325 114.127  0.00  0.00     0.149 HD
ENDBRANCH   6  13
BRANCH   5  18
ATOM     18  N   LIG d   1      -0.656  79.939 111.293  0.00  0.00     0.381 N 
ATOM     19  H   LIG d   1      -0.740  79.231 111.995  0.00  0.00    -0.090 HD
ATOM     20  H   LIG d   1      -0.524  79.489 110.404  0.00  0.00    -0.090 HD
ATOM     21  H   LIG d   1      -1.482  80.496 111.272  0.00  0.00    -0.090 HD
ENDBRANCH   5  18
BRANCH   3  22
ATOM     22  C   LIG d   1       3.582  81.459 109.660  0.00  0.00     0.382 C 
ATOM     23  O   LIG d   1       4.342  82.392 109.305  0.00  0.00    -0.241 OA
ATOM     24  O   LIG d   1       3.837  80.292 109.306  0.00  0.00    -0.241 OA
ENDBRANCH   3  22
TORSDOF 7
ENDMDL
MODEL 2
REMARK VINA RESULT:      -6.2      2.701      5.131
REMARK  7 active torsions:
REMARK  status: ('A' for Active; 'I' for Inactive)
REMARK    1  A    between atoms: C_2  and  C_3 
REMARK    2  A    between atoms: C_3  and  O_6 
REMARK    3  A    between atoms: C_3  and  C_4 
REMARK    4  A    between atoms: C_7  and  O_6 
REMARK    5  A    between atoms: C_9  and  C_10 
REMARK    6  A    between atoms: N_15  and  C_14 
REMARK    7  A    between atoms: N_20  and  C_19 
REMARK       I    between atoms: C_22  and  N_20 
ROOT
ATOM      1  C   LIG d   1       2.669  83.964 112.298  0.00  0.00     0.161 C 
ATOM      2  C   LIG d   1       3.067  85.214 112.801  0.00  0.00     0.016 C 
ATOM      3  C   LIG d   1       2.656  86.445 112.241  0.00  0.00     0.038 C 
ATOM      4  C   LIG d   1       1.692  86.512 111.224  0.00  0.00     0.028 C 
ATOM      5  C   LIG d   1       1.645  85.263 110.350  0.00  0.00    -0.047 C 
ATOM      6  C   LIG d   1       1.529  84.018 111.259  0.00  0.00     0.091 C 
ENDROOT
BRANCH   1   7
ATOM      7  O   LIG d   1       2.314  83.089 113.387  0.00  0.00    -0.368 OA
BRANCH   7   8
ATOM      8  C   LIG d   1       1.117  83.442 114.123  0.00  0.00     0.119 C 
BRANCH   8   9
ATOM      9  C   LIG d   1       1.539  83.745 115.574  0.00  0.00     0.028 C 
ATOM     10  C   LIG d   1       0.374  83.595 116.567  0.00  0.00     0.006 C 
ENDBRANCH   8   9
BRANCH   8  11
ATOM     11  C   LIG d   1       0.153  82.257 114.220  0.00  0.00     0.028 C 
ATOM     12  C   LIG d   1       0.825  80.913 113.896  0.00  0.00     0.006 C 
ENDBRANCH   8  11
ENDBRANCH   7   8
ENDBRANCH   1   7
BRANCH   6  13
ATOM     13  N   LIG d   1       1.562  82.748 110.488  0.00  0.00    -0.311 N 
ATOM     14  C   LIG d   1       0.515  81.934 110.372  0.00  0.00     0.210 C 
ATOM     15  C   LIG d   1       0.769  80.667 109.549  0.00  0.00     0.109 C 
ATOM     16  O   LIG d   1      -0.610  82.156 110.844  0.00  0.00    -0.276 OA
ATOM     17  H   LIG d   1       2.427  82.506 110.046  0.00  0.00     0.149 HD
ENDBRANCH   6  13
BRANCH   5  18
ATOM     18  N   LIG d   1       0.507  85.410 109.423  0.00  0.00     0.381 N 
ATOM     19  H   LIG d   1       0.423  86.366 109.139  0.00  0.00    -0.090 HD
ATOM     20  H   LIG d   1      -0.337  85.149 109.901  0.00  0.00    -0.090 HD
ATOM     21  H   LIG d   1       0.640  84.829 108.625  0.00  0.00    -0.090 HD
ENDBRANCH   5  18
BRANCH   3  22
ATOM     22  C   LIG d   1       3.243  87.626 112.671  0.00  0.00     0.382 C 
ATOM     23  O   LIG d   1       2.536  88.646 112.855  0.00  0.00    -0.241 OA
ATOM     24  O   LIG d   1       4.476  87.696 112.834  0.00  0.00    -0.241 OA
ENDBRANCH   3  22
TORSDOF 7
ENDMDL
MODEL 3
REMARK VINA RESULT:      -6.1      3.087      4.658
REMARK  7 active torsions:
REMARK  status: ('A' for Active; 'I' for Inactive)
REMARK    1  A    between atoms: C_2  and  C_3 
REMARK    2  A    between atoms: C_3  and  O_6 
REMARK    3  A    between atoms: C_3  and  C_4 
REMARK    4  A    between atoms: C_7  and  O_6 
REMARK    5  A    between atoms: C_9  and  C_10 
REMARK    6  A    between atoms: N_15  and  C_14 
REMARK    7  A    between atoms: N_20  and  C_19 
REMARK       I    between atoms: C_22  and  N_20 
ROOT
ATOM      1  C   LIG d   1       0.261  83.610 112.715  0.00  0.00     0.161 C 
ATOM      2  C   LIG d   1      -0.940  82.979 112.351  0.00  0.00     0.016 C 
ATOM      3  C   LIG d   1      -1.674  82.143 113.223  0.00  0.00     0.038 C 
ATOM      4  C   LIG d   1      -1.334  82.002 114.577  0.00  0.00     0.028 C 
ATOM      5  C   LIG d   1       0.150  82.217 114.853  0.00  0.00    -0.047 C 
ATOM      6  C   LIG d   1       0.589  83.557 114.221  0.00  0.00     0.091 C 
ENDROOT
BRANCH   1   7
ATOM      7  O   LIG d   1       0.255  84.975 112.251  0.00  0.00    -0.368 OA
BRANCH   7   8
ATOM      8  C   LIG d   1       1.160  85.282 111.162  0.00  0.00     0.119 C 
BRANCH   8   9
ATOM      9  C   LIG d   1       1.963  86.534 111.566  0.00  0.00     0.028 C 
ATOM     10  C   LIG d   1       3.451  86.226 111.803  0.00  0.00     0.006 C 
ENDBRANCH   8   9
BRANCH   8  11
ATOM     11  C   LIG d   1       0.395  85.682 109.897  0.00  0.00     0.028 C 
ATOM     12  C   LIG d   1      -1.004  86.244 110.200  0.00  0.00     0.006 C 
ENDBRANCH   8  11
ENDBRANCH   7   8
ENDBRANCH   1   7
BRANCH   6  13
ATOM     13  N   LIG d   1       2.047  83.805 114.373  0.00  0.00    -0.311 N 
ATOM     14  C   LIG d   1       2.568  84.539 115.355  0.00  0.00     0.210 C 
ATOM     15  C   LIG d   1       4.092  84.685 115.315  0.00  0.00     0.109 C 
ATOM     16  O   LIG d   1       1.915  85.056 116.274  0.00  0.00    -0.276 OA
ATOM     17  H   LIG d   1       2.653  83.396 113.689  0.00  0.00     0.149 HD
ENDBRANCH   6  13
BRANCH   5  18
ATOM     18  N   LIG d   1       0.341  82.177 116.316  0.00  0.00     0.381 N 
ATOM     19  H   LIG d   1      -0.498  81.860 116.758  0.00  0.00    -0.090 HD
ATOM     20  H   LIG d   1       0.540  83.106 116.643  0.00  0.00    -0.090 HD
ATOM     21  H   LIG d   1       1.096  81.568 116.544  0.00  0.00    -0.090 HD
ENDBRANCH   5  18
BRANCH   3  22
ATOM     22  C   LIG d   1      -2.741  81.405 112.732  0.00  0.00     0.382 C 
ATOM     23  O   LIG d   1      -3.901  81.882 112.765  0.00  0.00    -0.241 OA
ATOM     24  O   LIG d   1      -2.564  80.251 112.297  0.00  0.00    -0.241 OA
ENDBRANCH   3  22
TORSDOF 7
ENDMDL
MODEL 4
REMARK VINA RESULT:      -6.0      2.125      5.162
REMARK  7 active torsions:
REMARK  status: ('A' for Active; 'I' for Inactive)
REMARK    1  A    between atoms: C_2  and  C_3 
REMARK    2  A    between atoms: C_3  and  O_6 
REMARK    3  A    between atoms: C_3  and  C_4 
REMARK    4  A    between atoms: C_7  and  O_6 
REMARK    5  A    between atoms: C_9  and  C_10 
REMARK    6  A    between atoms: N_15  and  C_14 
REMARK    7  A    between atoms: N_20  and  C_19 
REMARK       I    between atoms: C_22  and  N_20 
ROOT
ATOM      1  C   LIG d   1       0.537  82.236 112.486  0.00  0.00     0.161 C 
ATOM      2  C   LIG d   1      -0.701  82.013 113.111  0.00  0.00     0.016 C 
ATOM      3  C   LIG d   1      -1.640  81.058 112.657  0.00  0.00     0.038 C 
ATOM      4  C   LIG d   1      -1.338  80.150 111.631  0.00  0.00     0.028 C 
ATOM      5  C   LIG d   1      -0.300  80.674 110.645  0.00  0.00    -0.047 C 
ATOM      6  C   LIG d   1       0.931  81.179 111.433  0.00  0.00     0.091 C 
ENDROOT
BRANCH   1   7
ATOM      7  O   LIG d   1       1.571  82.361 113.482  0.00  0.00    -0.368 OA
BRANCH   7   8
ATOM      8  C   LIG d   1       1.784  83.690 114.018  0.00  0.00     0.119 C 
BRANCH   8   9
ATOM      9  C   LIG d   1       3.143  84.190 113.491  0.00  0.00     0.028 C 
ATOM     10  C   LIG d   1       3.022  84.886 112.125  0.00  0.00     0.006 C 
ENDBRANCH   8   9
BRANCH   8  11
ATOM     11  C   LIG d   1       1.926  83.659 115.543  0.00  0.00     0.028 C 
ATOM     12  C   LIG d   1       0.571  83.650 116.268  0.00  0.00     0.006 C 
ENDBRANCH   8  11
ENDBRANCH   7   8
ENDBRANCH   1   7
BRANCH   6  13
ATOM     13  N   LIG d   1       1.960  81.787 110.549  0.00  0.00    -0.311 N 
ATOM     14  C   LIG d   1       3.189  81.293 110.409  0.00  0.00     0.210 C 
ATOM     15  C   LIG d   1       4.099  82.084 109.464  0.00  0.00     0.109 C 
ATOM     16  O   LIG d   1       3.602  80.258 110.953  0.00  0.00    -0.276 OA
ATOM     17  H   LIG d   1       1.699  82.612 110.046  0.00  0.00     0.149 HD
ENDBRANCH   6  13
BRANCH   5  18
ATOM     18  N   LIG d   1       0.022  79.578 109.712  0.00  0.00     0.381 N 
ATOM     19  H   LIG d   1       0.699  79.889 109.044  0.00  0.00    -0.090 HD
ATOM     20  H   LIG d   1      -0.813  79.318 109.216  0.00  0.00    -0.090 HD
ATOM     21  H   LIG d   1       0.376  78.795 110.215  0.00  0.00    -0.090 HD
ENDBRANCH   5  18
BRANCH   3  22
ATOM     22  C   LIG d   1      -2.913  81.031 113.207  0.00  0.00     0.382 C 
ATOM     23  O   LIG d   1      -3.794  81.818 112.786  0.00  0.00    -0.241 OA
ATOM     24  O   LIG d   1      -3.179  80.260 114.148  0.00  0.00    -0.241 OA
ENDBRANCH   3  22
TORSDOF 7
ENDMDL
MODEL 5
REMARK VINA RESULT:      -5.9      2.771      5.426
REMARK  7 active torsions:
REMARK  status: ('A' for Active; 'I' for Inactive)
REMARK    1  A    between atoms: C_2  and  C_3 
REMARK    2  A    between atoms: C_3  and  O_6 
REMARK    3  A    between atoms: C_3  and  C_4 
REMARK    4  A    between atoms: C_7  and  O_6 
REMARK    5  A    between atoms: C_9  and  C_10 
REMARK    6  A    between atoms: N_15  and  C_14 
REMARK    7  A    between atoms: N_20  and  C_19 
REMARK       I    between atoms: C_22  and  N_20 
ROOT
ATOM      1  C   LIG d   1       2.304  85.490 111.879  0.00  0.00     0.161 C 
ATOM      2  C   LIG d   1       2.476  86.859 112.146  0.00  0.00     0.016 C 
ATOM      3  C   LIG d   1       3.158  87.350 113.283  0.00  0.00     0.038 C 
ATOM      4  C   LIG d   1       3.851  86.499 114.157  0.00  0.00     0.028 C 
ATOM      5  C   LIG d   1       3.280  85.086 114.205  0.00  0.00    -0.047 C 
ATOM      6  C   LIG d   1       3.149  84.548 112.762  0.00  0.00     0.091 C 
ENDROOT
BRANCH   1   7
ATOM      7  O   LIG d   1       2.557  85.229 110.484  0.00  0.00    -0.368 OA
BRANCH   7   8
ATOM      8  C   LIG d   1       1.408  84.849 109.688  0.00  0.00     0.119 C 
BRANCH   8   9
ATOM      9  C   LIG d   1       0.159  84.994 110.579  0.00  0.00     0.028 C 
ATOM     10  C   LIG d   1      -0.821  86.054 110.048  0.00  0.00     0.006 C 
ENDBRANCH   8   9
BRANCH   8  11
ATOM     11  C   LIG d   1       1.462  83.367 109.305  0.00  0.00     0.028 C 
ATOM     12  C   LIG d   1       2.891  82.803 109.307  0.00  0.00     0.006 C 
ENDBRANCH   8  11
ENDBRANCH   7   8
ENDBRANCH   1   7
BRANCH   6  13
ATOM     13  N   LIG d   1       2.519  83.202 112.714  0.00  0.00    -0.311 N 
ATOM     14  C   LIG d   1       1.346  82.921 113.277  0.00  0.00     0.210 C 
ATOM     15  C   LIG d   1       0.888  81.467 113.127  0.00  0.00     0.109 C 
ATOM     16  O   LIG d   1       0.625  83.746 113.860  0.00  0.00    -0.276 OA
ATOM     17  H   LIG d   1       3.021  82.481 112.234  0.00  0.00     0.149 HD
ENDBRANCH   6  13
BRANCH   5  18
ATOM     18  N   LIG d   1       4.178  84.271 115.046  0.00  0.00     0.381 N 
ATOM     19  H   LIG d   1       5.105  84.294 114.672  0.00  0.00    -0.090 HD
ATOM     20  H   LIG d   1       3.857  83.319 115.037  0.00  0.00    -0.090 HD
ATOM     21  H   LIG d   1       4.180  84.620 115.980  0.00  0.00    -0.090 HD
ENDBRANCH   5  18
BRANCH   3  22
ATOM     22  C   LIG d   1       3.118  88.704 113.576  0.00  0.00     0.382 C 
ATOM     23  O   LIG d   1       2.226  89.156 114.334  0.00  0.00    -0.241 OA
ATOM     24  O   LIG d   1       3.936  89.488 113.058  0.00  0.00    -0.241 OA
ENDBRANCH   3  22
TORSDOF 7
ENDMDL
MODEL 6
REMARK VINA RESULT:      -5.8      2.046      5.190
REMARK  7 active torsions:
REMARK  status: ('A' for Active; 'I' for Inactive)
REMARK    1  A    between atoms: C_2  and  C_3 
REMARK    2  A    between atoms: C_3  and  O_6 
REMARK    3  A    between atoms: C_3  and  C_4 
REMARK    4  A    between atoms: C_7  and  O_6 
REMARK    5  A    between atoms: C_9  and  C_10 
REMARK    6  A    between atoms: N_15  and  C_14 
REMARK    7  A    between atoms: N_20  and  C_19 
REMARK       I    between atoms: C_22  and  N_20 
ROOT
ATOM      1  C   LIG d   1      -0.020  83.409 112.191  0.00  0.00     0.161 C 
ATOM      2  C   LIG d   1      -1.210  83.005 112.819  0.00  0.00     0.016 C 
ATOM      3  C   LIG d   1      -1.748  81.703 112.702  0.00  0.00     0.038 C 
ATOM      4  C   LIG d   1      -1.049  80.666 112.067  0.00  0.00     0.028 C 
ATOM      5  C   LIG d   1      -0.087  81.155 110.990  0.00  0.00    -0.047 C 
ATOM      6  C   LIG d   1       0.814  82.260 111.586  0.00  0.00     0.091 C 
ENDROOT
BRANCH   1   7
ATOM      7  O   LIG d   1       0.781  84.179 113.110  0.00  0.00    -0.368 OA
BRANCH   7   8
ATOM      8  C   LIG d   1       1.715  83.429 113.925  0.00  0.00     0.119 C 
BRANCH   8   9
ATOM      9  C   LIG d   1       1.225  83.509 115.383  0.00  0.00     0.028 C 
ATOM     10  C   LIG d   1       2.355  83.261 116.397  0.00  0.00     0.006 C 
ENDBRANCH   8   9
BRANCH   8  11
ATOM     11  C   LIG d   1       3.101  84.080 113.926  0.00  0.00     0.028 C 
ATOM     12  C   LIG d   1       3.234  85.201 112.883  0.00  0.00     0.006 C 
ENDBRANCH   8  11
ENDBRANCH   7   8
ENDBRANCH   1   7
BRANCH   6  13
ATOM     13  N   LIG d   1       1.729  82.853 110.575  0.00  0.00    -0.311 N 
ATOM     14  C   LIG d   1       2.979  82.436 110.385  0.00  0.00     0.210 C 
ATOM     15  C   LIG d   1       3.757  83.197 109.306  0.00  0.00     0.109 C 
ATOM     16  O   LIG d   1       3.508  81.488 110.984  0.00  0.00    -0.276 OA
ATOM     17  H   LIG d   1       1.370  83.607 110.022  0.00  0.00     0.149 HD
ENDBRANCH   6  13
BRANCH   5  18
ATOM     18  N   LIG d   1       0.674  79.986 110.508  0.00  0.00     0.381 N 
ATOM     19  H   LIG d   1       1.475  80.292 109.993  0.00  0.00    -0.090 HD
ATOM     20  H   LIG d   1       0.089  79.449 109.892  0.00  0.00    -0.090 HD
ATOM     21  H   LIG d   1       0.961  79.424 111.279  0.00  0.00    -0.090 HD
ENDBRANCH   5  18
BRANCH   3  22
ATOM     22  C   LIG d   1      -3.019  81.438 113.190  0.00  0.00     0.382 C 
ATOM     23  O   LIG d   1      -3.163  80.710 114.201  0.00  0.00    -0.241 OA
ATOM     24  O   LIG d   1      -4.025  81.883 112.606  0.00  0.00    -0.241 OA
ENDBRANCH   3  22
TORSDOF 7
ENDMDL
MODEL 7
REMARK VINA RESULT:      -5.7      3.405      5.675
REMARK  7 active torsions:
REMARK  status: ('A' for Active; 'I' for Inactive)
REMARK    1  A    between atoms: C_2  and  C_3 
REMARK    2  A    between atoms: C_3  and  O_6 
REMARK    3  A    between atoms: C_3  and  C_4 
REMARK    4  A    between atoms: C_7  and  O_6 
REMARK    5  A    between atoms: C_9  and  C_10 
REMARK    6  A    between atoms: N_15  and  C_14 
REMARK    7  A    between atoms: N_20  and  C_19 
REMARK       I    between atoms: C_22  and  N_20 
ROOT
ATOM      1  C   LIG d   1       3.566  84.345 113.019  0.00  0.00     0.161 C 
ATOM      2  C   LIG d   1       3.530  85.691 113.420  0.00  0.00     0.016 C 
ATOM      3  C   LIG d   1       2.918  86.714 112.659  0.00  0.00     0.038 C 
ATOM      4  C   LIG d   1       2.163  86.432 111.510  0.00  0.00     0.028 C 
ATOM      5  C   LIG d   1       2.597  85.156 110.798  0.00  0.00    -0.047 C 
ATOM      6  C   LIG d   1       2.651  84.001 111.825  0.00  0.00     0.091 C 
ENDROOT
BRANCH   1   7
ATOM      7  O   LIG d   1       3.264  83.493 114.142  0.00  0.00    -0.368 OA
BRANCH   7   8
ATOM      8  C   LIG d   1       2.954  84.166 115.387  0.00  0.00     0.119 C 
BRANCH   8   9
ATOM      9  C   LIG d   1       3.862  83.564 116.477  0.00  0.00     0.028 C 
ATOM     10  C   LIG d   1       5.261  84.203 116.495  0.00  0.00     0.006 C 
ENDBRANCH   8   9
BRANCH   8  11
ATOM     11  C   LIG d   1       1.522  83.866 115.841  0.00  0.00     0.028 C 
ATOM     12  C   LIG d   1       1.168  84.537 117.178  0.00  0.00     0.006 C 
ENDBRANCH   8  11
ENDBRANCH   7   8
ENDBRANCH   1   7
BRANCH   6  13
ATOM     13  N   LIG d   1       3.148  82.734 111.228  0.00  0.00    -0.311 N 
ATOM     14  C   LIG d   1       2.346  81.785 110.750  0.00  0.00     0.210 C 
ATOM     15  C   LIG d   1       3.063  80.550 110.197  0.00  0.00     0.109 C 
ATOM     16  O   LIG d   1       1.109  81.862 110.703  0.00  0.00    -0.276 OA
ATOM     17  H   LIG d   1       4.140  82.603 111.198  0.00  0.00     0.149 HD
ENDBRANCH   6  13
BRANCH   5  18
ATOM     18  N   LIG d   1       1.641  84.910 109.702  0.00  0.00     0.381 N 
ATOM     19  H   LIG d   1       2.089  84.391 108.972  0.00  0.00    -0.090 HD
ATOM     20  H   LIG d   1       1.345  85.793 109.325  0.00  0.00    -0.090 HD
ATOM     21  H   LIG d   1       0.853  84.405 110.043  0.00  0.00    -0.090 HD
ENDBRANCH   5  18
BRANCH   3  22
ATOM     22  C   LIG d   1       3.093  88.040 113.023  0.00  0.00     0.382 C 
ATOM     23  O   LIG d   1       4.232  88.563 112.961  0.00  0.00    -0.241 OA
ATOM     24  O   LIG d   1       2.134  88.707 113.456  0.00  0.00    -0.241 OA
ENDBRANCH   3  22
TORSDOF 7
ENDMDL
MODEL 8
REMARK VINA RESULT:      -5.6      2.937      5.685
REMARK  7 active torsions:
REMARK  status: ('A' for Active; 'I' for Inactive)
REMARK    1  A    between atoms: C_2  and  C_3 
REMARK    2  A    between atoms: C_3  and  O_6 
REMARK    3  A    between atoms: C_3  and  C_4 
REMARK    4  A    between atoms: C_7  and  O_6 
REMARK    5  A    between atoms: C_9  and  C_10 
REMARK    6  A    between atoms: N_15  and  C_14 
REMARK    7  A    between atoms: N_20  and  C_19 
REMARK       I    between atoms: C_22  and  N_20 
ROOT
ATOM      1  C   LIG d   1       1.577  83.874 112.246  0.00  0.00     0.161 C 
ATOM      2  C   LIG d   1       0.510  84.439 111.527  0.00  0.00     0.016 C 
ATOM      3  C   LIG d   1       0.474  85.795 111.126  0.00  0.00     0.038 C 
ATOM      4  C   LIG d   1       1.578  86.645 111.287  0.00  0.00     0.028 C 
ATOM      5  C   LIG d   1       2.478  86.256 112.455  0.00  0.00    -0.047 C 
ATOM      6  C   LIG d   1       2.839  84.758 112.333  0.00  0.00     0.091 C 
ENDROOT
BRANCH   1   7
ATOM      7  O   LIG d   1       1.907  82.583 111.696  0.00  0.00    -0.368 OA
BRANCH   7   8
ATOM      8  C   LIG d   1       1.424  82.319 110.355  0.00  0.00     0.119 C 
BRANCH   8   9
ATOM      9  C   LIG d   1       1.177  80.802 110.243  0.00  0.00     0.028 C 
ATOM     10  C   LIG d   1      -0.003  80.467 109.315  0.00  0.00     0.006 C 
ENDBRANCH   8   9
BRANCH   8  11
ATOM     11  C   LIG d   1       2.493  82.635 109.305  0.00  0.00     0.028 C 
ATOM     12  C   LIG d   1       3.903  82.208 109.743  0.00  0.00     0.006 C 
ENDBRANCH   8  11
ENDBRANCH   7   8
ENDBRANCH   1   7
BRANCH   6  13
ATOM     13  N   LIG d   1       3.648  84.275 113.481  0.00  0.00    -0.311 N 
ATOM     14  C   LIG d   1       3.262  84.391 114.751  0.00  0.00     0.210 C 
ATOM     15  C   LIG d   1       4.255  83.845 115.781  0.00  0.00     0.109 C 
ATOM     16  O   LIG d   1       2.177  84.865 115.119  0.00  0.00    -0.276 OA
ATOM     17  H   LIG d   1       4.529  83.848 113.271  0.00  0.00     0.149 HD
ENDBRANCH   6  13
BRANCH   5  18
ATOM     18  N   LIG d   1       3.658  87.140 112.422  0.00  0.00     0.381 N 
ATOM     19  H   LIG d   1       4.130  87.042 111.545  0.00  0.00    -0.090 HD
ATOM     20  H   LIG d   1       4.290  86.866 113.153  0.00  0.00    -0.090 HD
ATOM     21  H   LIG d   1       3.379  88.087 112.552  0.00  0.00    -0.090 HD
ENDBRANCH   5  18
BRANCH   3  22
ATOM     22  C   LIG d   1      -0.692  86.323 110.593  0.00  0.00     0.382 C 
ATOM     23  O   LIG d   1      -0.870  86.323 109.351  0.00  0.00    -0.241 OA
ATOM     24  O   LIG d   1      -1.549  86.839 111.335  0.00  0.00    -0.241 OA
ENDBRANCH   3  22
TORSDOF 7
ENDMDL
MODEL 9
REMARK VINA RESULT:      -5.4      2.262      4.364
REMARK  7 active torsions:
REMARK  status: ('A' for Active; 'I' for Inactive)
REMARK    1  A    between atoms: C_2  and  C_3 
REMARK    2  A    between atoms: C_3  and  O_6 
REMARK    3  A    between atoms: C_3  and  C_4 
REMARK    4  A    between atoms: C_7  and  O_6 
REMARK    5  A    between atoms: C_9  and  C_10 
REMARK    6  A    between atoms: N_15  and  C_14 
REMARK    7  A    between atoms: N_20  and  C_19 
REMARK       I    between atoms: C_22  and  N_20 
ROOT
ATOM      1  C   LIG d   1       0.673  83.982 111.550  0.00  0.00     0.161 C 
ATOM      2  C   LIG d   1       1.424  85.156 111.373  0.00  0.00     0.016 C 
ATOM      3  C   LIG d   1       2.398  85.604 112.295  0.00  0.00     0.038 C 
ATOM      4  C   LIG d   1       2.796  84.823 113.390  0.00  0.00     0.028 C 
ATOM      5  C   LIG d   1       1.711  83.871 113.882  0.00  0.00    -0.047 C 
ATOM      6  C   LIG d   1       1.173  83.060 112.682  0.00  0.00     0.091 C 
ENDROOT
BRANCH   1   7
ATOM      7  O   LIG d   1       0.602  83.256 110.307  0.00  0.00    -0.368 OA
BRANCH   7   8
ATOM      8  C   LIG d   1       1.512  82.137 110.169  0.00  0.00     0.119 C 
BRANCH   8   9
ATOM      9  C   LIG d   1       2.743  82.636 109.387  0.00  0.00     0.028 C 
ATOM     10  C   LIG d   1       4.043  82.514 110.199  0.00  0.00     0.006 C 
ENDBRANCH   8   9
BRANCH   8  11
ATOM     11  C   LIG d   1       0.905  81.028 109.305  0.00  0.00     0.028 C 
ATOM     12  C   LIG d   1      -0.255  80.299 110.001  0.00  0.00     0.006 C 
ENDBRANCH   8  11
ENDBRANCH   7   8
ENDBRANCH   1   7
BRANCH   6  13
ATOM     13  N   LIG d   1       0.049  82.164 113.061  0.00  0.00    -0.311 N 
ATOM     14  C   LIG d   1       0.222  80.937 113.548  0.00  0.00     0.210 C 
ATOM     15  C   LIG d   1      -1.071  80.175 113.855  0.00  0.00     0.109 C 
ATOM     16  O   LIG d   1       1.323  80.419 113.786  0.00  0.00    -0.276 OA
ATOM     17  H   LIG d   1      -0.879  82.517 112.930  0.00  0.00     0.149 HD
ENDBRANCH   6  13
BRANCH   5  18
ATOM     18  N   LIG d   1       2.305  83.023 114.933  0.00  0.00     0.381 N 
ATOM     19  H   LIG d   1       2.007  83.342 115.834  0.00  0.00    -0.090 HD
ATOM     20  H   LIG d   1       3.306  83.100 114.887  0.00  0.00    -0.090 HD
ATOM     21  H   LIG d   1       2.031  82.075 114.802  0.00  0.00    -0.090 HD
ENDBRANCH   5  18
BRANCH   3  22
ATOM     22  C   LIG d   1       2.956  86.865 112.148  0.00  0.00     0.382 C 
ATOM     23  O   LIG d   1       2.237  87.886 112.271  0.00  0.00    -0.241 OA
ATOM     24  O   LIG d   1       4.158  86.993 111.850  0.00  0.00    -0.241 OA
ENDBRANCH   3  22
TORSDOF 7
ENDMDL
