MODEL 1
REMARK VINA RESULT:      -6.6      0.000      0.000
REMARK  7 active torsions:
REMARK  status: ('A' for Active; 'I' for Inactive)
REMARK    1  A    between atoms: C_2  and  C_3 
REMARK    2  A    between atoms: C_3  and  O_6 
REMARK    3  A    between atoms: C_3  and  C_4 
REMARK    4  A    between atoms: C_7  and  O_6 
REMARK    5  A    between atoms: C_9  and  C_10 
REMARK    6  A    between atoms: N_15  and  C_14 
REMARK    7  A    between atoms: N_20  and  C_19 
REMARK       I    between atoms: C_22  and  N_20 
ROOT
ATOM      1  C   LIG d   1       1.249  83.197 111.650  0.00  0.00     0.161 C 
ATOM      2  C   LIG d   1       2.154  83.001 110.594  0.00  0.00     0.016 C 
ATOM      3  C   LIG d   1       2.089  81.900 109.709  0.00  0.00     0.038 C 
ATOM      4  C   LIG d   1       1.017  80.996 109.727  0.00  0.00     0.028 C 
ATOM      5  C   LIG d   1       0.355  80.869 111.095  0.00  0.00    -0.047 C 
ATOM      6  C   LIG d   1       0.007  82.281 111.617  0.00  0.00     0.091 C 
ENDROOT
BRANCH   1   7
ATOM      7  O   LIG d   1       0.849  84.581 111.700  0.00  0.00    -0.368 OA
BRANCH   7   8
ATOM      8  C   LIG d   1       1.458  85.456 110.719  0.00  0.00     0.119 C 
BRANCH   8   9
ATOM      9  C   LIG d   1       2.058  86.656 111.478  0.00  0.00     0.028 C 
ATOM     10  C   LIG d   1       3.493  86.386 111.963  0.00  0.00     0.006 C 
ENDBRANCH   8   9
BRANCH   8  11
ATOM     11  C   LIG d   1       0.408  86.055 109.779  0.00  0.00     0.028 C 
ATOM     12  C   LIG d   1      -0.989  86.129 110.416  0.00  0.00     0.006 C 
ENDBRANCH   8  11
ENDBRANCH   7   8
ENDBRANCH   1   7
BRANCH   6  13
ATOM     13  N   LIG d   1      -0.568  82.253 112.987  0.00  0.00    -0.311 N 
ATOM     14  C   LIG d   1      -1.875  82.188 113.232  0.00  0.00     0.210 C 
ATOM     15  C   LIG d   1      -2.256  82.190 114.716  0.00  0.00     0.109 C 
ATOM     16  O   LIG d   1      -2.754  82.095 112.362  0.00  0.00    -0.276 OA
ATOM     17  H   LIG d   1       0.076  82.293 113.753  0.00  0.00     0.149 HD
ENDBRANCH   6  13
BRANCH   5  18
ATOM     18  N   LIG d   1      -0.829  80.003 110.938  0.00  0.00     0.381 N 
ATOM     19  H   LIG d   1      -1.211  80.115 110.021  0.00  0.00    -0.090 HD
ATOM     20  H   LIG d   1      -1.525  80.280 111.607  0.00  0.00    -0.090 HD
ATOM     21  H   LIG d   1      -0.576  79.050 111.086  0.00  0.00    -0.090 HD
ENDBRANCH   5  18
BRANCH   3  22
ATOM     22  C   LIG d   1       3.127  81.674 108.817  0.00  0.00     0.382 C 
ATOM     23  O   LIG d   1       3.979  82.570 108.606  0.00  0.00    -0.241 OA
ATOM     24  O   LIG d   1       3.197  80.601 108.188  0.00  0.00    -0.241 OA
ENDBRANCH   3  22
TORSDOF 7
ENDMDL
MODEL 2
REMARK VINA RESULT:      -6.4      2.518      5.032
REMARK  7 active torsions:
REMARK  status: ('A' for Active; 'I' for Inactive)
REMARK    1  A    between atoms: C_2  and  C_3 
REMARK    2  A    between atoms: C_3  and  O_6 
REMARK    3  A    between atoms: C_3  and  C_4 
REMARK    4  A    between atoms: C_7  and  O_6 
REMARK    5  A    between atoms: C_9  and  C_10 
REMARK    6  A    between atoms: N_15  and  C_14 
REMARK    7  A    between atoms: N_20  and  C_19 
REMARK       I    between atoms: C_22  and  N_20 
ROOT
ATOM      1  C   LIG d   1       2.532  82.763 111.524  0.00  0.00     0.161 C 
ATOM      2  C   LIG d   1       2.577  84.099 111.954  0.00  0.00     0.016 C 
ATOM      3  C   LIG d   1       2.196  85.192 111.141  0.00  0.00     0.038 C 
ATOM      4  C   LIG d   1       1.598  85.008 109.885  0.00  0.00     0.028 C 
ATOM      5  C   LIG d   1       2.000  83.702 109.208  0.00  0.00    -0.047 C 
ATOM      6  C   LIG d   1       1.778  82.535 110.197  0.00  0.00     0.091 C 
ENDROOT
BRANCH   1   7
ATOM      7  O   LIG d   1       1.978  81.933 112.564  0.00  0.00    -0.368 OA
BRANCH   7   8
ATOM      8  C   LIG d   1       0.532  81.898 112.648  0.00  0.00     0.119 C 
BRANCH   8   9
ATOM      9  C   LIG d   1       0.124  82.661 113.923  0.00  0.00     0.028 C 
ATOM     10  C   LIG d   1       1.161  82.517 115.050  0.00  0.00     0.006 C 
ENDBRANCH   8   9
BRANCH   8  11
ATOM     11  C   LIG d   1       0.020  80.468 112.851  0.00  0.00     0.028 C 
ATOM     12  C   LIG d   1      -1.089  80.086 111.857  0.00  0.00     0.006 C 
ENDBRANCH   8  11
ENDBRANCH   7   8
ENDBRANCH   1   7
BRANCH   6  13
ATOM     13  N   LIG d   1       2.225  81.230 109.643  0.00  0.00    -0.311 N 
ATOM     14  C   LIG d   1       1.426  80.411 108.962  0.00  0.00     0.210 C 
ATOM     15  C   LIG d   1       2.082  79.107 108.498  0.00  0.00     0.109 C 
ATOM     16  O   LIG d   1       0.245  80.654 108.671  0.00  0.00    -0.276 OA
ATOM     17  H   LIG d   1       3.177  80.968 109.806  0.00  0.00     0.149 HD
ENDBRANCH   6  13
BRANCH   5  18
ATOM     18  N   LIG d   1       1.200  83.575 107.975  0.00  0.00     0.381 N 
ATOM     19  H   LIG d   1       0.474  82.900 108.110  0.00  0.00    -0.090 HD
ATOM     20  H   LIG d   1       1.796  83.254 107.232  0.00  0.00    -0.090 HD
ATOM     21  H   LIG d   1       0.802  84.457 107.734  0.00  0.00    -0.090 HD
ENDBRANCH   5  18
BRANCH   3  22
ATOM     22  C   LIG d   1       2.450  86.486 111.567  0.00  0.00     0.382 C 
ATOM     23  O   LIG d   1       1.497  87.263 111.815  0.00  0.00    -0.241 OA
ATOM     24  O   LIG d   1       3.621  86.902 111.663  0.00  0.00    -0.241 OA
ENDBRANCH   3  22
TORSDOF 7
ENDMDL
MODEL 3
REMARK VINA RESULT:      -6.4      2.035      4.452
REMARK  7 active torsions:
REMARK  status: ('A' for Active; 'I' for Inactive)
REMARK    1  A    between atoms: C_2  and  C_3 
REMARK    2  A    between atoms: C_3  and  O_6 
REMARK    3  A    between atoms: C_3  and  C_4 
REMARK    4  A    between atoms: C_7  and  O_6 
REMARK    5  A    between atoms: C_9  and  C_10 
REMARK    6  A    between atoms: N_15  and  C_14 
REMARK    7  A    between atoms: N_20  and  C_19 
REMARK       I    between atoms: C_22  and  N_20 
ROOT
ATOM      1  C   LIG d   1       0.780  83.474 110.374  0.00  0.00     0.161 C 
ATOM      2  C   LIG d   1       1.560  84.642 110.395  0.00  0.00     0.016 C 
ATOM      3  C   LIG d   1       1.982  85.275 111.587  0.00  0.00     0.038 C 
ATOM      4  C   LIG d   1       1.778  84.693 112.847  0.00  0.00     0.028 C 
ATOM      5  C   LIG d   1       0.561  83.776 112.902  0.00  0.00    -0.047 C 
ATOM      6  C   LIG d   1       0.643  82.763 111.737  0.00  0.00     0.091 C 
ENDROOT
BRANCH   1   7
ATOM      7  O   LIG d   1       1.294  82.561 109.384  0.00  0.00    -0.368 OA
BRANCH   7   8
ATOM      8  C   LIG d   1       2.081  81.453 109.885  0.00  0.00     0.119 C 
BRANCH   8   9
ATOM      9  C   LIG d   1       3.559  81.754 109.568  0.00  0.00     0.028 C 
ATOM     10  C   LIG d   1       3.796  82.018 108.072  0.00  0.00     0.006 C 
ENDBRANCH   8   9
BRANCH   8  11
ATOM     11  C   LIG d   1       1.761  80.157 109.133  0.00  0.00     0.028 C 
ATOM     12  C   LIG d   1       0.431  80.227 108.366  0.00  0.00     0.006 C 
ENDBRANCH   8  11
ENDBRANCH   7   8
ENDBRANCH   1   7
BRANCH   6  13
ATOM     13  N   LIG d   1      -0.552  81.882 111.667  0.00  0.00    -0.311 N 
ATOM     14  C   LIG d   1      -0.646  80.721 112.312  0.00  0.00     0.210 C 
ATOM     15  C   LIG d   1      -1.956  79.960 112.087  0.00  0.00     0.109 C 
ATOM     16  O   LIG d   1       0.219  80.264 113.075  0.00  0.00    -0.276 OA
ATOM     17  H   LIG d   1      -1.313  82.191 111.095  0.00  0.00     0.149 HD
ENDBRANCH   6  13
BRANCH   5  18
ATOM     18  N   LIG d   1       0.547  83.132 114.229  0.00  0.00     0.381 N 
ATOM     19  H   LIG d   1       1.044  82.264 114.189  0.00  0.00    -0.090 HD
ATOM     20  H   LIG d   1      -0.404  82.939 114.487  0.00  0.00    -0.090 HD
ATOM     21  H   LIG d   1       0.967  83.732 114.904  0.00  0.00    -0.090 HD
ENDBRANCH   5  18
BRANCH   3  22
ATOM     22  C   LIG d   1       2.580  86.524 111.528  0.00  0.00     0.382 C 
ATOM     23  O   LIG d   1       3.831  86.620 111.519  0.00  0.00    -0.241 OA
ATOM     24  O   LIG d   1       1.886  87.558 111.527  0.00  0.00    -0.241 OA
ENDBRANCH   3  22
TORSDOF 7
ENDMDL
MODEL 4
REMARK VINA RESULT:      -5.9      2.286      5.324
REMARK  7 active torsions:
REMARK  status: ('A' for Active; 'I' for Inactive)
REMARK    1  A    between atoms: C_2  and  C_3 
REMARK    2  A    between atoms: C_3  and  O_6 
REMARK    3  A    between atoms: C_3  and  C_4 
REMARK    4  A    between atoms: C_7  and  O_6 
REMARK    5  A    between atoms: C_9  and  C_10 
REMARK    6  A    between atoms: N_15  and  C_14 
REMARK    7  A    between atoms: N_20  and  C_19 
REMARK       I    between atoms: C_22  and  N_20 
ROOT
ATOM      1  C   LIG d   1       1.818  82.256 111.984  0.00  0.00     0.161 C 
ATOM      2  C   LIG d   1       0.786  81.309 112.095  0.00  0.00     0.016 C 
ATOM      3  C   LIG d   1      -0.581  81.654 112.186  0.00  0.00     0.038 C 
ATOM      4  C   LIG d   1      -1.025  82.975 112.020  0.00  0.00     0.028 C 
ATOM      5  C   LIG d   1       0.016  84.017 112.411  0.00  0.00    -0.047 C 
ATOM      6  C   LIG d   1       1.345  83.695 111.689  0.00  0.00     0.091 C 
ENDROOT
BRANCH   1   7
ATOM      7  O   LIG d   1       2.769  81.828 110.990  0.00  0.00    -0.368 OA
BRANCH   7   8
ATOM      8  C   LIG d   1       2.310  80.814 110.063  0.00  0.00     0.119 C 
BRANCH   8   9
ATOM      9  C   LIG d   1       3.542  80.298 109.293  0.00  0.00     0.028 C 
ATOM     10  C   LIG d   1       3.967  81.248 108.161  0.00  0.00     0.006 C 
ENDBRANCH   8   9
BRANCH   8  11
ATOM     11  C   LIG d   1       1.387  81.410 108.996  0.00  0.00     0.028 C 
ATOM     12  C   LIG d   1       0.336  80.408 108.491  0.00  0.00     0.006 C 
ENDBRANCH   8  11
ENDBRANCH   7   8
ENDBRANCH   1   7
BRANCH   6  13
ATOM     13  N   LIG d   1       2.441  84.618 112.081  0.00  0.00    -0.311 N 
ATOM     14  C   LIG d   1       2.699  85.761 111.447  0.00  0.00     0.210 C 
ATOM     15  C   LIG d   1       3.887  86.554 112.001  0.00  0.00     0.109 C 
ATOM     16  O   LIG d   1       2.036  86.210 110.500  0.00  0.00    -0.276 OA
ATOM     17  H   LIG d   1       3.010  84.347 112.859  0.00  0.00     0.149 HD
ENDBRANCH   6  13
BRANCH   5  18
ATOM     18  N   LIG d   1      -0.526  85.343 112.058  0.00  0.00     0.381 N 
ATOM     19  H   LIG d   1      -1.282  85.239 111.411  0.00  0.00    -0.090 HD
ATOM     20  H   LIG d   1       0.196  85.883 111.614  0.00  0.00    -0.090 HD
ATOM     21  H   LIG d   1      -0.844  85.811 112.879  0.00  0.00    -0.090 HD
ENDBRANCH   5  18
BRANCH   3  22
ATOM     22  C   LIG d   1      -1.518  80.677 112.487  0.00  0.00     0.382 C 
ATOM     23  O   LIG d   1      -1.145  79.506 112.737  0.00  0.00    -0.241 OA
ATOM     24  O   LIG d   1      -2.735  80.942 112.468  0.00  0.00    -0.241 OA
ENDBRANCH   3  22
TORSDOF 7
ENDMDL
MODEL 5
REMARK VINA RESULT:      -5.5      2.741      5.555
REMARK  7 active torsions:
REMARK  status: ('A' for Active; 'I' for Inactive)
REMARK    1  A    between atoms: C_2  and  C_3 
REMARK    2  A    between atoms: C_3  and  O_6 
REMARK    3  A    between atoms: C_3  and  C_4 
REMARK    4  A    between atoms: C_7  and  O_6 
REMARK    5  A    between atoms: C_9  and  C_10 
REMARK    6  A    between atoms: N_15  and  C_14 
REMARK    7  A    between atoms: N_20  and  C_19 
REMARK       I    between atoms: C_22  and  N_20 
ROOT
ATOM      1  C   LIG d   1       2.607  84.087 112.278  0.00  0.00     0.161 C 
ATOM      2  C   LIG d   1       3.055  85.311 112.802  0.00  0.00     0.016 C 
ATOM      3  C   LIG d   1       2.662  86.568 112.287  0.00  0.00     0.038 C 
ATOM      4  C   LIG d   1       1.670  86.689 111.303  0.00  0.00     0.028 C 
ATOM      5  C   LIG d   1       1.563  85.466 110.397  0.00  0.00    -0.047 C 
ATOM      6  C   LIG d   1       1.439  84.201 111.276  0.00  0.00     0.091 C 
ENDROOT
BRANCH   1   7
ATOM      7  O   LIG d   1       2.260  83.193 113.354  0.00  0.00    -0.368 OA
BRANCH   7   8
ATOM      8  C   LIG d   1       1.017  83.477 114.042  0.00  0.00     0.119 C 
BRANCH   8   9
ATOM      9  C   LIG d   1       1.357  83.734 115.523  0.00  0.00     0.028 C 
ATOM     10  C   LIG d   1       2.738  83.181 115.913  0.00  0.00     0.006 C 
ENDBRANCH   8   9
BRANCH   8  11
ATOM     11  C   LIG d   1       0.090  82.258 114.045  0.00  0.00     0.028 C 
ATOM     12  C   LIG d   1      -0.921  82.280 115.202  0.00  0.00     0.006 C 
ENDBRANCH   8  11
ENDBRANCH   7   8
ENDBRANCH   1   7
BRANCH   6  13
ATOM     13  N   LIG d   1       1.414  82.952 110.471  0.00  0.00    -0.311 N 
ATOM     14  C   LIG d   1       2.358  82.629 109.588  0.00  0.00     0.210 C 
ATOM     15  C   LIG d   1       2.129  81.306 108.851  0.00  0.00     0.109 C 
ATOM     16  O   LIG d   1       3.380  83.298 109.369  0.00  0.00    -0.276 OA
ATOM     17  H   LIG d   1       0.636  82.336 110.608  0.00  0.00     0.149 HD
ENDBRANCH   6  13
BRANCH   5  18
ATOM     18  N   LIG d   1       0.403  85.670 109.509  0.00  0.00     0.381 N 
ATOM     19  H   LIG d   1      -0.188  86.385 109.883  0.00  0.00    -0.090 HD
ATOM     20  H   LIG d   1      -0.125  84.816 109.464  0.00  0.00    -0.090 HD
ATOM     21  H   LIG d   1       0.712  85.927 108.598  0.00  0.00    -0.090 HD
ENDBRANCH   5  18
BRANCH   3  22
ATOM     22  C   LIG d   1       3.294  87.720 112.731  0.00  0.00     0.382 C 
ATOM     23  O   LIG d   1       2.625  88.759 112.944  0.00  0.00    -0.241 OA
ATOM     24  O   LIG d   1       4.531  87.746 112.878  0.00  0.00    -0.241 OA
ENDBRANCH   3  22
TORSDOF 7
ENDMDL
MODEL 6
REMARK VINA RESULT:      -5.2      2.144      4.702
REMARK  7 active torsions:
REMARK  status: ('A' for Active; 'I' for Inactive)
REMARK    1  A    between atoms: C_2  and  C_3 
REMARK    2  A    between atoms: C_3  and  O_6 
REMARK    3  A    between atoms: C_3  and  C_4 
REMARK    4  A    between atoms: C_7  and  O_6 
REMARK    5  A    between atoms: C_9  and  C_10 
REMARK    6  A    between atoms: N_15  and  C_14 
REMARK    7  A    between atoms: N_20  and  C_19 
REMARK       I    between atoms: C_22  and  N_20 
ROOT
ATOM      1  C   LIG d   1       0.272  81.720 110.845  0.00  0.00     0.161 C 
ATOM      2  C   LIG d   1       1.034  80.620 110.415  0.00  0.00     0.016 C 
ATOM      3  C   LIG d   1       2.313  80.742 109.826  0.00  0.00     0.038 C 
ATOM      4  C   LIG d   1       2.987  81.971 109.765  0.00  0.00     0.028 C 
ATOM      5  C   LIG d   1       2.051  83.174 109.726  0.00  0.00    -0.047 C 
ATOM      6  C   LIG d   1       1.037  83.059 110.888  0.00  0.00     0.091 C 
ENDROOT
BRANCH   1   7
ATOM      7  O   LIG d   1      -0.314  81.436 112.130  0.00  0.00    -0.368 OA
BRANCH   7   8
ATOM      8  C   LIG d   1      -1.575  80.723 112.113  0.00  0.00     0.119 C 
BRANCH   8   9
ATOM      9  C   LIG d   1      -2.565  81.513 112.991  0.00  0.00     0.028 C 
ATOM     10  C   LIG d   1      -1.870  82.226 114.163  0.00  0.00     0.006 C 
ENDBRANCH   8   9
BRANCH   8  11
ATOM     11  C   LIG d   1      -1.449  79.350 112.779  0.00  0.00     0.028 C 
ATOM     12  C   LIG d   1      -2.692  78.471 112.571  0.00  0.00     0.006 C 
ENDBRANCH   8  11
ENDBRANCH   7   8
ENDBRANCH   1   7
BRANCH   6  13
ATOM     13  N   LIG d   1       0.031  84.153 110.873  0.00  0.00    -0.311 N 
ATOM     14  C   LIG d   1       0.200  85.313 111.505  0.00  0.00     0.210 C 
ATOM     15  C   LIG d   1      -0.969  86.295 111.377  0.00  0.00     0.109 C 
ATOM     16  O   LIG d   1       1.220  85.634 112.133  0.00  0.00    -0.276 OA
ATOM     17  H   LIG d   1      -0.813  83.988 110.361  0.00  0.00     0.149 HD
ENDBRANCH   6  13
BRANCH   5  18
ATOM     18  N   LIG d   1       2.883  84.390 109.804  0.00  0.00     0.381 N 
ATOM     19  H   LIG d   1       2.448  85.061 110.404  0.00  0.00    -0.090 HD
ATOM     20  H   LIG d   1       2.960  84.790 108.885  0.00  0.00    -0.090 HD
ATOM     21  H   LIG d   1       3.789  84.161 110.151  0.00  0.00    -0.090 HD
ENDBRANCH   5  18
BRANCH   3  22
ATOM     22  C   LIG d   1       2.916  79.632 109.254  0.00  0.00     0.382 C 
ATOM     23  O   LIG d   1       2.221  78.792 108.633  0.00  0.00    -0.241 OA
ATOM     24  O   LIG d   1       4.138  79.436 109.390  0.00  0.00    -0.241 OA
ENDBRANCH   3  22
TORSDOF 7
ENDMDL
MODEL 7
REMARK VINA RESULT:      -5.1      2.929      4.915
REMARK  7 active torsions:
REMARK  status: ('A' for Active; 'I' for Inactive)
REMARK    1  A    between atoms: C_2  and  C_3 
REMARK    2  A    between atoms: C_3  and  O_6 
REMARK    3  A    between atoms: C_3  and  C_4 
REMARK    4  A    between atoms: C_7  and  O_6 
REMARK    5  A    between atoms: C_9  and  C_10 
REMARK    6  A    between atoms: N_15  and  C_14 
REMARK    7  A    between atoms: N_20  and  C_19 
REMARK       I    between atoms: C_22  and  N_20 
ROOT
ATOM      1  C   LIG d   1      -0.093  81.062 111.917  0.00  0.00     0.161 C 
ATOM      2  C   LIG d   1      -0.095  80.449 110.653  0.00  0.00     0.016 C 
ATOM      3  C   LIG d   1       0.952  80.596 109.715  0.00  0.00     0.038 C 
ATOM      4  C   LIG d   1       2.151  81.250 110.038  0.00  0.00     0.028 C 
ATOM      5  C   LIG d   1       1.989  82.312 111.120  0.00  0.00    -0.047 C 
ATOM      6  C   LIG d   1       1.256  81.688 112.330  0.00  0.00     0.091 C 
ENDROOT
BRANCH   1   7
ATOM      7  O   LIG d   1      -0.537  80.123 112.916  0.00  0.00    -0.368 OA
BRANCH   7   8
ATOM      8  C   LIG d   1      -1.936  80.197 113.284  0.00  0.00     0.119 C 
BRANCH   8   9
ATOM      9  C   LIG d   1      -2.005  80.663 114.751  0.00  0.00     0.028 C 
ATOM     10  C   LIG d   1      -2.583  82.082 114.889  0.00  0.00     0.006 C 
ENDBRANCH   8   9
BRANCH   8  11
ATOM     11  C   LIG d   1      -2.591  78.812 113.267  0.00  0.00     0.028 C 
ATOM     12  C   LIG d   1      -2.988  78.358 111.854  0.00  0.00     0.006 C 
ENDBRANCH   8  11
ENDBRANCH   7   8
ENDBRANCH   1   7
BRANCH   6  13
ATOM     13  N   LIG d   1       0.981  82.681 113.401  0.00  0.00    -0.311 N 
ATOM     14  C   LIG d   1       1.238  82.460 114.689  0.00  0.00     0.210 C 
ATOM     15  C   LIG d   1       0.860  83.608 115.630  0.00  0.00     0.109 C 
ATOM     16  O   LIG d   1       1.772  81.434 115.138  0.00  0.00    -0.276 OA
ATOM     17  H   LIG d   1       0.577  83.553 113.121  0.00  0.00     0.149 HD
ENDBRANCH   6  13
BRANCH   5  18
ATOM     18  N   LIG d   1       3.334  82.815 111.456  0.00  0.00     0.381 N 
ATOM     19  H   LIG d   1       3.268  83.749 111.808  0.00  0.00    -0.090 HD
ATOM     20  H   LIG d   1       3.893  82.831 110.622  0.00  0.00    -0.090 HD
ATOM     21  H   LIG d   1       3.758  82.225 112.138  0.00  0.00    -0.090 HD
ENDBRANCH   5  18
BRANCH   3  22
ATOM     22  C   LIG d   1       0.789  80.121 108.422  0.00  0.00     0.382 C 
ATOM     23  O   LIG d   1      -0.320  80.234 107.848  0.00  0.00    -0.241 OA
ATOM     24  O   LIG d   1       1.725  79.541 107.840  0.00  0.00    -0.241 OA
ENDBRANCH   3  22
TORSDOF 7
ENDMDL
MODEL 8
REMARK VINA RESULT:      -5.0      2.736      5.389
REMARK  7 active torsions:
REMARK  status: ('A' for Active; 'I' for Inactive)
REMARK    1  A    between atoms: C_2  and  C_3 
REMARK    2  A    between atoms: C_3  and  O_6 
REMARK    3  A    between atoms: C_3  and  C_4 
REMARK    4  A    between atoms: C_7  and  O_6 
REMARK    5  A    between atoms: C_9  and  C_10 
REMARK    6  A    between atoms: N_15  and  C_14 
REMARK    7  A    between atoms: N_20  and  C_19 
REMARK       I    between atoms: C_22  and  N_20 
ROOT
ATOM      1  C   LIG d   1       1.406  81.987 112.386  0.00  0.00     0.161 C 
ATOM      2  C   LIG d   1       0.709  80.900 112.941  0.00  0.00     0.016 C 
ATOM      3  C   LIG d   1       0.210  80.889 114.264  0.00  0.00     0.038 C 
ATOM      4  C   LIG d   1       0.242  82.032 115.077  0.00  0.00     0.028 C 
ATOM      5  C   LIG d   1       1.382  82.985 114.738  0.00  0.00    -0.047 C 
ATOM      6  C   LIG d   1       1.353  83.283 113.222  0.00  0.00     0.091 C 
ENDROOT
BRANCH   1   7
ATOM      7  O   LIG d   1       0.937  82.235 111.046  0.00  0.00    -0.368 OA
BRANCH   7   8
ATOM      8  C   LIG d   1       1.767  81.720 109.975  0.00  0.00     0.119 C 
BRANCH   8   9
ATOM      9  C   LIG d   1       2.604  82.895 109.434  0.00  0.00     0.028 C 
ATOM     10  C   LIG d   1       3.935  82.432 108.818  0.00  0.00     0.006 C 
ENDBRANCH   8   9
BRANCH   8  11
ATOM     11  C   LIG d   1       0.918  81.248 108.791  0.00  0.00     0.028 C 
ATOM     12  C   LIG d   1      -0.134  80.201 109.192  0.00  0.00     0.006 C 
ENDBRANCH   8  11
ENDBRANCH   7   8
ENDBRANCH   1   7
BRANCH   6  13
ATOM     13  N   LIG d   1       2.487  84.142 112.791  0.00  0.00    -0.311 N 
ATOM     14  C   LIG d   1       2.329  85.359 112.272  0.00  0.00     0.210 C 
ATOM     15  C   LIG d   1       3.628  86.067 111.876  0.00  0.00     0.109 C 
ATOM     16  O   LIG d   1       1.238  85.932 112.133  0.00  0.00    -0.276 OA
ATOM     17  H   LIG d   1       3.409  83.768 112.897  0.00  0.00     0.149 HD
ENDBRANCH   6  13
BRANCH   5  18
ATOM     18  N   LIG d   1       1.215  84.194 115.568  0.00  0.00     0.381 N 
ATOM     19  H   LIG d   1       2.102  84.633 115.709  0.00  0.00    -0.090 HD
ATOM     20  H   LIG d   1       0.849  83.924 116.464  0.00  0.00    -0.090 HD
ATOM     21  H   LIG d   1       0.589  84.828 115.123  0.00  0.00    -0.090 HD
ENDBRANCH   5  18
BRANCH   3  22
ATOM     22  C   LIG d   1      -0.294  79.713 114.798  0.00  0.00     0.382 C 
ATOM     23  O   LIG d   1       0.164  79.269 115.879  0.00  0.00    -0.241 OA
ATOM     24  O   LIG d   1      -1.169  79.068 114.192  0.00  0.00    -0.241 OA
ENDBRANCH   3  22
TORSDOF 7
ENDMDL
MODEL 9
REMARK VINA RESULT:      -4.8      2.271      3.127
REMARK  7 active torsions:
REMARK  status: ('A' for Active; 'I' for Inactive)
REMARK    1  A    between atoms: C_2  and  C_3 
REMARK    2  A    between atoms: C_3  and  O_6 
REMARK    3  A    between atoms: C_3  and  C_4 
REMARK    4  A    between atoms: C_7  and  O_6 
REMARK    5  A    between atoms: C_9  and  C_10 
REMARK    6  A    between atoms: N_15  and  C_14 
REMARK    7  A    between atoms: N_20  and  C_19 
REMARK       I    between atoms: C_22  and  N_20 
ROOT
ATOM      1  C   LIG d   1       1.395  82.277 112.545  0.00  0.00     0.161 C 
ATOM      2  C   LIG d   1       2.399  82.172 111.568  0.00  0.00     0.016 C 
ATOM      3  C   LIG d   1       2.354  82.852 110.330  0.00  0.00     0.038 C 
ATOM      4  C   LIG d   1       1.368  83.808 110.044  0.00  0.00     0.028 C 
ATOM      5  C   LIG d   1       0.061  83.572 110.792  0.00  0.00    -0.047 C 
ATOM      6  C   LIG d   1       0.367  83.401 112.298  0.00  0.00     0.091 C 
ENDROOT
BRANCH   1   7
ATOM      7  O   LIG d   1       1.994  82.423 113.848  0.00  0.00    -0.368 OA
BRANCH   7   8
ATOM      8  C   LIG d   1       2.017  83.766 114.391  0.00  0.00     0.119 C 
BRANCH   8   9
ATOM      9  C   LIG d   1       3.428  84.338 114.151  0.00  0.00     0.028 C 
ATOM     10  C   LIG d   1       3.432  85.472 113.112  0.00  0.00     0.006 C 
ENDBRANCH   8   9
BRANCH   8  11
ATOM     11  C   LIG d   1       1.838  83.755 115.912  0.00  0.00     0.028 C 
ATOM     12  C   LIG d   1       2.245  85.083 116.570  0.00  0.00     0.006 C 
ENDBRANCH   8  11
ENDBRANCH   7   8
ENDBRANCH   1   7
BRANCH   6  13
ATOM     13  N   LIG d   1      -0.848  83.082 113.091  0.00  0.00    -0.311 N 
ATOM     14  C   LIG d   1      -1.636  82.039 112.838  0.00  0.00     0.210 C 
ATOM     15  C   LIG d   1      -2.849  81.904 113.764  0.00  0.00     0.109 C 
ATOM     16  O   LIG d   1      -1.429  81.194 111.954  0.00  0.00    -0.276 OA
ATOM     17  H   LIG d   1      -1.074  83.698 113.847  0.00  0.00     0.149 HD
ENDBRANCH   6  13
BRANCH   5  18
ATOM     18  N   LIG d   1      -0.828  84.715 110.509  0.00  0.00     0.381 N 
ATOM     19  H   LIG d   1      -1.783  84.437 110.619  0.00  0.00    -0.090 HD
ATOM     20  H   LIG d   1      -0.691  85.005 109.557  0.00  0.00    -0.090 HD
ATOM     21  H   LIG d   1      -0.621  85.469 111.126  0.00  0.00    -0.090 HD
ENDBRANCH   5  18
BRANCH   3  22
ATOM     22  C   LIG d   1       3.281  82.548 109.345  0.00  0.00     0.382 C 
ATOM     23  O   LIG d   1       3.015  82.777 108.140  0.00  0.00    -0.241 OA
ATOM     24  O   LIG d   1       4.363  82.007 109.641  0.00  0.00    -0.241 OA
ENDBRANCH   3  22
TORSDOF 7
ENDMDL
