MODEL 1
REMARK VINA RESULT:      -6.3      0.000      0.000
REMARK  7 active torsions:
REMARK  status: ('A' for Active; 'I' for Inactive)
REMARK    1  A    between atoms: C_2  and  C_3 
REMARK    2  A    between atoms: C_3  and  O_6 
REMARK    3  A    between atoms: C_3  and  C_4 
REMARK    4  A    between atoms: C_7  and  O_6 
REMARK    5  A    between atoms: C_9  and  C_10 
REMARK    6  A    between atoms: N_15  and  C_14 
REMARK    7  A    between atoms: N_20  and  C_19 
REMARK       I    between atoms: C_22  and  N_20 
ROOT
ATOM      1  C   LIG d   1       0.180  82.451 110.779  0.00  0.00     0.161 C 
ATOM      2  C   LIG d   1      -0.975  82.243 111.550  0.00  0.00     0.016 C 
ATOM      3  C   LIG d   1      -0.947  81.778 112.885  0.00  0.00     0.038 C 
ATOM      4  C   LIG d   1       0.255  81.632 113.593  0.00  0.00     0.028 C 
ATOM      5  C   LIG d   1       1.456  81.347 112.698  0.00  0.00    -0.047 C 
ATOM      6  C   LIG d   1       1.504  82.404 111.571  0.00  0.00     0.091 C 
ENDROOT
BRANCH   1   7
ATOM      7  O   LIG d   1       0.070  83.696 110.060  0.00  0.00    -0.368 OA
BRANCH   7   8
ATOM      8  C   LIG d   1       0.186  84.902 110.854  0.00  0.00     0.119 C 
BRANCH   8   9
ATOM      9  C   LIG d   1      -1.097  85.726 110.634  0.00  0.00     0.028 C 
ATOM     10  C   LIG d   1      -1.509  86.516 111.888  0.00  0.00     0.006 C 
ENDBRANCH   8   9
BRANCH   8  11
ATOM     11  C   LIG d   1       1.329  85.791 110.353  0.00  0.00     0.028 C 
ATOM     12  C   LIG d   1       2.233  86.295 111.489  0.00  0.00     0.006 C 
ENDBRANCH   8  11
ENDBRANCH   7   8
ENDBRANCH   1   7
BRANCH   6  13
ATOM     13  N   LIG d   1       2.600  82.149 110.600  0.00  0.00    -0.311 N 
ATOM     14  C   LIG d   1       3.817  82.676 110.714  0.00  0.00     0.210 C 
ATOM     15  C   LIG d   1       4.792  82.300 109.594  0.00  0.00     0.109 C 
ATOM     16  O   LIG d   1       4.192  83.394 111.653  0.00  0.00    -0.276 OA
ATOM     17  H   LIG d   1       2.392  81.552 109.824  0.00  0.00     0.149 HD
ENDBRANCH   6  13
BRANCH   5  18
ATOM     18  N   LIG d   1       2.660  81.356 113.550  0.00  0.00     0.381 N 
ATOM     19  H   LIG d   1       2.395  81.455 114.510  0.00  0.00    -0.090 HD
ATOM     20  H   LIG d   1       3.231  82.143 113.297  0.00  0.00    -0.090 HD
ATOM     21  H   LIG d   1       3.172  80.510 113.425  0.00  0.00    -0.090 HD
ENDBRANCH   5  18
BRANCH   3  22
ATOM     22  C   LIG d   1      -2.129  81.415 113.511  0.00  0.00     0.382 C 
ATOM     23  O   LIG d   1      -3.228  81.604 112.936  0.00  0.00    -0.241 OA
ATOM     24  O   LIG d   1      -2.114  80.941 114.663  0.00  0.00    -0.241 OA
ENDBRANCH   3  22
TORSDOF 7
ENDMDL
MODEL 2
REMARK VINA RESULT:      -6.1      1.971      4.956
REMARK  7 active torsions:
REMARK  status: ('A' for Active; 'I' for Inactive)
REMARK    1  A    between atoms: C_2  and  C_3 
REMARK    2  A    between atoms: C_3  and  O_6 
REMARK    3  A    between atoms: C_3  and  C_4 
REMARK    4  A    between atoms: C_7  and  O_6 
REMARK    5  A    between atoms: C_9  and  C_10 
REMARK    6  A    between atoms: N_15  and  C_14 
REMARK    7  A    between atoms: N_20  and  C_19 
REMARK       I    between atoms: C_22  and  N_20 
ROOT
ATOM      1  C   LIG d   1       1.143  82.909 111.599  0.00  0.00     0.161 C 
ATOM      2  C   LIG d   1       2.434  82.744 111.071  0.00  0.00     0.016 C 
ATOM      3  C   LIG d   1       2.752  81.787 110.079  0.00  0.00     0.038 C 
ATOM      4  C   LIG d   1       1.762  81.029 109.437  0.00  0.00     0.028 C 
ATOM      5  C   LIG d   1       0.520  80.804 110.292  0.00  0.00    -0.047 C 
ATOM      6  C   LIG d   1       0.029  82.168 110.831  0.00  0.00     0.091 C 
ENDROOT
BRANCH   1   7
ATOM      7  O   LIG d   1       0.832  84.313 111.700  0.00  0.00    -0.368 OA
BRANCH   7   8
ATOM      8  C   LIG d   1       1.338  85.156 110.635  0.00  0.00     0.119 C 
BRANCH   8   9
ATOM      9  C   LIG d   1       1.868  86.450 111.281  0.00  0.00     0.028 C 
ATOM     10  C   LIG d   1       3.309  86.301 111.798  0.00  0.00     0.006 C 
ENDBRANCH   8   9
BRANCH   8  11
ATOM     11  C   LIG d   1       0.214  85.602 109.695  0.00  0.00     0.028 C 
ATOM     12  C   LIG d   1      -1.148  85.699 110.400  0.00  0.00     0.006 C 
ENDBRANCH   8  11
ENDBRANCH   7   8
ENDBRANCH   1   7
BRANCH   6  13
ATOM     13  N   LIG d   1      -1.134  82.030 111.746  0.00  0.00    -0.311 N 
ATOM     14  C   LIG d   1      -1.144  81.218 112.802  0.00  0.00     0.210 C 
ATOM     15  C   LIG d   1      -2.451  81.212 113.601  0.00  0.00     0.109 C 
ATOM     16  O   LIG d   1      -0.184  80.525 113.170  0.00  0.00    -0.276 OA
ATOM     17  H   LIG d   1      -1.945  82.579 111.539  0.00  0.00     0.149 HD
ENDBRANCH   6  13
BRANCH   5  18
ATOM     18  N   LIG d   1      -0.482  80.121 109.452  0.00  0.00     0.381 N 
ATOM     19  H   LIG d   1      -1.207  79.743 110.029  0.00  0.00    -0.090 HD
ATOM     20  H   LIG d   1      -0.036  79.361 108.968  0.00  0.00    -0.090 HD
ATOM     21  H   LIG d   1      -0.870  80.761 108.795  0.00  0.00    -0.090 HD
ENDBRANCH   5  18
BRANCH   3  22
ATOM     22  C   LIG d   1       4.078  81.554 109.750  0.00  0.00     0.382 C 
ATOM     23  O   LIG d   1       4.820  82.510 109.419  0.00  0.00    -0.241 OA
ATOM     24  O   LIG d   1       4.531  80.393 109.738  0.00  0.00    -0.241 OA
ENDBRANCH   3  22
TORSDOF 7
ENDMDL
MODEL 3
REMARK VINA RESULT:      -5.8      3.330      5.808
REMARK  7 active torsions:
REMARK  status: ('A' for Active; 'I' for Inactive)
REMARK    1  A    between atoms: C_2  and  C_3 
REMARK    2  A    between atoms: C_3  and  O_6 
REMARK    3  A    between atoms: C_3  and  C_4 
REMARK    4  A    between atoms: C_7  and  O_6 
REMARK    5  A    between atoms: C_9  and  C_10 
REMARK    6  A    between atoms: N_15  and  C_14 
REMARK    7  A    between atoms: N_20  and  C_19 
REMARK       I    between atoms: C_22  and  N_20 
ROOT
ATOM      1  C   LIG d   1       2.193  86.198 112.621  0.00  0.00     0.161 C 
ATOM      2  C   LIG d   1       2.477  87.568 112.750  0.00  0.00     0.016 C 
ATOM      3  C   LIG d   1       3.253  88.106 113.802  0.00  0.00     0.038 C 
ATOM      4  C   LIG d   1       3.927  87.287 114.721  0.00  0.00     0.028 C 
ATOM      5  C   LIG d   1       3.258  85.933 114.929  0.00  0.00    -0.047 C 
ATOM      6  C   LIG d   1       3.011  85.277 113.551  0.00  0.00     0.091 C 
ENDROOT
BRANCH   1   7
ATOM      7  O   LIG d   1       2.352  85.792 111.247  0.00  0.00    -0.368 OA
BRANCH   7   8
ATOM      8  C   LIG d   1       1.266  85.018 110.682  0.00  0.00     0.119 C 
BRANCH   8   9
ATOM      9  C   LIG d   1       1.865  84.109 109.591  0.00  0.00     0.028 C 
ATOM     10  C   LIG d   1       1.268  82.691 109.616  0.00  0.00     0.006 C 
ENDBRANCH   8   9
BRANCH   8  11
ATOM     11  C   LIG d   1       0.261  85.916 109.954  0.00  0.00     0.028 C 
ATOM     12  C   LIG d   1      -1.179  85.729 110.457  0.00  0.00     0.006 C 
ENDBRANCH   8  11
ENDBRANCH   7   8
ENDBRANCH   1   7
BRANCH   6  13
ATOM     13  N   LIG d   1       2.284  83.986 113.659  0.00  0.00    -0.311 N 
ATOM     14  C   LIG d   1       2.668  82.874 113.034  0.00  0.00     0.210 C 
ATOM     15  C   LIG d   1       1.765  81.658 113.265  0.00  0.00     0.109 C 
ATOM     16  O   LIG d   1       3.687  82.771 112.336  0.00  0.00    -0.276 OA
ATOM     17  H   LIG d   1       1.462  83.972 114.230  0.00  0.00     0.149 HD
ENDBRANCH   6  13
BRANCH   5  18
ATOM     18  N   LIG d   1       4.137  85.131 115.801  0.00  0.00     0.381 N 
ATOM     19  H   LIG d   1       4.790  84.617 115.244  0.00  0.00    -0.090 HD
ATOM     20  H   LIG d   1       3.575  84.474 116.314  0.00  0.00    -0.090 HD
ATOM     21  H   LIG d   1       4.625  85.727 116.433  0.00  0.00    -0.090 HD
ENDBRANCH   5  18
BRANCH   3  22
ATOM     22  C   LIG d   1       3.327  89.481 113.968  0.00  0.00     0.382 C 
ATOM     23  O   LIG d   1       2.911  90.008 115.027  0.00  0.00    -0.241 OA
ATOM     24  O   LIG d   1       3.763  90.204 113.052  0.00  0.00    -0.241 OA
ENDBRANCH   3  22
TORSDOF 7
ENDMDL
MODEL 4
REMARK VINA RESULT:      -5.7      2.463      4.448
REMARK  7 active torsions:
REMARK  status: ('A' for Active; 'I' for Inactive)
REMARK    1  A    between atoms: C_2  and  C_3 
REMARK    2  A    between atoms: C_3  and  O_6 
REMARK    3  A    between atoms: C_3  and  C_4 
REMARK    4  A    between atoms: C_7  and  O_6 
REMARK    5  A    between atoms: C_9  and  C_10 
REMARK    6  A    between atoms: N_15  and  C_14 
REMARK    7  A    between atoms: N_20  and  C_19 
REMARK       I    between atoms: C_22  and  N_20 
ROOT
ATOM      1  C   LIG d   1       0.686  83.856 109.683  0.00  0.00     0.161 C 
ATOM      2  C   LIG d   1       0.412  85.145 110.170  0.00  0.00     0.016 C 
ATOM      3  C   LIG d   1      -0.382  85.393 111.313  0.00  0.00     0.038 C 
ATOM      4  C   LIG d   1      -0.834  84.354 112.141  0.00  0.00     0.028 C 
ATOM      5  C   LIG d   1      -1.006  83.027 111.410  0.00  0.00    -0.047 C 
ATOM      6  C   LIG d   1       0.294  82.708 110.637  0.00  0.00     0.091 C 
ENDROOT
BRANCH   1   7
ATOM      7  O   LIG d   1       2.078  83.755 109.324  0.00  0.00    -0.368 OA
BRANCH   7   8
ATOM      8  C   LIG d   1       2.970  83.272 110.358  0.00  0.00     0.119 C 
BRANCH   8   9
ATOM      9  C   LIG d   1       3.636  84.501 111.006  0.00  0.00     0.028 C 
ATOM     10  C   LIG d   1       3.420  84.551 112.528  0.00  0.00     0.006 C 
ENDBRANCH   8   9
BRANCH   8  11
ATOM     11  C   LIG d   1       4.121  82.453 109.764  0.00  0.00     0.028 C 
ATOM     12  C   LIG d   1       3.983  80.947 110.036  0.00  0.00     0.006 C 
ENDBRANCH   8  11
ENDBRANCH   7   8
ENDBRANCH   1   7
BRANCH   6  13
ATOM     13  N   LIG d   1       0.181  81.468 109.826  0.00  0.00    -0.311 N 
ATOM     14  C   LIG d   1       0.394  80.248 110.317  0.00  0.00     0.210 C 
ATOM     15  C   LIG d   1       0.244  79.108 109.305  0.00  0.00     0.109 C 
ATOM     16  O   LIG d   1       0.661  80.000 111.502  0.00  0.00    -0.276 OA
ATOM     17  H   LIG d   1      -0.063  81.575 108.861  0.00  0.00     0.149 HD
ENDBRANCH   6  13
BRANCH   5  18
ATOM     18  N   LIG d   1      -1.347  82.004 112.416  0.00  0.00     0.381 N 
ATOM     19  H   LIG d   1      -0.547  81.434 112.604  0.00  0.00    -0.090 HD
ATOM     20  H   LIG d   1      -2.074  81.416 112.049  0.00  0.00    -0.090 HD
ATOM     21  H   LIG d   1      -1.656  82.442 113.256  0.00  0.00    -0.090 HD
ENDBRANCH   5  18
BRANCH   3  22
ATOM     22  C   LIG d   1      -0.764  86.690 111.616  0.00  0.00     0.382 C 
ATOM     23  O   LIG d   1      -1.972  87.021 111.541  0.00  0.00    -0.241 OA
ATOM     24  O   LIG d   1       0.088  87.546 111.920  0.00  0.00    -0.241 OA
ENDBRANCH   3  22
TORSDOF 7
ENDMDL
MODEL 5
REMARK VINA RESULT:      -5.7      6.191      9.513
REMARK  7 active torsions:
REMARK  status: ('A' for Active; 'I' for Inactive)
REMARK    1  A    between atoms: C_2  and  C_3 
REMARK    2  A    between atoms: C_3  and  O_6 
REMARK    3  A    between atoms: C_3  and  C_4 
REMARK    4  A    between atoms: C_7  and  O_6 
REMARK    5  A    between atoms: C_9  and  C_10 
REMARK    6  A    between atoms: N_15  and  C_14 
REMARK    7  A    between atoms: N_20  and  C_19 
REMARK       I    between atoms: C_22  and  N_20 
ROOT
ATOM      1  C   LIG d   1      -2.916  77.056 116.134  0.00  0.00     0.161 C 
ATOM      2  C   LIG d   1      -3.258  77.930 115.088  0.00  0.00     0.016 C 
ATOM      3  C   LIG d   1      -2.478  78.088 113.920  0.00  0.00     0.038 C 
ATOM      4  C   LIG d   1      -1.376  77.265 113.647  0.00  0.00     0.028 C 
ATOM      5  C   LIG d   1      -0.703  76.718 114.902  0.00  0.00    -0.047 C 
ATOM      6  C   LIG d   1      -1.777  76.069 115.804  0.00  0.00     0.091 C 
ENDROOT
BRANCH   1   7
ATOM      7  O   LIG d   1      -4.087  76.341 116.575  0.00  0.00    -0.368 OA
BRANCH   7   8
ATOM      8  C   LIG d   1      -5.024  75.952 115.540  0.00  0.00     0.119 C 
BRANCH   8   9
ATOM      9  C   LIG d   1      -6.442  76.069 116.132  0.00  0.00     0.028 C 
ATOM     10  C   LIG d   1      -6.641  77.371 116.925  0.00  0.00     0.006 C 
ENDBRANCH   8   9
BRANCH   8  11
ATOM     11  C   LIG d   1      -4.861  74.476 115.166  0.00  0.00     0.028 C 
ATOM     12  C   LIG d   1      -6.138  73.870 114.561  0.00  0.00     0.006 C 
ENDBRANCH   8  11
ENDBRANCH   7   8
ENDBRANCH   1   7
BRANCH   6  13
ATOM     13  N   LIG d   1      -1.217  75.583 117.092  0.00  0.00    -0.311 N 
ATOM     14  C   LIG d   1      -0.804  74.332 117.287  0.00  0.00     0.210 C 
ATOM     15  C   LIG d   1      -0.279  74.036 118.695  0.00  0.00     0.109 C 
ATOM     16  O   LIG d   1      -0.794  73.447 116.418  0.00  0.00    -0.276 OA
ATOM     17  H   LIG d   1      -1.160  76.243 117.843  0.00  0.00     0.149 HD
ENDBRANCH   6  13
BRANCH   5  18
ATOM     18  N   LIG d   1       0.341  75.769 114.471  0.00  0.00     0.381 N 
ATOM     19  H   LIG d   1      -0.064  75.059 113.894  0.00  0.00    -0.090 HD
ATOM     20  H   LIG d   1       0.735  75.328 115.283  0.00  0.00    -0.090 HD
ATOM     21  H   LIG d   1       1.052  76.251 113.967  0.00  0.00    -0.090 HD
ENDBRANCH   5  18
BRANCH   3  22
ATOM     22  C   LIG d   1      -2.777  79.106 113.027  0.00  0.00     0.382 C 
ATOM     23  O   LIG d   1      -2.177  79.171 111.927  0.00  0.00    -0.241 OA
ATOM     24  O   LIG d   1      -3.607  79.986 113.326  0.00  0.00    -0.241 OA
ENDBRANCH   3  22
TORSDOF 7
ENDMDL
MODEL 6
REMARK VINA RESULT:      -5.6      7.594     10.783
REMARK  7 active torsions:
REMARK  status: ('A' for Active; 'I' for Inactive)
REMARK    1  A    between atoms: C_2  and  C_3 
REMARK    2  A    between atoms: C_3  and  O_6 
REMARK    3  A    between atoms: C_3  and  C_4 
REMARK    4  A    between atoms: C_7  and  O_6 
REMARK    5  A    between atoms: C_9  and  C_10 
REMARK    6  A    between atoms: N_15  and  C_14 
REMARK    7  A    between atoms: N_20  and  C_19 
REMARK       I    between atoms: C_22  and  N_20 
ROOT
ATOM      1  C   LIG d   1      -6.561  77.964 117.287  0.00  0.00     0.161 C 
ATOM      2  C   LIG d   1      -7.925  77.885 117.613  0.00  0.00     0.016 C 
ATOM      3  C   LIG d   1      -8.685  78.993 118.053  0.00  0.00     0.038 C 
ATOM      4  C   LIG d   1      -8.165  80.296 118.052  0.00  0.00     0.028 C 
ATOM      5  C   LIG d   1      -6.649  80.343 118.213  0.00  0.00    -0.047 C 
ATOM      6  C   LIG d   1      -6.004  79.398 117.173  0.00  0.00     0.091 C 
ENDROOT
BRANCH   1   7
ATOM      7  O   LIG d   1      -6.306  77.230 116.073  0.00  0.00    -0.368 OA
BRANCH   7   8
ATOM      8  C   LIG d   1      -5.508  76.028 116.210  0.00  0.00     0.119 C 
BRANCH   8   9
ATOM      9  C   LIG d   1      -4.416  76.072 115.123  0.00  0.00     0.028 C 
ATOM     10  C   LIG d   1      -3.004  75.875 115.701  0.00  0.00     0.006 C 
ENDBRANCH   8   9
BRANCH   8  11
ATOM     11  C   LIG d   1      -6.332  74.774 115.906  0.00  0.00     0.028 C 
ATOM     12  C   LIG d   1      -6.137  74.266 114.469  0.00  0.00     0.006 C 
ENDBRANCH   8  11
ENDBRANCH   7   8
ENDBRANCH   1   7
BRANCH   6  13
ATOM     13  N   LIG d   1      -4.527  79.321 117.317  0.00  0.00    -0.311 N 
ATOM     14  C   LIG d   1      -3.679  79.588 116.326  0.00  0.00     0.210 C 
ATOM     15  C   LIG d   1      -2.198  79.427 116.681  0.00  0.00     0.109 C 
ATOM     16  O   LIG d   1      -4.012  79.974 115.195  0.00  0.00    -0.276 OA
ATOM     17  H   LIG d   1      -4.170  79.045 118.211  0.00  0.00     0.149 HD
ENDBRANCH   6  13
BRANCH   5  18
ATOM     18  N   LIG d   1      -6.228  81.748 118.057  0.00  0.00     0.381 N 
ATOM     19  H   LIG d   1      -6.605  82.300 118.801  0.00  0.00    -0.090 HD
ATOM     20  H   LIG d   1      -6.589  82.101 117.188  0.00  0.00    -0.090 HD
ATOM     21  H   LIG d   1      -5.233  81.809 118.060  0.00  0.00    -0.090 HD
ENDBRANCH   5  18
BRANCH   3  22
ATOM     22  C   LIG d   1      -9.969  78.797 118.538  0.00  0.00     0.382 C 
ATOM     23  O   LIG d   1     -10.462  79.612 119.354  0.00  0.00    -0.241 OA
ATOM     24  O   LIG d   1     -10.623  77.791 118.205  0.00  0.00    -0.241 OA
ENDBRANCH   3  22
TORSDOF 7
ENDMDL
MODEL 7
REMARK VINA RESULT:      -5.5      3.707      6.178
REMARK  7 active torsions:
REMARK  status: ('A' for Active; 'I' for Inactive)
REMARK    1  A    between atoms: C_2  and  C_3 
REMARK    2  A    between atoms: C_3  and  O_6 
REMARK    3  A    between atoms: C_3  and  C_4 
REMARK    4  A    between atoms: C_7  and  O_6 
REMARK    5  A    between atoms: C_9  and  C_10 
REMARK    6  A    between atoms: N_15  and  C_14 
REMARK    7  A    between atoms: N_20  and  C_19 
REMARK       I    between atoms: C_22  and  N_20 
ROOT
ATOM      1  C   LIG d   1       3.119  84.919 113.264  0.00  0.00     0.161 C 
ATOM      2  C   LIG d   1       2.999  86.226 112.763  0.00  0.00     0.016 C 
ATOM      3  C   LIG d   1       3.161  87.382 113.560  0.00  0.00     0.038 C 
ATOM      4  C   LIG d   1       3.605  87.311 114.888  0.00  0.00     0.028 C 
ATOM      5  C   LIG d   1       3.250  85.997 115.576  0.00  0.00    -0.047 C 
ATOM      6  C   LIG d   1       3.713  84.822 114.685  0.00  0.00     0.091 C 
ENDROOT
BRANCH   1   7
ATOM      7  O   LIG d   1       3.883  84.112 112.346  0.00  0.00    -0.368 OA
BRANCH   7   8
ATOM      8  C   LIG d   1       3.119  83.363 111.368  0.00  0.00     0.119 C 
BRANCH   8   9
ATOM      9  C   LIG d   1       3.153  81.882 111.789  0.00  0.00     0.028 C 
ATOM     10  C   LIG d   1       1.848  81.436 112.470  0.00  0.00     0.006 C 
ENDBRANCH   8   9
BRANCH   8  11
ATOM     11  C   LIG d   1       3.785  83.408 109.989  0.00  0.00     0.028 C 
ATOM     12  C   LIG d   1       4.356  82.047 109.559  0.00  0.00     0.006 C 
ENDBRANCH   8  11
ENDBRANCH   7   8
ENDBRANCH   1   7
BRANCH   6  13
ATOM     13  N   LIG d   1       3.328  83.500 115.244  0.00  0.00    -0.311 N 
ATOM     14  C   LIG d   1       4.155  82.738 115.959  0.00  0.00     0.210 C 
ATOM     15  C   LIG d   1       3.564  81.404 116.424  0.00  0.00     0.109 C 
ATOM     16  O   LIG d   1       5.310  83.055 116.278  0.00  0.00    -0.276 OA
ATOM     17  H   LIG d   1       2.398  83.180 115.059  0.00  0.00     0.149 HD
ENDBRANCH   6  13
BRANCH   5  18
ATOM     18  N   LIG d   1       3.891  86.002 116.905  0.00  0.00     0.381 N 
ATOM     19  H   LIG d   1       4.616  86.692 116.928  0.00  0.00    -0.090 HD
ATOM     20  H   LIG d   1       4.307  85.102 117.068  0.00  0.00    -0.090 HD
ATOM     21  H   LIG d   1       3.214  86.197 117.609  0.00  0.00    -0.090 HD
ENDBRANCH   5  18
BRANCH   3  22
ATOM     22  C   LIG d   1       2.838  88.626 113.039  0.00  0.00     0.382 C 
ATOM     23  O   LIG d   1       1.781  88.775 112.380  0.00  0.00    -0.241 OA
ATOM     24  O   LIG d   1       3.612  89.591 113.182  0.00  0.00    -0.241 OA
ENDBRANCH   3  22
TORSDOF 7
ENDMDL
MODEL 8
REMARK VINA RESULT:      -5.4      2.908      5.716
REMARK  7 active torsions:
REMARK  status: ('A' for Active; 'I' for Inactive)
REMARK    1  A    between atoms: C_2  and  C_3 
REMARK    2  A    between atoms: C_3  and  O_6 
REMARK    3  A    between atoms: C_3  and  C_4 
REMARK    4  A    between atoms: C_7  and  O_6 
REMARK    5  A    between atoms: C_9  and  C_10 
REMARK    6  A    between atoms: N_15  and  C_14 
REMARK    7  A    between atoms: N_20  and  C_19 
REMARK       I    between atoms: C_22  and  N_20 
ROOT
ATOM      1  C   LIG d   1       3.589  84.688 112.037  0.00  0.00     0.161 C 
ATOM      2  C   LIG d   1       3.501  85.998 112.536  0.00  0.00     0.016 C 
ATOM      3  C   LIG d   1       2.473  86.900 112.177  0.00  0.00     0.038 C 
ATOM      4  C   LIG d   1       1.371  86.500 111.405  0.00  0.00     0.028 C 
ATOM      5  C   LIG d   1       1.678  85.337 110.469  0.00  0.00    -0.047 C 
ATOM      6  C   LIG d   1       2.336  84.198 111.282  0.00  0.00     0.091 C 
ENDROOT
BRANCH   1   7
ATOM      7  O   LIG d   1       3.917  83.779 113.106  0.00  0.00    -0.368 OA
BRANCH   7   8
ATOM      8  C   LIG d   1       2.903  83.602 114.126  0.00  0.00     0.119 C 
BRANCH   8   9
ATOM      9  C   LIG d   1       3.480  84.138 115.450  0.00  0.00     0.028 C 
ATOM     10  C   LIG d   1       3.124  83.244 116.650  0.00  0.00     0.006 C 
ENDBRANCH   8   9
BRANCH   8  11
ATOM     11  C   LIG d   1       2.619  82.118 114.378  0.00  0.00     0.028 C 
ATOM     12  C   LIG d   1       1.195  81.707 113.972  0.00  0.00     0.006 C 
ENDBRANCH   8  11
ENDBRANCH   7   8
ENDBRANCH   1   7
BRANCH   6  13
ATOM     13  N   LIG d   1       2.745  83.054 110.426  0.00  0.00    -0.311 N 
ATOM     14  C   LIG d   1       1.972  81.992 110.202  0.00  0.00     0.210 C 
ATOM     15  C   LIG d   1       2.594  80.917 109.306  0.00  0.00     0.109 C 
ATOM     16  O   LIG d   1       0.818  81.854 110.635  0.00  0.00    -0.276 OA
ATOM     17  H   LIG d   1       3.655  83.098 110.010  0.00  0.00     0.149 HD
ENDBRANCH   6  13
BRANCH   5  18
ATOM     18  N   LIG d   1       0.412  84.934 109.829  0.00  0.00     0.381 N 
ATOM     19  H   LIG d   1      -0.265  84.707 110.530  0.00  0.00    -0.090 HD
ATOM     20  H   LIG d   1       0.576  84.113 109.272  0.00  0.00    -0.090 HD
ATOM     21  H   LIG d   1       0.071  85.672 109.253  0.00  0.00    -0.090 HD
ENDBRANCH   5  18
BRANCH   3  22
ATOM     22  C   LIG d   1       2.562  88.230 112.558  0.00  0.00     0.382 C 
ATOM     23  O   LIG d   1       1.521  88.924 112.659  0.00  0.00    -0.241 OA
ATOM     24  O   LIG d   1       3.672  88.757 112.759  0.00  0.00    -0.241 OA
ENDBRANCH   3  22
TORSDOF 7
ENDMDL
MODEL 9
REMARK VINA RESULT:      -5.4      7.014      9.761
REMARK  7 active torsions:
REMARK  status: ('A' for Active; 'I' for Inactive)
REMARK    1  A    between atoms: C_2  and  C_3 
REMARK    2  A    between atoms: C_3  and  O_6 
REMARK    3  A    between atoms: C_3  and  C_4 
REMARK    4  A    between atoms: C_7  and  O_6 
REMARK    5  A    between atoms: C_9  and  C_10 
REMARK    6  A    between atoms: N_15  and  C_14 
REMARK    7  A    between atoms: N_20  and  C_19 
REMARK       I    between atoms: C_22  and  N_20 
ROOT
ATOM      1  C   LIG d   1      -4.223  76.835 115.188  0.00  0.00     0.161 C 
ATOM      2  C   LIG d   1      -4.598  75.574 114.696  0.00  0.00     0.016 C 
ATOM      3  C   LIG d   1      -5.735  74.868 115.151  0.00  0.00     0.038 C 
ATOM      4  C   LIG d   1      -6.666  75.446 116.027  0.00  0.00     0.028 C 
ATOM      5  C   LIG d   1      -6.063  76.515 116.932  0.00  0.00    -0.047 C 
ATOM      6  C   LIG d   1      -5.288  77.531 116.062  0.00  0.00     0.091 C 
ENDROOT
BRANCH   1   7
ATOM      7  O   LIG d   1      -3.837  77.691 114.094  0.00  0.00    -0.368 OA
BRANCH   7   8
ATOM      8  C   LIG d   1      -2.586  77.364 113.440  0.00  0.00     0.119 C 
BRANCH   8   9
ATOM      9  C   LIG d   1      -1.456  77.596 114.462  0.00  0.00     0.028 C 
ATOM     10  C   LIG d   1      -0.614  76.331 114.702  0.00  0.00     0.006 C 
ENDBRANCH   8   9
BRANCH   8  11
ATOM     11  C   LIG d   1      -2.292  78.326 112.286  0.00  0.00     0.028 C 
ATOM     12  C   LIG d   1      -2.051  77.601 110.952  0.00  0.00     0.006 C 
ENDBRANCH   8  11
ENDBRANCH   7   8
ENDBRANCH   1   7
BRANCH   6  13
ATOM     13  N   LIG d   1      -4.596  78.563 116.877  0.00  0.00    -0.311 N 
ATOM     14  C   LIG d   1      -5.116  79.761 117.138  0.00  0.00     0.210 C 
ATOM     15  C   LIG d   1      -4.228  80.683 117.980  0.00  0.00     0.109 C 
ATOM     16  O   LIG d   1      -6.243  80.137 116.779  0.00  0.00    -0.276 OA
ATOM     17  H   LIG d   1      -3.690  78.331 117.234  0.00  0.00     0.149 HD
ENDBRANCH   6  13
BRANCH   5  18
ATOM     18  N   LIG d   1      -7.167  77.130 117.693  0.00  0.00     0.381 N 
ATOM     19  H   LIG d   1      -7.652  76.427 118.214  0.00  0.00    -0.090 HD
ATOM     20  H   LIG d   1      -7.814  77.546 117.047  0.00  0.00    -0.090 HD
ATOM     21  H   LIG d   1      -6.810  77.824 118.311  0.00  0.00    -0.090 HD
ENDBRANCH   5  18
BRANCH   3  22
ATOM     22  C   LIG d   1      -5.929  73.551 114.760  0.00  0.00     0.382 C 
ATOM     23  O   LIG d   1      -6.287  72.693 115.603  0.00  0.00    -0.241 OA
ATOM     24  O   LIG d   1      -5.707  73.202 113.585  0.00  0.00    -0.241 OA
ENDBRANCH   3  22
TORSDOF 7
ENDMDL
