MODEL 1
REMARK VINA RESULT:      -6.0      0.000      0.000
REMARK  7 active torsions:
REMARK  status: ('A' for Active; 'I' for Inactive)
REMARK    1  A    between atoms: C_2  and  C_3 
REMARK    2  A    between atoms: C_3  and  O_6 
REMARK    3  A    between atoms: C_3  and  C_4 
REMARK    4  A    between atoms: C_7  and  O_6 
REMARK    5  A    between atoms: C_9  and  C_10 
REMARK    6  A    between atoms: N_15  and  C_14 
REMARK    7  A    between atoms: N_20  and  C_19 
REMARK       I    between atoms: C_22  and  N_20 
ROOT
ATOM      1  C   LIG d   1       0.101  82.533 111.854  0.00  0.00     0.161 C 
ATOM      2  C   LIG d   1      -1.141  82.188 112.411  0.00  0.00     0.016 C 
ATOM      3  C   LIG d   1      -1.774  80.943 112.190  0.00  0.00     0.038 C 
ATOM      4  C   LIG d   1      -1.132  79.895 111.514  0.00  0.00     0.028 C 
ATOM      5  C   LIG d   1      -0.091  80.371 110.506  0.00  0.00    -0.047 C 
ATOM      6  C   LIG d   1       0.868  81.362 111.205  0.00  0.00     0.091 C 
ENDROOT
BRANCH   1   7
ATOM      7  O   LIG d   1       0.921  83.178 112.850  0.00  0.00    -0.368 OA
BRANCH   7   8
ATOM      8  C   LIG d   1       1.017  84.620 112.759  0.00  0.00     0.119 C 
BRANCH   8   9
ATOM      9  C   LIG d   1       2.436  84.959 112.261  0.00  0.00     0.028 C 
ATOM     10  C   LIG d   1       2.435  85.535 110.835  0.00  0.00     0.006 C 
ENDBRANCH   8   9
BRANCH   8  11
ATOM     11  C   LIG d   1       0.906  85.274 114.140  0.00  0.00     0.028 C 
ATOM     12  C   LIG d   1      -0.549  85.425 114.612  0.00  0.00     0.006 C 
ENDBRANCH   8  11
ENDBRANCH   7   8
ENDBRANCH   1   7
BRANCH   6  13
ATOM     13  N   LIG d   1       1.866  81.941 110.269  0.00  0.00    -0.311 N 
ATOM     14  C   LIG d   1       3.175  81.711 110.359  0.00  0.00     0.210 C 
ATOM     15  C   LIG d   1       4.030  82.422 109.305  0.00  0.00     0.109 C 
ATOM     16  O   LIG d   1       3.706  80.960 111.191  0.00  0.00    -0.276 OA
ATOM     17  H   LIG d   1       1.519  82.537 109.544  0.00  0.00     0.149 HD
ENDBRANCH   6  13
BRANCH   5  18
ATOM     18  N   LIG d   1       0.595  79.178 109.976  0.00  0.00     0.381 N 
ATOM     19  H   LIG d   1       1.024  79.396 109.099  0.00  0.00    -0.090 HD
ATOM     20  H   LIG d   1      -0.084  78.453 109.825  0.00  0.00    -0.090 HD
ATOM     21  H   LIG d   1       1.286  78.867 110.623  0.00  0.00    -0.090 HD
ENDBRANCH   5  18
BRANCH   3  22
ATOM     22  C   LIG d   1      -3.080  80.751 112.613  0.00  0.00     0.382 C 
ATOM     23  O   LIG d   1      -3.390  79.708 113.238  0.00  0.00    -0.241 OA
ATOM     24  O   LIG d   1      -3.962  81.587 112.339  0.00  0.00    -0.241 OA
ENDBRANCH   3  22
TORSDOF 7
ENDMDL
MODEL 2
REMARK VINA RESULT:      -5.9      9.354     12.258
REMARK  7 active torsions:
REMARK  status: ('A' for Active; 'I' for Inactive)
REMARK    1  A    between atoms: C_2  and  C_3 
REMARK    2  A    between atoms: C_3  and  O_6 
REMARK    3  A    between atoms: C_3  and  C_4 
REMARK    4  A    between atoms: C_7  and  O_6 
REMARK    5  A    between atoms: C_9  and  C_10 
REMARK    6  A    between atoms: N_15  and  C_14 
REMARK    7  A    between atoms: N_20  and  C_19 
REMARK       I    between atoms: C_22  and  N_20 
ROOT
ATOM      1  C   LIG d   1      -7.894  75.854 117.368  0.00  0.00     0.161 C 
ATOM      2  C   LIG d   1      -8.924  76.579 117.990  0.00  0.00     0.016 C 
ATOM      3  C   LIG d   1      -8.850  77.966 118.254  0.00  0.00     0.038 C 
ATOM      4  C   LIG d   1      -7.796  78.757 117.773  0.00  0.00     0.028 C 
ATOM      5  C   LIG d   1      -6.496  77.983 117.581  0.00  0.00    -0.047 C 
ATOM      6  C   LIG d   1      -6.784  76.720 116.737  0.00  0.00     0.091 C 
ENDROOT
BRANCH   1   7
ATOM      7  O   LIG d   1      -8.452  74.959 116.385  0.00  0.00    -0.368 OA
BRANCH   7   8
ATOM      8  C   LIG d   1      -8.349  73.545 116.680  0.00  0.00     0.119 C 
BRANCH   8   9
ATOM      9  C   LIG d   1      -7.305  72.945 115.718  0.00  0.00     0.028 C 
ATOM     10  C   LIG d   1      -6.864  71.533 116.137  0.00  0.00     0.006 C 
ENDBRANCH   8   9
BRANCH   8  11
ATOM     11  C   LIG d   1      -9.658  72.814 116.365  0.00  0.00     0.028 C 
ATOM     12  C   LIG d   1     -10.902  73.671 116.646  0.00  0.00     0.006 C 
ENDBRANCH   8  11
ENDBRANCH   7   8
ENDBRANCH   1   7
BRANCH   6  13
ATOM     13  N   LIG d   1      -5.582  75.862 116.573  0.00  0.00    -0.311 N 
ATOM     14  C   LIG d   1      -4.769  75.931 115.520  0.00  0.00     0.210 C 
ATOM     15  C   LIG d   1      -3.599  74.942 115.540  0.00  0.00     0.109 C 
ATOM     16  O   LIG d   1      -4.887  76.741 114.588  0.00  0.00    -0.276 OA
ATOM     17  H   LIG d   1      -5.393  75.198 117.298  0.00  0.00     0.149 HD
ENDBRANCH   6  13
BRANCH   5  18
ATOM     18  N   LIG d   1      -5.524  78.893 116.947  0.00  0.00     0.381 N 
ATOM     19  H   LIG d   1      -5.238  78.521 116.064  0.00  0.00    -0.090 HD
ATOM     20  H   LIG d   1      -4.714  78.965 117.537  0.00  0.00    -0.090 HD
ATOM     21  H   LIG d   1      -5.932  79.793 116.820  0.00  0.00    -0.090 HD
ENDBRANCH   5  18
BRANCH   3  22
ATOM     22  C   LIG d   1      -9.820  78.569 119.041  0.00  0.00     0.382 C 
ATOM     23  O   LIG d   1      -9.958  79.816 119.019  0.00  0.00    -0.241 OA
ATOM     24  O   LIG d   1     -10.527  77.886 119.805  0.00  0.00    -0.241 OA
ENDBRANCH   3  22
TORSDOF 7
ENDMDL
MODEL 3
REMARK VINA RESULT:      -5.9      2.246      5.278
REMARK  7 active torsions:
REMARK  status: ('A' for Active; 'I' for Inactive)
REMARK    1  A    between atoms: C_2  and  C_3 
REMARK    2  A    between atoms: C_3  and  O_6 
REMARK    3  A    between atoms: C_3  and  C_4 
REMARK    4  A    between atoms: C_7  and  O_6 
REMARK    5  A    between atoms: C_9  and  C_10 
REMARK    6  A    between atoms: N_15  and  C_14 
REMARK    7  A    between atoms: N_20  and  C_19 
REMARK       I    between atoms: C_22  and  N_20 
ROOT
ATOM      1  C   LIG d   1      -0.292  83.404 112.425  0.00  0.00     0.161 C 
ATOM      2  C   LIG d   1       0.556  84.394 111.902  0.00  0.00     0.016 C 
ATOM      3  C   LIG d   1       1.152  84.312 110.623  0.00  0.00     0.038 C 
ATOM      4  C   LIG d   1       0.817  83.298 109.713  0.00  0.00     0.028 C 
ATOM      5  C   LIG d   1       0.356  82.009 110.385  0.00  0.00    -0.047 C 
ATOM      6  C   LIG d   1      -0.757  82.345 111.404  0.00  0.00     0.091 C 
ENDROOT
BRANCH   1   7
ATOM      7  O   LIG d   1      -1.430  84.020 113.060  0.00  0.00    -0.368 OA
BRANCH   7   8
ATOM      8  C   LIG d   1      -1.376  84.122 114.505  0.00  0.00     0.119 C 
BRANCH   8   9
ATOM      9  C   LIG d   1      -2.782  83.795 115.044  0.00  0.00     0.028 C 
ATOM     10  C   LIG d   1      -2.798  82.521 115.906  0.00  0.00     0.006 C 
ENDBRANCH   8   9
BRANCH   8  11
ATOM     11  C   LIG d   1      -1.094  85.560 114.952  0.00  0.00     0.028 C 
ATOM     12  C   LIG d   1       0.374  85.783 115.348  0.00  0.00     0.006 C 
ENDBRANCH   8  11
ENDBRANCH   7   8
ENDBRANCH   1   7
BRANCH   6  13
ATOM     13  N   LIG d   1      -1.206  81.151 112.167  0.00  0.00    -0.311 N 
ATOM     14  C   LIG d   1      -2.483  80.900 112.450  0.00  0.00     0.210 C 
ATOM     15  C   LIG d   1      -2.726  79.625 113.264  0.00  0.00     0.109 C 
ATOM     16  O   LIG d   1      -3.440  81.595 112.077  0.00  0.00    -0.276 OA
ATOM     17  H   LIG d   1      -0.497  80.517 112.481  0.00  0.00     0.149 HD
ENDBRANCH   6  13
BRANCH   5  18
ATOM     18  N   LIG d   1      -0.091  81.088 109.323  0.00  0.00     0.381 N 
ATOM     19  H   LIG d   1      -0.618  80.338 109.725  0.00  0.00    -0.090 HD
ATOM     20  H   LIG d   1       0.716  80.698 108.869  0.00  0.00    -0.090 HD
ATOM     21  H   LIG d   1      -0.650  81.578 108.659  0.00  0.00    -0.090 HD
ENDBRANCH   5  18
BRANCH   3  22
ATOM     22  C   LIG d   1       2.124  85.230 110.257  0.00  0.00     0.382 C 
ATOM     23  O   LIG d   1       1.805  86.420 110.020  0.00  0.00    -0.241 OA
ATOM     24  O   LIG d   1       3.309  84.873 110.118  0.00  0.00    -0.241 OA
ENDBRANCH   3  22
TORSDOF 7
ENDMDL
MODEL 4
REMARK VINA RESULT:      -5.7      9.245     11.451
REMARK  7 active torsions:
REMARK  status: ('A' for Active; 'I' for Inactive)
REMARK    1  A    between atoms: C_2  and  C_3 
REMARK    2  A    between atoms: C_3  and  O_6 
REMARK    3  A    between atoms: C_3  and  C_4 
REMARK    4  A    between atoms: C_7  and  O_6 
REMARK    5  A    between atoms: C_9  and  C_10 
REMARK    6  A    between atoms: N_15  and  C_14 
REMARK    7  A    between atoms: N_20  and  C_19 
REMARK       I    between atoms: C_22  and  N_20 
ROOT
ATOM      1  C   LIG d   1      -7.060  75.674 115.878  0.00  0.00     0.161 C 
ATOM      2  C   LIG d   1      -8.402  75.516 116.262  0.00  0.00     0.016 C 
ATOM      3  C   LIG d   1      -8.966  74.272 116.628  0.00  0.00     0.038 C 
ATOM      4  C   LIG d   1      -8.182  73.119 116.781  0.00  0.00     0.028 C 
ATOM      5  C   LIG d   1      -6.924  73.123 115.918  0.00  0.00    -0.047 C 
ATOM      6  C   LIG d   1      -6.163  74.448 116.147  0.00  0.00     0.091 C 
ENDROOT
BRANCH   1   7
ATOM      7  O   LIG d   1      -6.507  76.847 116.507  0.00  0.00    -0.368 OA
BRANCH   7   8
ATOM      8  C   LIG d   1      -7.187  77.313 117.699  0.00  0.00     0.119 C 
BRANCH   8   9
ATOM      9  C   LIG d   1      -7.184  78.853 117.662  0.00  0.00     0.028 C 
ATOM     10  C   LIG d   1      -8.557  79.452 118.008  0.00  0.00     0.006 C 
ENDBRANCH   8   9
BRANCH   8  11
ATOM     11  C   LIG d   1      -6.414  76.935 118.965  0.00  0.00     0.028 C 
ATOM     12  C   LIG d   1      -7.096  75.817 119.769  0.00  0.00     0.006 C 
ENDBRANCH   8  11
ENDBRANCH   7   8
ENDBRANCH   1   7
BRANCH   6  13
ATOM     13  N   LIG d   1      -4.963  74.570 115.277  0.00  0.00    -0.311 N 
ATOM     14  C   LIG d   1      -3.749  74.864 115.740  0.00  0.00     0.210 C 
ATOM     15  C   LIG d   1      -2.656  74.960 114.671  0.00  0.00     0.109 C 
ATOM     16  O   LIG d   1      -3.468  75.021 116.937  0.00  0.00    -0.276 OA
ATOM     17  H   LIG d   1      -5.096  74.427 114.295  0.00  0.00     0.149 HD
ENDBRANCH   6  13
BRANCH   5  18
ATOM     18  N   LIG d   1      -6.133  71.931 116.279  0.00  0.00     0.381 N 
ATOM     19  H   LIG d   1      -5.390  71.807 115.621  0.00  0.00    -0.090 HD
ATOM     20  H   LIG d   1      -6.728  71.122 116.240  0.00  0.00    -0.090 HD
ATOM     21  H   LIG d   1      -5.760  72.035 117.197  0.00  0.00    -0.090 HD
ENDBRANCH   5  18
BRANCH   3  22
ATOM     22  C   LIG d   1     -10.337  74.165 116.806  0.00  0.00     0.382 C 
ATOM     23  O   LIG d   1     -10.946  73.150 116.388  0.00  0.00    -0.241 OA
ATOM     24  O   LIG d   1     -10.979  75.089 117.339  0.00  0.00    -0.241 OA
ENDBRANCH   3  22
TORSDOF 7
ENDMDL
MODEL 5
REMARK VINA RESULT:      -5.7      1.398      1.625
REMARK  7 active torsions:
REMARK  status: ('A' for Active; 'I' for Inactive)
REMARK    1  A    between atoms: C_2  and  C_3 
REMARK    2  A    between atoms: C_3  and  O_6 
REMARK    3  A    between atoms: C_3  and  C_4 
REMARK    4  A    between atoms: C_7  and  O_6 
REMARK    5  A    between atoms: C_9  and  C_10 
REMARK    6  A    between atoms: N_15  and  C_14 
REMARK    7  A    between atoms: N_20  and  C_19 
REMARK       I    between atoms: C_22  and  N_20 
ROOT
ATOM      1  C   LIG d   1      -0.722  82.274 111.860  0.00  0.00     0.161 C 
ATOM      2  C   LIG d   1      -1.723  81.496 112.465  0.00  0.00     0.016 C 
ATOM      3  C   LIG d   1      -1.866  80.106 112.248  0.00  0.00     0.038 C 
ATOM      4  C   LIG d   1      -0.918  79.367 111.524  0.00  0.00     0.028 C 
ATOM      5  C   LIG d   1      -0.173  80.194 110.481  0.00  0.00    -0.047 C 
ATOM      6  C   LIG d   1       0.388  81.466 111.156  0.00  0.00     0.091 C 
ENDROOT
BRANCH   1   7
ATOM      7  O   LIG d   1      -0.149  83.172 112.831  0.00  0.00    -0.368 OA
BRANCH   7   8
ATOM      8  C   LIG d   1      -0.793  84.463 112.963  0.00  0.00     0.119 C 
BRANCH   8   9
ATOM      9  C   LIG d   1       0.043  85.481 112.163  0.00  0.00     0.028 C 
ATOM     10  C   LIG d   1      -0.741  86.091 110.989  0.00  0.00     0.006 C 
ENDBRANCH   8   9
BRANCH   8  11
ATOM     11  C   LIG d   1      -0.757  84.959 114.412  0.00  0.00     0.028 C 
ATOM     12  C   LIG d   1      -0.028  83.989 115.355  0.00  0.00     0.006 C 
ENDBRANCH   8  11
ENDBRANCH   7   8
ENDBRANCH   1   7
BRANCH   6  13
ATOM     13  N   LIG d   1       1.059  82.373 110.188  0.00  0.00    -0.311 N 
ATOM     14  C   LIG d   1       2.226  82.968 110.429  0.00  0.00     0.210 C 
ATOM     15  C   LIG d   1       2.731  83.878 109.305  0.00  0.00     0.109 C 
ATOM     16  O   LIG d   1       2.906  82.803 111.453  0.00  0.00    -0.276 OA
ATOM     17  H   LIG d   1       0.592  82.537 109.318  0.00  0.00     0.149 HD
ENDBRANCH   6  13
BRANCH   5  18
ATOM     18  N   LIG d   1       0.876  79.337 109.899  0.00  0.00     0.381 N 
ATOM     19  H   LIG d   1       0.474  78.479 109.578  0.00  0.00    -0.090 HD
ATOM     20  H   LIG d   1       1.552  79.122 110.611  0.00  0.00    -0.090 HD
ATOM     21  H   LIG d   1       1.320  79.808 109.141  0.00  0.00    -0.090 HD
ENDBRANCH   5  18
BRANCH   3  22
ATOM     22  C   LIG d   1      -2.989  79.448 112.724  0.00  0.00     0.382 C 
ATOM     23  O   LIG d   1      -3.474  79.761 113.838  0.00  0.00    -0.241 OA
ATOM     24  O   LIG d   1      -3.497  78.514 112.075  0.00  0.00    -0.241 OA
ENDBRANCH   3  22
TORSDOF 7
ENDMDL
MODEL 6
REMARK VINA RESULT:      -5.6      9.240     12.354
REMARK  7 active torsions:
REMARK  status: ('A' for Active; 'I' for Inactive)
REMARK    1  A    between atoms: C_2  and  C_3 
REMARK    2  A    between atoms: C_3  and  O_6 
REMARK    3  A    between atoms: C_3  and  C_4 
REMARK    4  A    between atoms: C_7  and  O_6 
REMARK    5  A    between atoms: C_9  and  C_10 
REMARK    6  A    between atoms: N_15  and  C_14 
REMARK    7  A    between atoms: N_20  and  C_19 
REMARK       I    between atoms: C_22  and  N_20 
ROOT
ATOM      1  C   LIG d   1      -6.751  75.711 115.424  0.00  0.00     0.161 C 
ATOM      2  C   LIG d   1      -5.587  75.262 114.779  0.00  0.00     0.016 C 
ATOM      3  C   LIG d   1      -4.300  75.325 115.363  0.00  0.00     0.038 C 
ATOM      4  C   LIG d   1      -4.111  75.705 116.700  0.00  0.00     0.028 C 
ATOM      5  C   LIG d   1      -5.194  76.643 117.223  0.00  0.00    -0.047 C 
ATOM      6  C   LIG d   1      -6.579  76.026 116.925  0.00  0.00     0.091 C 
ENDROOT
BRANCH   1   7
ATOM      7  O   LIG d   1      -7.815  74.758 115.231  0.00  0.00    -0.368 OA
BRANCH   7   8
ATOM      8  C   LIG d   1      -8.033  73.819 116.312  0.00  0.00     0.119 C 
BRANCH   8   9
ATOM      9  C   LIG d   1      -7.259  72.531 115.969  0.00  0.00     0.028 C 
ATOM     10  C   LIG d   1      -8.132  71.271 116.096  0.00  0.00     0.006 C 
ENDBRANCH   8   9
BRANCH   8  11
ATOM     11  C   LIG d   1      -9.504  73.398 116.396  0.00  0.00     0.028 C 
ATOM     12  C   LIG d   1     -10.421  74.532 116.879  0.00  0.00     0.006 C 
ENDBRANCH   8  11
ENDBRANCH   7   8
ENDBRANCH   1   7
BRANCH   6  13
ATOM     13  N   LIG d   1      -7.696  76.919 117.328  0.00  0.00    -0.311 N 
ATOM     14  C   LIG d   1      -8.271  76.878 118.529  0.00  0.00     0.210 C 
ATOM     15  C   LIG d   1      -9.419  77.872 118.731  0.00  0.00     0.109 C 
ATOM     16  O   LIG d   1      -7.919  76.134 119.457  0.00  0.00    -0.276 OA
ATOM     17  H   LIG d   1      -8.024  77.575 116.647  0.00  0.00     0.149 HD
ENDBRANCH   6  13
BRANCH   5  18
ATOM     18  N   LIG d   1      -4.949  76.848 118.663  0.00  0.00     0.381 N 
ATOM     19  H   LIG d   1      -4.335  76.137 119.006  0.00  0.00    -0.090 HD
ATOM     20  H   LIG d   1      -5.822  76.775 119.154  0.00  0.00    -0.090 HD
ATOM     21  H   LIG d   1      -4.548  77.747 118.816  0.00  0.00    -0.090 HD
ENDBRANCH   5  18
BRANCH   3  22
ATOM     22  C   LIG d   1      -3.182  75.043 114.594  0.00  0.00     0.382 C 
ATOM     23  O   LIG d   1      -2.253  74.347 115.070  0.00  0.00    -0.241 OA
ATOM     24  O   LIG d   1      -3.070  75.513 113.446  0.00  0.00    -0.241 OA
ENDBRANCH   3  22
TORSDOF 7
ENDMDL
MODEL 7
REMARK VINA RESULT:      -5.6      2.491      5.856
REMARK  7 active torsions:
REMARK  status: ('A' for Active; 'I' for Inactive)
REMARK    1  A    between atoms: C_2  and  C_3 
REMARK    2  A    between atoms: C_3  and  O_6 
REMARK    3  A    between atoms: C_3  and  C_4 
REMARK    4  A    between atoms: C_7  and  O_6 
REMARK    5  A    between atoms: C_9  and  C_10 
REMARK    6  A    between atoms: N_15  and  C_14 
REMARK    7  A    between atoms: N_20  and  C_19 
REMARK       I    between atoms: C_22  and  N_20 
ROOT
ATOM      1  C   LIG d   1       0.398  83.935 110.676  0.00  0.00     0.161 C 
ATOM      2  C   LIG d   1       1.288  85.020 110.620  0.00  0.00     0.016 C 
ATOM      3  C   LIG d   1       1.655  85.784 111.752  0.00  0.00     0.038 C 
ATOM      4  C   LIG d   1       1.272  85.417 113.050  0.00  0.00     0.028 C 
ATOM      5  C   LIG d   1      -0.032  84.629 113.097  0.00  0.00    -0.047 C 
ATOM      6  C   LIG d   1       0.057  83.451 112.101  0.00  0.00     0.091 C 
ENDROOT
BRANCH   1   7
ATOM      7  O   LIG d   1       0.908  82.843 109.885  0.00  0.00    -0.368 OA
BRANCH   7   8
ATOM      8  C   LIG d   1       2.068  82.157 110.418  0.00  0.00     0.119 C 
BRANCH   8   9
ATOM      9  C   LIG d   1       3.133  82.114 109.305  0.00  0.00     0.028 C 
ATOM     10  C   LIG d   1       4.350  82.999 109.623  0.00  0.00     0.006 C 
ENDBRANCH   8   9
BRANCH   8  11
ATOM     11  C   LIG d   1       1.752  80.693 110.735  0.00  0.00     0.028 C 
ATOM     12  C   LIG d   1       0.567  80.149 109.921  0.00  0.00     0.006 C 
ENDBRANCH   8  11
ENDBRANCH   7   8
ENDBRANCH   1   7
BRANCH   6  13
ATOM     13  N   LIG d   1      -1.210  82.677 112.022  0.00  0.00    -0.311 N 
ATOM     14  C   LIG d   1      -1.444  81.579 112.738  0.00  0.00     0.210 C 
ATOM     15  C   LIG d   1      -2.806  80.924 112.491  0.00  0.00     0.109 C 
ATOM     16  O   LIG d   1      -0.665  81.103 113.579  0.00  0.00    -0.276 OA
ATOM     17  H   LIG d   1      -1.909  83.011 111.388  0.00  0.00     0.149 HD
ENDBRANCH   6  13
BRANCH   5  18
ATOM     18  N   LIG d   1      -0.240  84.194 114.491  0.00  0.00     0.381 N 
ATOM     19  H   LIG d   1       0.640  84.135 114.962  0.00  0.00    -0.090 HD
ATOM     20  H   LIG d   1      -0.657  83.280 114.487  0.00  0.00    -0.090 HD
ATOM     21  H   LIG d   1      -0.836  84.837 114.964  0.00  0.00    -0.090 HD
ENDBRANCH   5  18
BRANCH   3  22
ATOM     22  C   LIG d   1       2.382  86.953 111.585  0.00  0.00     0.382 C 
ATOM     23  O   LIG d   1       1.788  88.056 111.511  0.00  0.00    -0.241 OA
ATOM     24  O   LIG d   1       3.621  86.915 111.463  0.00  0.00    -0.241 OA
ENDBRANCH   3  22
TORSDOF 7
ENDMDL
MODEL 8
REMARK VINA RESULT:      -5.5      2.110      2.719
REMARK  7 active torsions:
REMARK  status: ('A' for Active; 'I' for Inactive)
REMARK    1  A    between atoms: C_2  and  C_3 
REMARK    2  A    between atoms: C_3  and  O_6 
REMARK    3  A    between atoms: C_3  and  C_4 
REMARK    4  A    between atoms: C_7  and  O_6 
REMARK    5  A    between atoms: C_9  and  C_10 
REMARK    6  A    between atoms: N_15  and  C_14 
REMARK    7  A    between atoms: N_20  and  C_19 
REMARK       I    between atoms: C_22  and  N_20 
ROOT
ATOM      1  C   LIG d   1      -0.429  81.755 111.205  0.00  0.00     0.161 C 
ATOM      2  C   LIG d   1      -1.506  82.078 112.047  0.00  0.00     0.016 C 
ATOM      3  C   LIG d   1      -1.555  81.728 113.416  0.00  0.00     0.038 C 
ATOM      4  C   LIG d   1      -0.456  81.160 114.077  0.00  0.00     0.028 C 
ATOM      5  C   LIG d   1       0.458  80.361 113.154  0.00  0.00    -0.047 C 
ATOM      6  C   LIG d   1       0.828  81.234 111.934  0.00  0.00     0.091 C 
ENDROOT
BRANCH   1   7
ATOM      7  O   LIG d   1      -0.096  82.890 110.381  0.00  0.00    -0.368 OA
BRANCH   7   8
ATOM      8  C   LIG d   1      -0.091  84.178 111.043  0.00  0.00     0.119 C 
BRANCH   8   9
ATOM      9  C   LIG d   1      -0.741  85.194 110.083  0.00  0.00     0.028 C 
ATOM     10  C   LIG d   1      -1.049  86.536 110.769  0.00  0.00     0.006 C 
ENDBRANCH   8   9
BRANCH   8  11
ATOM     11  C   LIG d   1       1.336  84.686 111.265  0.00  0.00     0.028 C 
ATOM     12  C   LIG d   1       2.138  84.800 109.958  0.00  0.00     0.006 C 
ENDBRANCH   8  11
ENDBRANCH   7   8
ENDBRANCH   1   7
BRANCH   6  13
ATOM     13  N   LIG d   1       1.652  80.499 110.939  0.00  0.00    -0.311 N 
ATOM     14  C   LIG d   1       2.873  80.883 110.571  0.00  0.00     0.210 C 
ATOM     15  C   LIG d   1       3.540  79.993 109.518  0.00  0.00     0.109 C 
ATOM     16  O   LIG d   1       3.480  81.857 111.041  0.00  0.00    -0.276 OA
ATOM     17  H   LIG d   1       1.249  79.678 110.531  0.00  0.00     0.149 HD
ENDBRANCH   6  13
BRANCH   5  18
ATOM     18  N   LIG d   1       1.632  79.943 113.943  0.00  0.00     0.381 N 
ATOM     19  H   LIG d   1       1.730  80.534 114.744  0.00  0.00    -0.090 HD
ATOM     20  H   LIG d   1       2.456  80.040 113.376  0.00  0.00    -0.090 HD
ATOM     21  H   LIG d   1       1.529  78.995 114.232  0.00  0.00    -0.090 HD
ENDBRANCH   5  18
BRANCH   3  22
ATOM     22  C   LIG d   1      -2.730  81.910 114.130  0.00  0.00     0.382 C 
ATOM     23  O   LIG d   1      -3.112  83.069 114.424  0.00  0.00    -0.241 OA
ATOM     24  O   LIG d   1      -3.390  80.929 114.522  0.00  0.00    -0.241 OA
ENDBRANCH   3  22
TORSDOF 7
ENDMDL
MODEL 9
REMARK VINA RESULT:      -5.5      9.069     12.380
REMARK  7 active torsions:
REMARK  status: ('A' for Active; 'I' for Inactive)
REMARK    1  A    between atoms: C_2  and  C_3 
REMARK    2  A    between atoms: C_3  and  O_6 
REMARK    3  A    between atoms: C_3  and  C_4 
REMARK    4  A    between atoms: C_7  and  O_6 
REMARK    5  A    between atoms: C_9  and  C_10 
REMARK    6  A    between atoms: N_15  and  C_14 
REMARK    7  A    between atoms: N_20  and  C_19 
REMARK       I    between atoms: C_22  and  N_20 
ROOT
ATOM      1  C   LIG d   1      -7.301  75.050 116.561  0.00  0.00     0.161 C 
ATOM      2  C   LIG d   1      -7.130  73.686 116.270  0.00  0.00     0.016 C 
ATOM      3  C   LIG d   1      -8.191  72.752 116.274  0.00  0.00     0.038 C 
ATOM      4  C   LIG d   1      -9.528  73.148 116.423  0.00  0.00     0.028 C 
ATOM      5  C   LIG d   1      -9.693  74.438 117.220  0.00  0.00    -0.047 C 
ATOM      6  C   LIG d   1      -8.769  75.521 116.617  0.00  0.00     0.091 C 
ENDROOT
BRANCH   1   7
ATOM      7  O   LIG d   1      -6.554  75.848 115.621  0.00  0.00    -0.368 OA
BRANCH   7   8
ATOM      8  C   LIG d   1      -5.224  76.244 116.037  0.00  0.00     0.119 C 
BRANCH   8   9
ATOM      9  C   LIG d   1      -5.311  77.696 116.545  0.00  0.00     0.028 C 
ATOM     10  C   LIG d   1      -4.088  78.535 116.140  0.00  0.00     0.006 C 
ENDBRANCH   8   9
BRANCH   8  11
ATOM     11  C   LIG d   1      -4.259  76.288 114.849  0.00  0.00     0.028 C 
ATOM     12  C   LIG d   1      -4.662  75.329 113.717  0.00  0.00     0.006 C 
ENDBRANCH   8  11
ENDBRANCH   7   8
ENDBRANCH   1   7
BRANCH   6  13
ATOM     13  N   LIG d   1      -8.805  76.790 117.389  0.00  0.00    -0.311 N 
ATOM     14  C   LIG d   1      -8.368  76.899 118.643  0.00  0.00     0.210 C 
ATOM     15  C   LIG d   1      -8.515  78.293 119.261  0.00  0.00     0.109 C 
ATOM     16  O   LIG d   1      -7.842  75.981 119.290  0.00  0.00    -0.276 OA
ATOM     17  H   LIG d   1      -9.187  77.593 116.929  0.00  0.00     0.149 HD
ENDBRANCH   6  13
BRANCH   5  18
ATOM     18  N   LIG d   1     -11.120  74.808 117.180  0.00  0.00     0.381 N 
ATOM     19  H   LIG d   1     -11.593  74.419 117.971  0.00  0.00    -0.090 HD
ATOM     20  H   LIG d   1     -11.532  74.425 116.347  0.00  0.00    -0.090 HD
ATOM     21  H   LIG d   1     -11.215  75.799 117.181  0.00  0.00    -0.090 HD
ENDBRANCH   5  18
BRANCH   3  22
ATOM     22  C   LIG d   1      -7.914  71.397 116.167  0.00  0.00     0.382 C 
ATOM     23  O   LIG d   1      -6.771  71.017 115.817  0.00  0.00    -0.241 OA
ATOM     24  O   LIG d   1      -8.805  70.552 116.374  0.00  0.00    -0.241 OA
ENDBRANCH   3  22
TORSDOF 7
ENDMDL
