MODEL 1
REMARK VINA RESULT:      -6.6      0.000      0.000
REMARK  7 active torsions:
REMARK  status: ('A' for Active; 'I' for Inactive)
REMARK    1  A    between atoms: C_2  and  C_3 
REMARK    2  A    between atoms: C_3  and  O_6 
REMARK    3  A    between atoms: C_3  and  C_4 
REMARK    4  A    between atoms: C_7  and  O_6 
REMARK    5  A    between atoms: C_9  and  C_10 
REMARK    6  A    between atoms: N_15  and  C_14 
REMARK    7  A    between atoms: N_20  and  C_19 
REMARK       I    between atoms: C_22  and  N_20 
ROOT
ATOM      1  C   LIG d   1       0.509  83.010 111.387  0.00  0.00     0.161 C 
ATOM      2  C   LIG d   1      -0.567  82.883 112.281  0.00  0.00     0.016 C 
ATOM      3  C   LIG d   1      -1.110  81.638 112.674  0.00  0.00     0.038 C 
ATOM      4  C   LIG d   1      -0.511  80.422 112.314  0.00  0.00     0.028 C 
ATOM      5  C   LIG d   1       0.270  80.495 111.006  0.00  0.00    -0.047 C 
ATOM      6  C   LIG d   1       1.246  81.692 111.070  0.00  0.00     0.091 C 
ENDROOT
BRANCH   1   7
ATOM      7  O   LIG d   1       1.437  83.998 111.877  0.00  0.00    -0.368 OA
BRANCH   7   8
ATOM      8  C   LIG d   1       1.289  85.335 111.337  0.00  0.00     0.119 C 
BRANCH   8   9
ATOM      9  C   LIG d   1       0.602  85.206 109.964  0.00  0.00     0.028 C 
ATOM     10  C   LIG d   1      -0.750  85.938 109.913  0.00  0.00     0.006 C 
ENDBRANCH   8   9
BRANCH   8  11
ATOM     11  C   LIG d   1       2.651  85.974 111.050  0.00  0.00     0.028 C 
ATOM     12  C   LIG d   1       3.737  84.938 110.718  0.00  0.00     0.006 C 
ENDBRANCH   8  11
ENDBRANCH   7   8
ENDBRANCH   1   7
BRANCH   6  13
ATOM     13  N   LIG d   1       1.989  81.887 109.798  0.00  0.00    -0.311 N 
ATOM     14  C   LIG d   1       3.212  81.403 109.582  0.00  0.00     0.210 C 
ATOM     15  C   LIG d   1       3.805  81.736 108.210  0.00  0.00     0.109 C 
ATOM     16  O   LIG d   1       3.847  80.703 110.385  0.00  0.00    -0.276 OA
ATOM     17  H   LIG d   1       1.535  82.417 109.081  0.00  0.00     0.149 HD
ENDBRANCH   6  13
BRANCH   5  18
ATOM     18  N   LIG d   1       0.954  79.201 110.822  0.00  0.00     0.381 N 
ATOM     19  H   LIG d   1       0.515  78.688 110.084  0.00  0.00    -0.090 HD
ATOM     20  H   LIG d   1       0.873  78.667 111.669  0.00  0.00    -0.090 HD
ATOM     21  H   LIG d   1       1.915  79.351 110.606  0.00  0.00    -0.090 HD
ENDBRANCH   5  18
BRANCH   3  22
ATOM     22  C   LIG d   1      -2.288  81.601 113.404  0.00  0.00     0.382 C 
ATOM     23  O   LIG d   1      -2.277  81.202 114.593  0.00  0.00    -0.241 OA
ATOM     24  O   LIG d   1      -3.369  81.921 112.874  0.00  0.00    -0.241 OA
ENDBRANCH   3  22
TORSDOF 7
ENDMDL
MODEL 2
REMARK VINA RESULT:      -6.2      1.701      4.890
REMARK  7 active torsions:
REMARK  status: ('A' for Active; 'I' for Inactive)
REMARK    1  A    between atoms: C_2  and  C_3 
REMARK    2  A    between atoms: C_3  and  O_6 
REMARK    3  A    between atoms: C_3  and  C_4 
REMARK    4  A    between atoms: C_7  and  O_6 
REMARK    5  A    between atoms: C_9  and  C_10 
REMARK    6  A    between atoms: N_15  and  C_14 
REMARK    7  A    between atoms: N_20  and  C_19 
REMARK       I    between atoms: C_22  and  N_20 
ROOT
ATOM      1  C   LIG d   1       1.711  82.869 111.532  0.00  0.00     0.161 C 
ATOM      2  C   LIG d   1       2.434  82.937 110.330  0.00  0.00     0.016 C 
ATOM      3  C   LIG d   1       2.204  82.074 109.233  0.00  0.00     0.038 C 
ATOM      4  C   LIG d   1       1.126  81.177 109.209  0.00  0.00     0.028 C 
ATOM      5  C   LIG d   1       0.683  80.725 110.596  0.00  0.00    -0.047 C 
ATOM      6  C   LIG d   1       0.457  81.971 111.483  0.00  0.00     0.091 C 
ENDROOT
BRANCH   1   7
ATOM      7  O   LIG d   1       1.360  84.197 111.966  0.00  0.00    -0.368 OA
BRANCH   7   8
ATOM      8  C   LIG d   1       1.762  85.281 111.093  0.00  0.00     0.119 C 
BRANCH   8   9
ATOM      9  C   LIG d   1       2.549  86.295 111.946  0.00  0.00     0.028 C 
ATOM     10  C   LIG d   1       4.030  86.379 111.539  0.00  0.00     0.006 C 
ENDBRANCH   8   9
BRANCH   8  11
ATOM     11  C   LIG d   1       0.548  86.051 110.565  0.00  0.00     0.028 C 
ATOM     12  C   LIG d   1       0.251  85.754 109.087  0.00  0.00     0.006 C 
ENDBRANCH   8  11
ENDBRANCH   7   8
ENDBRANCH   1   7
BRANCH   6  13
ATOM     13  N   LIG d   1       0.104  81.615 112.882  0.00  0.00    -0.311 N 
ATOM     14  C   LIG d   1      -1.148  81.585 113.336  0.00  0.00     0.210 C 
ATOM     15  C   LIG d   1      -1.290  81.212 114.815  0.00  0.00     0.109 C 
ATOM     16  O   LIG d   1      -2.156  81.800 112.647  0.00  0.00    -0.276 OA
ATOM     17  H   LIG d   1       0.859  81.395 113.501  0.00  0.00     0.149 HD
ENDBRANCH   6  13
BRANCH   5  18
ATOM     18  N   LIG d   1      -0.532  79.905 110.431  0.00  0.00     0.381 N 
ATOM     19  H   LIG d   1      -0.278  78.951 110.268  0.00  0.00    -0.090 HD
ATOM     20  H   LIG d   1      -1.042  80.236 109.631  0.00  0.00    -0.090 HD
ATOM     21  H   LIG d   1      -1.101  79.970 111.246  0.00  0.00    -0.090 HD
ENDBRANCH   5  18
BRANCH   3  22
ATOM     22  C   LIG d   1       3.083  82.076 108.161  0.00  0.00     0.382 C 
ATOM     23  O   LIG d   1       4.241  81.612 108.298  0.00  0.00    -0.241 OA
ATOM     24  O   LIG d   1       2.748  82.576 107.070  0.00  0.00    -0.241 OA
ENDBRANCH   3  22
TORSDOF 7
ENDMDL
MODEL 3
REMARK VINA RESULT:      -6.1      2.115      3.766
REMARK  7 active torsions:
REMARK  status: ('A' for Active; 'I' for Inactive)
REMARK    1  A    between atoms: C_2  and  C_3 
REMARK    2  A    between atoms: C_3  and  O_6 
REMARK    3  A    between atoms: C_3  and  C_4 
REMARK    4  A    between atoms: C_7  and  O_6 
REMARK    5  A    between atoms: C_9  and  C_10 
REMARK    6  A    between atoms: N_15  and  C_14 
REMARK    7  A    between atoms: N_20  and  C_19 
REMARK       I    between atoms: C_22  and  N_20 
ROOT
ATOM      1  C   LIG d   1       1.574  81.295 112.601  0.00  0.00     0.161 C 
ATOM      2  C   LIG d   1       0.264  80.825 112.789  0.00  0.00     0.016 C 
ATOM      3  C   LIG d   1      -0.881  81.647 112.680  0.00  0.00     0.038 C 
ATOM      4  C   LIG d   1      -0.803  82.971 112.223  0.00  0.00     0.028 C 
ATOM      5  C   LIG d   1       0.542  83.631 112.508  0.00  0.00    -0.047 C 
ATOM      6  C   LIG d   1       1.672  82.710 111.993  0.00  0.00     0.091 C 
ENDROOT
BRANCH   1   7
ATOM      7  O   LIG d   1       2.321  80.355 111.804  0.00  0.00    -0.368 OA
BRANCH   7   8
ATOM      8  C   LIG d   1       2.371  80.624 110.381  0.00  0.00     0.119 C 
BRANCH   8   9
ATOM      9  C   LIG d   1       1.533  79.539 109.675  0.00  0.00     0.028 C 
ATOM     10  C   LIG d   1       0.241  80.103 109.061  0.00  0.00     0.006 C 
ENDBRANCH   8   9
BRANCH   8  11
ATOM     11  C   LIG d   1       3.791  80.460 109.832  0.00  0.00     0.028 C 
ATOM     12  C   LIG d   1       4.063  81.349 108.608  0.00  0.00     0.006 C 
ENDBRANCH   8  11
ENDBRANCH   7   8
ENDBRANCH   1   7
BRANCH   6  13
ATOM     13  N   LIG d   1       3.024  83.242 112.307  0.00  0.00    -0.311 N 
ATOM     14  C   LIG d   1       3.725  84.004 111.469  0.00  0.00     0.210 C 
ATOM     15  C   LIG d   1       5.105  84.428 111.982  0.00  0.00     0.109 C 
ATOM     16  O   LIG d   1       3.322  84.395 110.364  0.00  0.00    -0.276 OA
ATOM     17  H   LIG d   1       3.414  82.999 113.197  0.00  0.00     0.149 HD
ENDBRANCH   6  13
BRANCH   5  18
ATOM     18  N   LIG d   1       0.535  84.956 111.859  0.00  0.00     0.381 N 
ATOM     19  H   LIG d   1      -0.384  85.164 111.523  0.00  0.00    -0.090 HD
ATOM     20  H   LIG d   1       1.160  84.936 111.072  0.00  0.00    -0.090 HD
ATOM     21  H   LIG d   1       0.826  85.655 112.506  0.00  0.00    -0.090 HD
ENDBRANCH   5  18
BRANCH   3  22
ATOM     22  C   LIG d   1      -2.119  81.157 113.068  0.00  0.00     0.382 C 
ATOM     23  O   LIG d   1      -2.218  79.990 113.519  0.00  0.00    -0.241 OA
ATOM     24  O   LIG d   1      -3.145  81.850 112.931  0.00  0.00    -0.241 OA
ENDBRANCH   3  22
TORSDOF 7
ENDMDL
MODEL 4
REMARK VINA RESULT:      -6.0      3.306      5.634
REMARK  7 active torsions:
REMARK  status: ('A' for Active; 'I' for Inactive)
REMARK    1  A    between atoms: C_2  and  C_3 
REMARK    2  A    between atoms: C_3  and  O_6 
REMARK    3  A    between atoms: C_3  and  C_4 
REMARK    4  A    between atoms: C_7  and  O_6 
REMARK    5  A    between atoms: C_9  and  C_10 
REMARK    6  A    between atoms: N_15  and  C_14 
REMARK    7  A    between atoms: N_20  and  C_19 
REMARK       I    between atoms: C_22  and  N_20 
ROOT
ATOM      1  C   LIG d   1       2.367  85.479 111.529  0.00  0.00     0.161 C 
ATOM      2  C   LIG d   1       2.595  86.862 111.627  0.00  0.00     0.016 C 
ATOM      3  C   LIG d   1       3.369  87.452 112.652  0.00  0.00     0.038 C 
ATOM      4  C   LIG d   1       4.098  86.680 113.568  0.00  0.00     0.028 C 
ATOM      5  C   LIG d   1       3.494  85.302 113.815  0.00  0.00    -0.047 C 
ATOM      6  C   LIG d   1       3.246  84.612 112.455  0.00  0.00     0.091 C 
ENDROOT
BRANCH   1   7
ATOM      7  O   LIG d   1       2.513  85.056 110.159  0.00  0.00    -0.368 OA
BRANCH   7   8
ATOM      8  C   LIG d   1       1.297  84.645 109.486  0.00  0.00     0.119 C 
BRANCH   8   9
ATOM      9  C   LIG d   1       0.125  84.894 110.455  0.00  0.00     0.028 C 
ATOM     10  C   LIG d   1      -0.861  85.949 109.926  0.00  0.00     0.006 C 
ENDBRANCH   8   9
BRANCH   8  11
ATOM     11  C   LIG d   1       1.290  83.137 109.218  0.00  0.00     0.028 C 
ATOM     12  C   LIG d   1       2.227  82.732 108.070  0.00  0.00     0.006 C 
ENDBRANCH   8  11
ENDBRANCH   7   8
ENDBRANCH   1   7
BRANCH   6  13
ATOM     13  N   LIG d   1       2.578  83.292 112.602  0.00  0.00    -0.311 N 
ATOM     14  C   LIG d   1       3.007  82.183 112.004  0.00  0.00     0.210 C 
ATOM     15  C   LIG d   1       2.161  80.934 112.273  0.00  0.00     0.109 C 
ATOM     16  O   LIG d   1       4.026  82.107 111.300  0.00  0.00    -0.276 OA
ATOM     17  H   LIG d   1       1.761  83.256 113.181  0.00  0.00     0.149 HD
ENDBRANCH   6  13
BRANCH   5  18
ATOM     18  N   LIG d   1       4.427  84.556 114.681  0.00  0.00     0.381 N 
ATOM     19  H   LIG d   1       5.057  84.021 114.118  0.00  0.00    -0.090 HD
ATOM     20  H   LIG d   1       3.900  83.920 115.254  0.00  0.00    -0.090 HD
ATOM     21  H   LIG d   1       4.938  85.188 115.256  0.00  0.00    -0.090 HD
ENDBRANCH   5  18
BRANCH   3  22
ATOM     22  C   LIG d   1       3.387  88.832 112.791  0.00  0.00     0.382 C 
ATOM     23  O   LIG d   1       2.309  89.466 112.894  0.00  0.00    -0.241 OA
ATOM     24  O   LIG d   1       4.465  89.455 112.771  0.00  0.00    -0.241 OA
ENDBRANCH   3  22
TORSDOF 7
ENDMDL
MODEL 5
REMARK VINA RESULT:      -5.9      2.262      5.036
REMARK  7 active torsions:
REMARK  status: ('A' for Active; 'I' for Inactive)
REMARK    1  A    between atoms: C_2  and  C_3 
REMARK    2  A    between atoms: C_3  and  O_6 
REMARK    3  A    between atoms: C_3  and  C_4 
REMARK    4  A    between atoms: C_7  and  O_6 
REMARK    5  A    between atoms: C_9  and  C_10 
REMARK    6  A    between atoms: N_15  and  C_14 
REMARK    7  A    between atoms: N_20  and  C_19 
REMARK       I    between atoms: C_22  and  N_20 
ROOT
ATOM      1  C   LIG d   1       2.133  82.785 111.505  0.00  0.00     0.161 C 
ATOM      2  C   LIG d   1       2.227  84.120 111.934  0.00  0.00     0.016 C 
ATOM      3  C   LIG d   1       2.019  85.228 111.082  0.00  0.00     0.038 C 
ATOM      4  C   LIG d   1       1.552  85.075 109.767  0.00  0.00     0.028 C 
ATOM      5  C   LIG d   1       1.931  83.737 109.142  0.00  0.00    -0.047 C 
ATOM      6  C   LIG d   1       1.517  82.599 110.103  0.00  0.00     0.091 C 
ENDROOT
BRANCH   1   7
ATOM      7  O   LIG d   1       1.409  82.008 112.479  0.00  0.00    -0.368 OA
BRANCH   7   8
ATOM      8  C   LIG d   1       0.424  82.726 113.262  0.00  0.00     0.119 C 
BRANCH   8   9
ATOM      9  C   LIG d   1       0.479  82.170 114.698  0.00  0.00     0.028 C 
ATOM     10  C   LIG d   1       1.892  82.244 115.302  0.00  0.00     0.006 C 
ENDBRANCH   8   9
BRANCH   8  11
ATOM     11  C   LIG d   1      -0.998  82.437 112.770  0.00  0.00     0.028 C 
ATOM     12  C   LIG d   1      -1.650  81.250 113.496  0.00  0.00     0.006 C 
ENDBRANCH   8  11
ENDBRANCH   7   8
ENDBRANCH   1   7
BRANCH   6  13
ATOM     13  N   LIG d   1       1.927  81.260 109.606  0.00  0.00    -0.311 N 
ATOM     14  C   LIG d   1       1.108  80.210 109.566  0.00  0.00     0.210 C 
ATOM     15  C   LIG d   1       1.738  78.918 109.036  0.00  0.00     0.109 C 
ATOM     16  O   LIG d   1      -0.089  80.235 109.888  0.00  0.00    -0.276 OA
ATOM     17  H   LIG d   1       2.873  81.159 109.295  0.00  0.00     0.149 HD
ENDBRANCH   6  13
BRANCH   5  18
ATOM     18  N   LIG d   1       1.266  83.655 107.828  0.00  0.00     0.381 N 
ATOM     19  H   LIG d   1       1.800  84.156 107.146  0.00  0.00    -0.090 HD
ATOM     20  H   LIG d   1       0.359  84.083 107.895  0.00  0.00    -0.090 HD
ATOM     21  H   LIG d   1       1.171  82.702 107.552  0.00  0.00    -0.090 HD
ENDBRANCH   5  18
BRANCH   3  22
ATOM     22  C   LIG d   1       2.317  86.506 111.530  0.00  0.00     0.382 C 
ATOM     23  O   LIG d   1       1.455  87.167 112.157  0.00  0.00    -0.241 OA
ATOM     24  O   LIG d   1       3.422  87.022 111.277  0.00  0.00    -0.241 OA
ENDBRANCH   3  22
TORSDOF 7
ENDMDL
MODEL 6
REMARK VINA RESULT:      -5.7      2.410      4.131
REMARK  7 active torsions:
REMARK  status: ('A' for Active; 'I' for Inactive)
REMARK    1  A    between atoms: C_2  and  C_3 
REMARK    2  A    between atoms: C_3  and  O_6 
REMARK    3  A    between atoms: C_3  and  C_4 
REMARK    4  A    between atoms: C_7  and  O_6 
REMARK    5  A    between atoms: C_9  and  C_10 
REMARK    6  A    between atoms: N_15  and  C_14 
REMARK    7  A    between atoms: N_20  and  C_19 
REMARK       I    between atoms: C_22  and  N_20 
ROOT
ATOM      1  C   LIG d   1       1.837  82.803 111.730  0.00  0.00     0.161 C 
ATOM      2  C   LIG d   1       2.395  82.188 112.863  0.00  0.00     0.016 C 
ATOM      3  C   LIG d   1       1.626  81.519 113.844  0.00  0.00     0.038 C 
ATOM      4  C   LIG d   1       0.252  81.289 113.678  0.00  0.00     0.028 C 
ATOM      5  C   LIG d   1      -0.435  82.328 112.799  0.00  0.00    -0.047 C 
ATOM      6  C   LIG d   1       0.353  82.467 111.476  0.00  0.00     0.091 C 
ENDROOT
BRANCH   1   7
ATOM      7  O   LIG d   1       2.628  82.492 110.566  0.00  0.00    -0.368 OA
BRANCH   7   8
ATOM      8  C   LIG d   1       3.897  83.182 110.455  0.00  0.00     0.119 C 
BRANCH   8   9
ATOM      9  C   LIG d   1       3.596  84.685 110.304  0.00  0.00     0.028 C 
ATOM     10  C   LIG d   1       4.427  85.550 111.266  0.00  0.00     0.006 C 
ENDBRANCH   8   9
BRANCH   8  11
ATOM     11  C   LIG d   1       4.637  82.786 109.174  0.00  0.00     0.028 C 
ATOM     12  C   LIG d   1       4.028  81.550 108.492  0.00  0.00     0.006 C 
ENDBRANCH   8  11
ENDBRANCH   7   8
ENDBRANCH   1   7
BRANCH   6  13
ATOM     13  N   LIG d   1      -0.203  83.524 110.593  0.00  0.00    -0.311 N 
ATOM     14  C   LIG d   1      -0.188  84.820 110.901  0.00  0.00     0.210 C 
ATOM     15  C   LIG d   1      -0.832  85.740 109.860  0.00  0.00     0.109 C 
ATOM     16  O   LIG d   1       0.326  85.298 111.924  0.00  0.00    -0.276 OA
ATOM     17  H   LIG d   1      -0.612  83.228 109.728  0.00  0.00     0.149 HD
ENDBRANCH   6  13
BRANCH   5  18
ATOM     18  N   LIG d   1      -1.829  81.891 112.599  0.00  0.00     0.381 N 
ATOM     19  H   LIG d   1      -2.069  81.958 111.630  0.00  0.00    -0.090 HD
ATOM     20  H   LIG d   1      -2.438  82.500 113.117  0.00  0.00    -0.090 HD
ATOM     21  H   LIG d   1      -1.941  80.952 112.912  0.00  0.00    -0.090 HD
ENDBRANCH   5  18
BRANCH   3  22
ATOM     22  C   LIG d   1       2.226  81.108 115.024  0.00  0.00     0.382 C 
ATOM     23  O   LIG d   1       3.476  81.068 115.112  0.00  0.00    -0.241 OA
ATOM     24  O   LIG d   1       1.531  80.733 115.988  0.00  0.00    -0.241 OA
ENDBRANCH   3  22
TORSDOF 7
ENDMDL
MODEL 7
REMARK VINA RESULT:      -5.5      1.847      2.682
REMARK  7 active torsions:
REMARK  status: ('A' for Active; 'I' for Inactive)
REMARK    1  A    between atoms: C_2  and  C_3 
REMARK    2  A    between atoms: C_3  and  O_6 
REMARK    3  A    between atoms: C_3  and  C_4 
REMARK    4  A    between atoms: C_7  and  O_6 
REMARK    5  A    between atoms: C_9  and  C_10 
REMARK    6  A    between atoms: N_15  and  C_14 
REMARK    7  A    between atoms: N_20  and  C_19 
REMARK       I    between atoms: C_22  and  N_20 
ROOT
ATOM      1  C   LIG d   1       1.455  82.930 111.250  0.00  0.00     0.161 C 
ATOM      2  C   LIG d   1       1.292  82.489 112.573  0.00  0.00     0.016 C 
ATOM      3  C   LIG d   1       0.752  81.226 112.912  0.00  0.00     0.038 C 
ATOM      4  C   LIG d   1       0.478  80.253 111.940  0.00  0.00     0.028 C 
ATOM      5  C   LIG d   1       0.154  80.839 110.570  0.00  0.00    -0.047 C 
ATOM      6  C   LIG d   1       1.265  81.839 110.176  0.00  0.00     0.091 C 
ENDROOT
BRANCH   1   7
ATOM      7  O   LIG d   1       2.743  83.561 111.101  0.00  0.00    -0.368 OA
BRANCH   7   8
ATOM      8  C   LIG d   1       2.728  84.985 110.837  0.00  0.00     0.119 C 
BRANCH   8   9
ATOM      9  C   LIG d   1       3.449  85.681 112.008  0.00  0.00     0.028 C 
ATOM     10  C   LIG d   1       4.688  86.468 111.550  0.00  0.00     0.006 C 
ENDBRANCH   8   9
BRANCH   8  11
ATOM     11  C   LIG d   1       1.300  85.540 110.853  0.00  0.00     0.028 C 
ATOM     12  C   LIG d   1       0.813  85.972 109.461  0.00  0.00     0.006 C 
ENDBRANCH   8  11
ENDBRANCH   7   8
ENDBRANCH   1   7
BRANCH   6  13
ATOM     13  N   LIG d   1       0.983  82.521 108.886  0.00  0.00    -0.311 N 
ATOM     14  C   LIG d   1       1.888  82.667 107.920  0.00  0.00     0.210 C 
ATOM     15  C   LIG d   1       1.396  83.419 106.680  0.00  0.00     0.109 C 
ATOM     16  O   LIG d   1       3.043  82.216 107.960  0.00  0.00    -0.276 OA
ATOM     17  H   LIG d   1       0.061  82.889 108.757  0.00  0.00     0.149 HD
ENDBRANCH   6  13
BRANCH   5  18
ATOM     18  N   LIG d   1       0.025  79.715 109.623  0.00  0.00     0.381 N 
ATOM     19  H   LIG d   1      -0.886  79.309 109.701  0.00  0.00    -0.090 HD
ATOM     20  H   LIG d   1       0.705  79.013 109.857  0.00  0.00    -0.090 HD
ATOM     21  H   LIG d   1       0.175  80.035 108.691  0.00  0.00    -0.090 HD
ENDBRANCH   5  18
BRANCH   3  22
ATOM     22  C   LIG d   1       0.444  80.942 114.233  0.00  0.00     0.382 C 
ATOM     23  O   LIG d   1      -0.751  80.770 114.576  0.00  0.00    -0.241 OA
ATOM     24  O   LIG d   1       1.342  80.900 115.096  0.00  0.00    -0.241 OA
ENDBRANCH   3  22
TORSDOF 7
ENDMDL
MODEL 8
REMARK VINA RESULT:      -5.5      3.325      5.743
REMARK  7 active torsions:
REMARK  status: ('A' for Active; 'I' for Inactive)
REMARK    1  A    between atoms: C_2  and  C_3 
REMARK    2  A    between atoms: C_3  and  O_6 
REMARK    3  A    between atoms: C_3  and  C_4 
REMARK    4  A    between atoms: C_7  and  O_6 
REMARK    5  A    between atoms: C_9  and  C_10 
REMARK    6  A    between atoms: N_15  and  C_14 
REMARK    7  A    between atoms: N_20  and  C_19 
REMARK       I    between atoms: C_22  and  N_20 
ROOT
ATOM      1  C   LIG d   1       2.067  84.547 112.485  0.00  0.00     0.161 C 
ATOM      2  C   LIG d   1       2.726  85.723 112.088  0.00  0.00     0.016 C 
ATOM      3  C   LIG d   1       3.861  86.240 112.753  0.00  0.00     0.038 C 
ATOM      4  C   LIG d   1       4.509  85.531 113.775  0.00  0.00     0.028 C 
ATOM      5  C   LIG d   1       3.585  84.590 114.540  0.00  0.00    -0.047 C 
ATOM      6  C   LIG d   1       2.826  83.701 113.529  0.00  0.00     0.091 C 
ENDROOT
BRANCH   1   7
ATOM      7  O   LIG d   1       1.751  83.749 111.327  0.00  0.00    -0.368 OA
BRANCH   7   8
ATOM      8  C   LIG d   1       2.264  84.232 110.061  0.00  0.00     0.119 C 
BRANCH   8   9
ATOM      9  C   LIG d   1       1.073  84.342 109.090  0.00  0.00     0.028 C 
ATOM     10  C   LIG d   1       0.460  85.752 109.070  0.00  0.00     0.006 C 
ENDBRANCH   8   9
BRANCH   8  11
ATOM     11  C   LIG d   1       3.216  83.216 109.422  0.00  0.00     0.028 C 
ATOM     12  C   LIG d   1       4.581  83.155 110.125  0.00  0.00     0.006 C 
ENDBRANCH   8  11
ENDBRANCH   7   8
ENDBRANCH   1   7
BRANCH   6  13
ATOM     13  N   LIG d   1       1.837  82.809 114.189  0.00  0.00    -0.311 N 
ATOM     14  C   LIG d   1       2.105  81.553 114.543  0.00  0.00     0.210 C 
ATOM     15  C   LIG d   1       0.938  80.802 115.192  0.00  0.00     0.109 C 
ATOM     16  O   LIG d   1       3.207  81.000 114.409  0.00  0.00    -0.276 OA
ATOM     17  H   LIG d   1       0.927  83.187 114.364  0.00  0.00     0.149 HD
ENDBRANCH   6  13
BRANCH   5  18
ATOM     18  N   LIG d   1       4.416  83.816 115.481  0.00  0.00     0.381 N 
ATOM     19  H   LIG d   1       4.392  84.243 116.385  0.00  0.00    -0.090 HD
ATOM     20  H   LIG d   1       5.367  83.822 115.155  0.00  0.00    -0.090 HD
ATOM     21  H   LIG d   1       4.083  82.879 115.539  0.00  0.00    -0.090 HD
ENDBRANCH   5  18
BRANCH   3  22
ATOM     22  C   LIG d   1       4.336  87.501 112.422  0.00  0.00     0.382 C 
ATOM     23  O   LIG d   1       3.565  88.490 112.457  0.00  0.00    -0.241 OA
ATOM     24  O   LIG d   1       5.513  87.654 112.047  0.00  0.00    -0.241 OA
ENDBRANCH   3  22
TORSDOF 7
ENDMDL
MODEL 9
REMARK VINA RESULT:      -5.5      2.936      5.661
REMARK  7 active torsions:
REMARK  status: ('A' for Active; 'I' for Inactive)
REMARK    1  A    between atoms: C_2  and  C_3 
REMARK    2  A    between atoms: C_3  and  O_6 
REMARK    3  A    between atoms: C_3  and  C_4 
REMARK    4  A    between atoms: C_7  and  O_6 
REMARK    5  A    between atoms: C_9  and  C_10 
REMARK    6  A    between atoms: N_15  and  C_14 
REMARK    7  A    between atoms: N_20  and  C_19 
REMARK       I    between atoms: C_22  and  N_20 
ROOT
ATOM      1  C   LIG d   1       2.534  84.910 111.612  0.00  0.00     0.161 C 
ATOM      2  C   LIG d   1       3.276  86.096 111.735  0.00  0.00     0.016 C 
ATOM      3  C   LIG d   1       4.141  86.364 112.822  0.00  0.00     0.038 C 
ATOM      4  C   LIG d   1       4.440  85.392 113.788  0.00  0.00     0.028 C 
ATOM      5  C   LIG d   1       3.328  84.366 113.979  0.00  0.00    -0.047 C 
ATOM      6  C   LIG d   1       2.932  83.793 112.599  0.00  0.00     0.091 C 
ENDROOT
BRANCH   1   7
ATOM      7  O   LIG d   1       2.605  84.429 110.255  0.00  0.00    -0.368 OA
BRANCH   7   8
ATOM      8  C   LIG d   1       1.337  84.211 109.589  0.00  0.00     0.119 C 
BRANCH   8   9
ATOM      9  C   LIG d   1       1.629  83.477 108.266  0.00  0.00     0.028 C 
ATOM     10  C   LIG d   1       2.660  82.348 108.436  0.00  0.00     0.006 C 
ENDBRANCH   8   9
BRANCH   8  11
ATOM     11  C   LIG d   1       0.686  85.536 109.182  0.00  0.00     0.028 C 
ATOM     12  C   LIG d   1      -0.661  85.778 109.881  0.00  0.00     0.006 C 
ENDBRANCH   8  11
ENDBRANCH   7   8
ENDBRANCH   1   7
BRANCH   6  13
ATOM     13  N   LIG d   1       1.793  82.842 112.685  0.00  0.00    -0.311 N 
ATOM     14  C   LIG d   1       1.848  81.589 112.238  0.00  0.00     0.210 C 
ATOM     15  C   LIG d   1       0.555  80.785 112.407  0.00  0.00     0.109 C 
ATOM     16  O   LIG d   1       2.855  81.057 111.747  0.00  0.00    -0.276 OA
ATOM     17  H   LIG d   1       0.946  83.182 113.098  0.00  0.00     0.149 HD
ENDBRANCH   6  13
BRANCH   5  18
ATOM     18  N   LIG d   1       3.827  83.336 114.911  0.00  0.00     0.381 N 
ATOM     19  H   LIG d   1       3.908  83.723 115.830  0.00  0.00    -0.090 HD
ATOM     20  H   LIG d   1       4.739  83.041 114.611  0.00  0.00    -0.090 HD
ATOM     21  H   LIG d   1       3.205  82.558 114.923  0.00  0.00    -0.090 HD
ENDBRANCH   5  18
BRANCH   3  22
ATOM     22  C   LIG d   1       4.686  87.630 112.970  0.00  0.00     0.382 C 
ATOM     23  O   LIG d   1       5.622  88.001 112.221  0.00  0.00    -0.241 OA
ATOM     24  O   LIG d   1       4.285  88.389 113.872  0.00  0.00    -0.241 OA
ENDBRANCH   3  22
TORSDOF 7
ENDMDL
