MODEL 1
REMARK VINA RESULT:      -5.6      0.000      0.000
REMARK  7 active torsions:
REMARK  status: ('A' for Active; 'I' for Inactive)
REMARK    1  A    between atoms: C_2  and  C_3 
REMARK    2  A    between atoms: C_3  and  O_6 
REMARK    3  A    between atoms: C_3  and  C_4 
REMARK    4  A    between atoms: C_7  and  O_6 
REMARK    5  A    between atoms: C_9  and  C_10 
REMARK    6  A    between atoms: N_15  and  C_14 
REMARK    7  A    between atoms: N_20  and  C_19 
REMARK       I    between atoms: C_22  and  N_20 
ROOT
ATOM      1  C   LIG d   1       0.476  82.608 112.040  0.00  0.00     0.161 C 
ATOM      2  C   LIG d   1      -0.765  82.309 112.626  0.00  0.00     0.016 C 
ATOM      3  C   LIG d   1      -1.512  81.149 112.317  0.00  0.00     0.038 C 
ATOM      4  C   LIG d   1      -0.993  80.127 111.508  0.00  0.00     0.028 C 
ATOM      5  C   LIG d   1       0.038  80.619 110.498  0.00  0.00    -0.047 C 
ATOM      6  C   LIG d   1       1.109  81.451 111.240  0.00  0.00     0.091 C 
ENDROOT
BRANCH   1   7
ATOM      7  O   LIG d   1       1.391  83.079 113.050  0.00  0.00    -0.368 OA
BRANCH   7   8
ATOM      8  C   LIG d   1       1.320  82.414 114.335  0.00  0.00     0.119 C 
BRANCH   8   9
ATOM      9  C   LIG d   1       1.325  83.507 115.422  0.00  0.00     0.028 C 
ATOM     10  C   LIG d   1      -0.029  83.626 116.141  0.00  0.00     0.006 C 
ENDBRANCH   8   9
BRANCH   8  11
ATOM     11  C   LIG d   1       2.572  81.574 114.598  0.00  0.00     0.028 C 
ATOM     12  C   LIG d   1       2.601  80.974 116.013  0.00  0.00     0.006 C 
ENDBRANCH   8  11
ENDBRANCH   7   8
ENDBRANCH   1   7
BRANCH   6  13
ATOM     13  N   LIG d   1       2.111  82.041 110.313  0.00  0.00    -0.311 N 
ATOM     14  C   LIG d   1       3.426  81.936 110.492  0.00  0.00     0.210 C 
ATOM     15  C   LIG d   1       4.281  82.634 109.430  0.00  0.00     0.109 C 
ATOM     16  O   LIG d   1       3.966  81.304 111.412  0.00  0.00    -0.276 OA
ATOM     17  H   LIG d   1       1.759  82.545 109.523  0.00  0.00     0.149 HD
ENDBRANCH   6  13
BRANCH   5  18
ATOM     18  N   LIG d   1       0.596  79.435 109.818  0.00  0.00     0.381 N 
ATOM     19  H   LIG d   1       1.545  79.297 110.101  0.00  0.00    -0.090 HD
ATOM     20  H   LIG d   1       0.583  79.593 108.826  0.00  0.00    -0.090 HD
ATOM     21  H   LIG d   1       0.055  78.628 110.039  0.00  0.00    -0.090 HD
ENDBRANCH   5  18
BRANCH   3  22
ATOM     22  C   LIG d   1      -2.810  81.021 112.788  0.00  0.00     0.382 C 
ATOM     23  O   LIG d   1      -3.440  82.035 113.173  0.00  0.00    -0.241 OA
ATOM     24  O   LIG d   1      -3.343  79.898 112.875  0.00  0.00    -0.241 OA
ENDBRANCH   3  22
TORSDOF 7
ENDMDL
MODEL 2
REMARK VINA RESULT:      -5.3      1.743      4.971
REMARK  7 active torsions:
REMARK  status: ('A' for Active; 'I' for Inactive)
REMARK    1  A    between atoms: C_2  and  C_3 
REMARK    2  A    between atoms: C_3  and  O_6 
REMARK    3  A    between atoms: C_3  and  C_4 
REMARK    4  A    between atoms: C_7  and  O_6 
REMARK    5  A    between atoms: C_9  and  C_10 
REMARK    6  A    between atoms: N_15  and  C_14 
REMARK    7  A    between atoms: N_20  and  C_19 
REMARK       I    between atoms: C_22  and  N_20 
ROOT
ATOM      1  C   LIG d   1       1.331  81.560 112.839  0.00  0.00     0.161 C 
ATOM      2  C   LIG d   1       2.490  82.132 112.289  0.00  0.00     0.016 C 
ATOM      3  C   LIG d   1       2.692  82.299 110.900  0.00  0.00     0.038 C 
ATOM      4  C   LIG d   1       1.676  82.042 109.967  0.00  0.00     0.028 C 
ATOM      5  C   LIG d   1       0.675  80.991 110.436  0.00  0.00    -0.047 C 
ATOM      6  C   LIG d   1       0.166  81.376 111.843  0.00  0.00     0.091 C 
ENDROOT
BRANCH   1   7
ATOM      7  O   LIG d   1       0.899  82.331 113.978  0.00  0.00    -0.368 OA
BRANCH   7   8
ATOM      8  C   LIG d   1       1.101  83.763 113.892  0.00  0.00     0.119 C 
BRANCH   8   9
ATOM      9  C   LIG d   1       1.792  84.212 115.195  0.00  0.00     0.028 C 
ATOM     10  C   LIG d   1       3.292  84.489 114.998  0.00  0.00     0.006 C 
ENDBRANCH   8   9
BRANCH   8  11
ATOM     11  C   LIG d   1      -0.234  84.513 113.862  0.00  0.00     0.028 C 
ATOM     12  C   LIG d   1      -1.388  83.700 114.472  0.00  0.00     0.006 C 
ENDBRANCH   8  11
ENDBRANCH   7   8
ENDBRANCH   1   7
BRANCH   6  13
ATOM     13  N   LIG d   1      -0.754  80.357 112.412  0.00  0.00    -0.311 N 
ATOM     14  C   LIG d   1      -2.075  80.518 112.479  0.00  0.00     0.210 C 
ATOM     15  C   LIG d   1      -2.836  79.353 113.120  0.00  0.00     0.109 C 
ATOM     16  O   LIG d   1      -2.691  81.500 112.040  0.00  0.00    -0.276 OA
ATOM     17  H   LIG d   1      -0.341  79.515 112.763  0.00  0.00     0.149 HD
ENDBRANCH   6  13
BRANCH   5  18
ATOM     18  N   LIG d   1      -0.402  80.922 109.430  0.00  0.00     0.381 N 
ATOM     19  H   LIG d   1      -0.344  80.058 108.930  0.00  0.00    -0.090 HD
ATOM     20  H   LIG d   1      -0.284  81.674 108.774  0.00  0.00    -0.090 HD
ATOM     21  H   LIG d   1      -1.290  80.998 109.876  0.00  0.00    -0.090 HD
ENDBRANCH   5  18
BRANCH   3  22
ATOM     22  C   LIG d   1       3.936  82.691 110.428  0.00  0.00     0.382 C 
ATOM     23  O   LIG d   1       4.481  82.054 109.494  0.00  0.00    -0.241 OA
ATOM     24  O   LIG d   1       4.539  83.645 110.954  0.00  0.00    -0.241 OA
ENDBRANCH   3  22
TORSDOF 7
ENDMDL
MODEL 3
REMARK VINA RESULT:      -5.1      1.717      4.770
REMARK  7 active torsions:
REMARK  status: ('A' for Active; 'I' for Inactive)
REMARK    1  A    between atoms: C_2  and  C_3 
REMARK    2  A    between atoms: C_3  and  O_6 
REMARK    3  A    between atoms: C_3  and  C_4 
REMARK    4  A    between atoms: C_7  and  O_6 
REMARK    5  A    between atoms: C_9  and  C_10 
REMARK    6  A    between atoms: N_15  and  C_14 
REMARK    7  A    between atoms: N_20  and  C_19 
REMARK       I    between atoms: C_22  and  N_20 
ROOT
ATOM      1  C   LIG d   1       0.820  82.309 112.447  0.00  0.00     0.161 C 
ATOM      2  C   LIG d   1       1.911  82.881 111.772  0.00  0.00     0.016 C 
ATOM      3  C   LIG d   1       2.226  82.600 110.423  0.00  0.00     0.038 C 
ATOM      4  C   LIG d   1       1.376  81.837 109.607  0.00  0.00     0.028 C 
ATOM      5  C   LIG d   1       0.534  80.830 110.383  0.00  0.00    -0.047 C 
ATOM      6  C   LIG d   1      -0.181  81.562 111.542  0.00  0.00     0.091 C 
ENDROOT
BRANCH   1   7
ATOM      7  O   LIG d   1       0.140  83.317 113.221  0.00  0.00    -0.368 OA
BRANCH   7   8
ATOM      8  C   LIG d   1       0.224  83.181 114.661  0.00  0.00     0.119 C 
BRANCH   8   9
ATOM      9  C   LIG d   1      -1.150  83.563 115.243  0.00  0.00     0.028 C 
ATOM     10  C   LIG d   1      -1.841  82.379 115.941  0.00  0.00     0.006 C 
ENDBRANCH   8   9
BRANCH   8  11
ATOM     11  C   LIG d   1       1.212  84.187 115.259  0.00  0.00     0.028 C 
ATOM     12  C   LIG d   1       1.068  84.330 116.782  0.00  0.00     0.006 C 
ENDBRANCH   8  11
ENDBRANCH   7   8
ENDBRANCH   1   7
BRANCH   6  13
ATOM     13  N   LIG d   1      -0.961  80.634 112.402  0.00  0.00    -0.311 N 
ATOM     14  C   LIG d   1      -2.256  80.792 112.666  0.00  0.00     0.210 C 
ATOM     15  C   LIG d   1      -2.862  79.733 113.592  0.00  0.00     0.109 C 
ATOM     16  O   LIG d   1      -2.969  81.691 112.195  0.00  0.00    -0.276 OA
ATOM     17  H   LIG d   1      -0.467  79.859 112.801  0.00  0.00     0.149 HD
ENDBRANCH   6  13
BRANCH   5  18
ATOM     18  N   LIG d   1      -0.401  80.203 109.430  0.00  0.00     0.381 N 
ATOM     19  H   LIG d   1      -1.322  80.569 109.569  0.00  0.00    -0.090 HD
ATOM     20  H   LIG d   1      -0.426  79.214 109.602  0.00  0.00    -0.090 HD
ATOM     21  H   LIG d   1      -0.104  80.378 108.495  0.00  0.00    -0.090 HD
ENDBRANCH   5  18
BRANCH   3  22
ATOM     22  C   LIG d   1       3.423  83.051 109.888  0.00  0.00     0.382 C 
ATOM     23  O   LIG d   1       3.577  84.270 109.635  0.00  0.00    -0.241 OA
ATOM     24  O   LIG d   1       4.334  82.247 109.613  0.00  0.00    -0.241 OA
ENDBRANCH   3  22
TORSDOF 7
ENDMDL
MODEL 4
REMARK VINA RESULT:      -5.1      2.510      4.713
REMARK  7 active torsions:
REMARK  status: ('A' for Active; 'I' for Inactive)
REMARK    1  A    between atoms: C_2  and  C_3 
REMARK    2  A    between atoms: C_3  and  O_6 
REMARK    3  A    between atoms: C_3  and  C_4 
REMARK    4  A    between atoms: C_7  and  O_6 
REMARK    5  A    between atoms: C_9  and  C_10 
REMARK    6  A    between atoms: N_15  and  C_14 
REMARK    7  A    between atoms: N_20  and  C_19 
REMARK       I    between atoms: C_22  and  N_20 
ROOT
ATOM      1  C   LIG d   1       2.042  81.430 112.644  0.00  0.00     0.161 C 
ATOM      2  C   LIG d   1       0.923  81.881 111.925  0.00  0.00     0.016 C 
ATOM      3  C   LIG d   1      -0.249  82.379 112.541  0.00  0.00     0.038 C 
ATOM      4  C   LIG d   1      -0.322  82.602 113.924  0.00  0.00     0.028 C 
ATOM      5  C   LIG d   1       0.594  81.691 114.733  0.00  0.00    -0.047 C 
ATOM      6  C   LIG d   1       2.023  81.769 114.149  0.00  0.00     0.091 C 
ENDROOT
BRANCH   1   7
ATOM      7  O   LIG d   1       3.249  81.928 112.033  0.00  0.00    -0.368 OA
BRANCH   7   8
ATOM      8  C   LIG d   1       3.100  82.524 110.721  0.00  0.00     0.119 C 
BRANCH   8   9
ATOM      9  C   LIG d   1       4.042  81.771 109.762  0.00  0.00     0.028 C 
ATOM     10  C   LIG d   1       3.536  80.357 109.431  0.00  0.00     0.006 C 
ENDBRANCH   8   9
BRANCH   8  11
ATOM     11  C   LIG d   1       3.585  83.976 110.709  0.00  0.00     0.028 C 
ATOM     12  C   LIG d   1       3.395  84.678 112.063  0.00  0.00     0.006 C 
ENDBRANCH   8  11
ENDBRANCH   7   8
ENDBRANCH   1   7
BRANCH   6  13
ATOM     13  N   LIG d   1       2.966  80.843 114.831  0.00  0.00    -0.311 N 
ATOM     14  C   LIG d   1       3.766  81.215 115.829  0.00  0.00     0.210 C 
ATOM     15  C   LIG d   1       4.673  80.109 116.376  0.00  0.00     0.109 C 
ATOM     16  O   LIG d   1       3.787  82.347 116.334  0.00  0.00    -0.276 OA
ATOM     17  H   LIG d   1       2.991  79.897 114.505  0.00  0.00     0.149 HD
ENDBRANCH   6  13
BRANCH   5  18
ATOM     18  N   LIG d   1       0.521  82.123 116.142  0.00  0.00     0.381 N 
ATOM     19  H   LIG d   1       0.884  81.404 116.736  0.00  0.00    -0.090 HD
ATOM     20  H   LIG d   1      -0.442  82.277 116.385  0.00  0.00    -0.090 HD
ATOM     21  H   LIG d   1       1.042  82.963 116.269  0.00  0.00    -0.090 HD
ENDBRANCH   5  18
BRANCH   3  22
ATOM     22  C   LIG d   1      -1.378  82.622 111.774  0.00  0.00     0.382 C 
ATOM     23  O   LIG d   1      -2.462  82.057 112.056  0.00  0.00    -0.241 OA
ATOM     24  O   LIG d   1      -1.316  83.366 110.776  0.00  0.00    -0.241 OA
ENDBRANCH   3  22
TORSDOF 7
ENDMDL
MODEL 5
REMARK VINA RESULT:      -5.0      1.631      4.921
REMARK  7 active torsions:
REMARK  status: ('A' for Active; 'I' for Inactive)
REMARK    1  A    between atoms: C_2  and  C_3 
REMARK    2  A    between atoms: C_3  and  O_6 
REMARK    3  A    between atoms: C_3  and  C_4 
REMARK    4  A    between atoms: C_7  and  O_6 
REMARK    5  A    between atoms: C_9  and  C_10 
REMARK    6  A    between atoms: N_15  and  C_14 
REMARK    7  A    between atoms: N_20  and  C_19 
REMARK       I    between atoms: C_22  and  N_20 
ROOT
ATOM      1  C   LIG d   1       1.198  81.994 112.421  0.00  0.00     0.161 C 
ATOM      2  C   LIG d   1       2.292  82.481 111.686  0.00  0.00     0.016 C 
ATOM      3  C   LIG d   1       2.477  82.229 110.307  0.00  0.00     0.038 C 
ATOM      4  C   LIG d   1       1.495  81.595 109.531  0.00  0.00     0.028 C 
ATOM      5  C   LIG d   1       0.609  80.647 110.331  0.00  0.00    -0.047 C 
ATOM      6  C   LIG d   1       0.060  81.395 111.568  0.00  0.00     0.091 C 
ENDROOT
BRANCH   1   7
ATOM      7  O   LIG d   1       0.686  83.032 113.281  0.00  0.00    -0.368 OA
BRANCH   7   8
ATOM      8  C   LIG d   1       0.874  82.831 114.703  0.00  0.00     0.119 C 
BRANCH   8   9
ATOM      9  C   LIG d   1       1.490  81.432 114.896  0.00  0.00     0.028 C 
ATOM     10  C   LIG d   1       0.612  80.518 115.767  0.00  0.00     0.006 C 
ENDBRANCH   8   9
BRANCH   8  11
ATOM     11  C   LIG d   1      -0.468  82.788 115.441  0.00  0.00     0.028 C 
ATOM     12  C   LIG d   1      -1.568  83.587 114.725  0.00  0.00     0.006 C 
ENDBRANCH   8  11
ENDBRANCH   7   8
ENDBRANCH   1   7
BRANCH   6  13
ATOM     13  N   LIG d   1      -0.749  80.515 112.450  0.00  0.00    -0.311 N 
ATOM     14  C   LIG d   1      -2.056  80.676 112.647  0.00  0.00     0.210 C 
ATOM     15  C   LIG d   1      -2.694  79.671 113.611  0.00  0.00     0.109 C 
ATOM     16  O   LIG d   1      -2.755  81.537 112.090  0.00  0.00    -0.276 OA
ATOM     17  H   LIG d   1      -0.268  79.772 112.918  0.00  0.00     0.149 HD
ENDBRANCH   6  13
BRANCH   5  18
ATOM     18  N   LIG d   1      -0.454  80.163 109.430  0.00  0.00     0.381 N 
ATOM     19  H   LIG d   1      -0.942  80.941 109.033  0.00  0.00    -0.090 HD
ATOM     20  H   LIG d   1      -1.109  79.618 109.963  0.00  0.00    -0.090 HD
ATOM     21  H   LIG d   1      -0.059  79.604 108.706  0.00  0.00    -0.090 HD
ENDBRANCH   5  18
BRANCH   3  22
ATOM     22  C   LIG d   1       3.673  82.578 109.699  0.00  0.00     0.382 C 
ATOM     23  O   LIG d   1       4.521  81.693 109.430  0.00  0.00    -0.241 OA
ATOM     24  O   LIG d   1       3.934  83.771 109.457  0.00  0.00    -0.241 OA
ENDBRANCH   3  22
TORSDOF 7
ENDMDL
MODEL 6
REMARK VINA RESULT:      -4.9      3.304      5.027
REMARK  7 active torsions:
REMARK  status: ('A' for Active; 'I' for Inactive)
REMARK    1  A    between atoms: C_2  and  C_3 
REMARK    2  A    between atoms: C_3  and  O_6 
REMARK    3  A    between atoms: C_3  and  C_4 
REMARK    4  A    between atoms: C_7  and  O_6 
REMARK    5  A    between atoms: C_9  and  C_10 
REMARK    6  A    between atoms: N_15  and  C_14 
REMARK    7  A    between atoms: N_20  and  C_19 
REMARK       I    between atoms: C_22  and  N_20 
ROOT
ATOM      1  C   LIG d   1      -1.846  80.569 114.289  0.00  0.00     0.161 C 
ATOM      2  C   LIG d   1      -1.825  81.946 114.012  0.00  0.00     0.016 C 
ATOM      3  C   LIG d   1      -1.406  82.484 112.773  0.00  0.00     0.038 C 
ATOM      4  C   LIG d   1      -1.121  81.668 111.669  0.00  0.00     0.028 C 
ATOM      5  C   LIG d   1      -0.643  80.272 112.054  0.00  0.00    -0.047 C 
ATOM      6  C   LIG d   1      -1.644  79.659 113.059  0.00  0.00     0.091 C 
ENDROOT
BRANCH   1   7
ATOM      7  O   LIG d   1      -3.069  80.226 114.971  0.00  0.00    -0.368 OA
BRANCH   7   8
ATOM      8  C   LIG d   1      -2.938  79.854 116.365  0.00  0.00     0.119 C 
BRANCH   8   9
ATOM      9  C   LIG d   1      -3.440  81.041 117.210  0.00  0.00     0.028 C 
ATOM     10  C   LIG d   1      -2.290  81.926 117.720  0.00  0.00     0.006 C 
ENDBRANCH   8   9
BRANCH   8  11
ATOM     11  C   LIG d   1      -1.470  79.669 116.757  0.00  0.00     0.028 C 
ATOM     12  C   LIG d   1      -1.158  78.245 117.246  0.00  0.00     0.006 C 
ENDBRANCH   8  11
ENDBRANCH   7   8
ENDBRANCH   1   7
BRANCH   6  13
ATOM     13  N   LIG d   1      -1.208  78.327 113.553  0.00  0.00    -0.311 N 
ATOM     14  C   LIG d   1      -1.992  77.250 113.547  0.00  0.00     0.210 C 
ATOM     15  C   LIG d   1      -1.352  75.981 114.119  0.00  0.00     0.109 C 
ATOM     16  O   LIG d   1      -3.145  77.217 113.094  0.00  0.00    -0.276 OA
ATOM     17  H   LIG d   1      -0.275  78.256 113.910  0.00  0.00     0.149 HD
ENDBRANCH   6  13
BRANCH   5  18
ATOM     18  N   LIG d   1      -0.515  79.486 110.813  0.00  0.00     0.381 N 
ATOM     19  H   LIG d   1       0.059  78.683 110.978  0.00  0.00    -0.090 HD
ATOM     20  H   LIG d   1      -0.069  80.054 110.113  0.00  0.00    -0.090 HD
ATOM     21  H   LIG d   1      -1.415  79.201 110.495  0.00  0.00    -0.090 HD
ENDBRANCH   5  18
BRANCH   3  22
ATOM     22  C   LIG d   1      -1.230  83.854 112.643  0.00  0.00     0.382 C 
ATOM     23  O   LIG d   1      -1.094  84.568 113.666  0.00  0.00    -0.241 OA
ATOM     24  O   LIG d   1      -1.251  84.389 111.519  0.00  0.00    -0.241 OA
ENDBRANCH   3  22
TORSDOF 7
ENDMDL
MODEL 7
REMARK VINA RESULT:      -4.8      2.236      4.191
REMARK  7 active torsions:
REMARK  status: ('A' for Active; 'I' for Inactive)
REMARK    1  A    between atoms: C_2  and  C_3 
REMARK    2  A    between atoms: C_3  and  O_6 
REMARK    3  A    between atoms: C_3  and  C_4 
REMARK    4  A    between atoms: C_7  and  O_6 
REMARK    5  A    between atoms: C_9  and  C_10 
REMARK    6  A    between atoms: N_15  and  C_14 
REMARK    7  A    between atoms: N_20  and  C_19 
REMARK       I    between atoms: C_22  and  N_20 
ROOT
ATOM      1  C   LIG d   1       0.263  81.894 111.346  0.00  0.00     0.161 C 
ATOM      2  C   LIG d   1      -0.614  80.796 111.359  0.00  0.00     0.016 C 
ATOM      3  C   LIG d   1      -1.673  80.657 112.285  0.00  0.00     0.038 C 
ATOM      4  C   LIG d   1      -2.023  81.686 113.172  0.00  0.00     0.028 C 
ATOM      5  C   LIG d   1      -0.854  82.597 113.534  0.00  0.00    -0.047 C 
ATOM      6  C   LIG d   1      -0.172  83.079 112.233  0.00  0.00     0.091 C 
ENDROOT
BRANCH   1   7
ATOM      7  O   LIG d   1       0.474  82.335 109.990  0.00  0.00    -0.368 OA
BRANCH   7   8
ATOM      8  C   LIG d   1       1.784  82.071 109.430  0.00  0.00     0.119 C 
BRANCH   8   9
ATOM      9  C   LIG d   1       2.449  80.988 110.301  0.00  0.00     0.028 C 
ATOM     10  C   LIG d   1       2.625  79.657 109.550  0.00  0.00     0.006 C 
ENDBRANCH   8   9
BRANCH   8  11
ATOM     11  C   LIG d   1       2.695  83.297 109.541  0.00  0.00     0.028 C 
ATOM     12  C   LIG d   1       4.187  82.940 109.454  0.00  0.00     0.006 C 
ENDBRANCH   8  11
ENDBRANCH   7   8
ENDBRANCH   1   7
BRANCH   6  13
ATOM     13  N   LIG d   1       1.033  83.907 112.499  0.00  0.00    -0.311 N 
ATOM     14  C   LIG d   1       2.092  83.465 113.175  0.00  0.00     0.210 C 
ATOM     15  C   LIG d   1       3.219  84.488 113.353  0.00  0.00     0.109 C 
ATOM     16  O   LIG d   1       2.219  82.313 113.616  0.00  0.00    -0.276 OA
ATOM     17  H   LIG d   1       1.028  84.846 112.149  0.00  0.00     0.149 HD
ENDBRANCH   6  13
BRANCH   5  18
ATOM     18  N   LIG d   1      -1.387  83.703 114.352  0.00  0.00     0.381 N 
ATOM     19  H   LIG d   1      -0.928  83.719 115.240  0.00  0.00    -0.090 HD
ATOM     20  H   LIG d   1      -2.368  83.549 114.507  0.00  0.00    -0.090 HD
ATOM     21  H   LIG d   1      -1.250  84.571 113.882  0.00  0.00    -0.090 HD
ENDBRANCH   5  18
BRANCH   3  22
ATOM     22  C   LIG d   1      -2.370  79.460 112.357  0.00  0.00     0.382 C 
ATOM     23  O   LIG d   1      -3.440  79.396 113.010  0.00  0.00    -0.241 OA
ATOM     24  O   LIG d   1      -1.919  78.433 111.816  0.00  0.00    -0.241 OA
ENDBRANCH   3  22
TORSDOF 7
ENDMDL
MODEL 8
REMARK VINA RESULT:      -4.6      2.229      4.900
REMARK  7 active torsions:
REMARK  status: ('A' for Active; 'I' for Inactive)
REMARK    1  A    between atoms: C_2  and  C_3 
REMARK    2  A    between atoms: C_3  and  O_6 
REMARK    3  A    between atoms: C_3  and  C_4 
REMARK    4  A    between atoms: C_7  and  O_6 
REMARK    5  A    between atoms: C_9  and  C_10 
REMARK    6  A    between atoms: N_15  and  C_14 
REMARK    7  A    between atoms: N_20  and  C_19 
REMARK       I    between atoms: C_22  and  N_20 
ROOT
ATOM      1  C   LIG d   1       1.600  81.545 112.792  0.00  0.00     0.161 C 
ATOM      2  C   LIG d   1       2.723  81.522 111.948  0.00  0.00     0.016 C 
ATOM      3  C   LIG d   1       2.702  81.990 110.614  0.00  0.00     0.038 C 
ATOM      4  C   LIG d   1       1.590  82.656 110.078  0.00  0.00     0.028 C 
ATOM      5  C   LIG d   1       0.271  82.250 110.727  0.00  0.00    -0.047 C 
ATOM      6  C   LIG d   1       0.408  82.369 112.262  0.00  0.00     0.091 C 
ENDROOT
BRANCH   1   7
ATOM      7  O   LIG d   1       1.984  82.005 114.103  0.00  0.00    -0.368 OA
BRANCH   7   8
ATOM      8  C   LIG d   1       2.061  80.992 115.136  0.00  0.00     0.119 C 
BRANCH   8   9
ATOM      9  C   LIG d   1       0.890  81.233 116.108  0.00  0.00     0.028 C 
ATOM     10  C   LIG d   1      -0.123  80.075 116.104  0.00  0.00     0.006 C 
ENDBRANCH   8   9
BRANCH   8  11
ATOM     11  C   LIG d   1       3.328  81.154 115.981  0.00  0.00     0.028 C 
ATOM     12  C   LIG d   1       4.322  79.997 115.792  0.00  0.00     0.006 C 
ENDBRANCH   8  11
ENDBRANCH   7   8
ENDBRANCH   1   7
BRANCH   6  13
ATOM     13  N   LIG d   1      -0.810  81.909 112.978  0.00  0.00    -0.311 N 
ATOM     14  C   LIG d   1      -1.641  82.733 113.615  0.00  0.00     0.210 C 
ATOM     15  C   LIG d   1      -2.826  82.050 114.304  0.00  0.00     0.109 C 
ATOM     16  O   LIG d   1      -1.526  83.967 113.647  0.00  0.00    -0.276 OA
ATOM     17  H   LIG d   1      -0.997  80.926 112.975  0.00  0.00     0.149 HD
ENDBRANCH   6  13
BRANCH   5  18
ATOM     18  N   LIG d   1      -0.785  83.117 110.172  0.00  0.00     0.381 N 
ATOM     19  H   LIG d   1      -0.453  83.566 109.341  0.00  0.00    -0.090 HD
ATOM     20  H   LIG d   1      -1.010  83.828 110.846  0.00  0.00    -0.090 HD
ATOM     21  H   LIG d   1      -1.596  82.577 109.964  0.00  0.00    -0.090 HD
ENDBRANCH   5  18
BRANCH   3  22
ATOM     22  C   LIG d   1       3.791  81.758 109.787  0.00  0.00     0.382 C 
ATOM     23  O   LIG d   1       4.069  80.588 109.430  0.00  0.00    -0.241 OA
ATOM     24  O   LIG d   1       4.526  82.699 109.430  0.00  0.00    -0.241 OA
ENDBRANCH   3  22
TORSDOF 7
ENDMDL
MODEL 9
REMARK VINA RESULT:      -4.5      1.905      4.726
REMARK  7 active torsions:
REMARK  status: ('A' for Active; 'I' for Inactive)
REMARK    1  A    between atoms: C_2  and  C_3 
REMARK    2  A    between atoms: C_3  and  O_6 
REMARK    3  A    between atoms: C_3  and  C_4 
REMARK    4  A    between atoms: C_7  and  O_6 
REMARK    5  A    between atoms: C_9  and  C_10 
REMARK    6  A    between atoms: N_15  and  C_14 
REMARK    7  A    between atoms: N_20  and  C_19 
REMARK       I    between atoms: C_22  and  N_20 
ROOT
ATOM      1  C   LIG d   1       1.309  82.131 113.070  0.00  0.00     0.161 C 
ATOM      2  C   LIG d   1       2.370  82.018 112.157  0.00  0.00     0.016 C 
ATOM      3  C   LIG d   1       2.272  81.320 110.931  0.00  0.00     0.038 C 
ATOM      4  C   LIG d   1       1.051  80.811 110.463  0.00  0.00     0.028 C 
ATOM      5  C   LIG d   1       0.073  80.463 111.580  0.00  0.00    -0.047 C 
ATOM      6  C   LIG d   1      -0.063  81.678 112.526  0.00  0.00     0.091 C 
ENDROOT
BRANCH   1   7
ATOM      7  O   LIG d   1       1.230  83.482 113.563  0.00  0.00    -0.368 OA
BRANCH   7   8
ATOM      8  C   LIG d   1       1.774  83.710 114.887  0.00  0.00     0.119 C 
BRANCH   8   9
ATOM      9  C   LIG d   1       0.692  84.431 115.714  0.00  0.00     0.028 C 
ATOM     10  C   LIG d   1       0.189  83.579 116.891  0.00  0.00     0.006 C 
ENDBRANCH   8   9
BRANCH   8  11
ATOM     11  C   LIG d   1       2.961  84.677 114.842  0.00  0.00     0.028 C 
ATOM     12  C   LIG d   1       4.139  84.213 115.714  0.00  0.00     0.006 C 
ENDBRANCH   8  11
ENDBRANCH   7   8
ENDBRANCH   1   7
BRANCH   6  13
ATOM     13  N   LIG d   1      -0.937  81.392 113.693  0.00  0.00    -0.311 N 
ATOM     14  C   LIG d   1      -1.920  82.200 114.087  0.00  0.00     0.210 C 
ATOM     15  C   LIG d   1      -2.688  81.728 115.326  0.00  0.00     0.109 C 
ATOM     16  O   LIG d   1      -2.250  83.247 113.510  0.00  0.00    -0.276 OA
ATOM     17  H   LIG d   1      -0.759  80.548 114.201  0.00  0.00     0.149 HD
ENDBRANCH   6  13
BRANCH   5  18
ATOM     18  N   LIG d   1      -1.203  80.076 110.949  0.00  0.00     0.381 N 
ATOM     19  H   LIG d   1      -1.171  80.274 109.969  0.00  0.00    -0.090 HD
ATOM     20  H   LIG d   1      -1.945  80.619 111.356  0.00  0.00    -0.090 HD
ATOM     21  H   LIG d   1      -1.375  79.106 111.093  0.00  0.00    -0.090 HD
ENDBRANCH   5  18
BRANCH   3  22
ATOM     22  C   LIG d   1       3.414  81.090 110.178  0.00  0.00     0.382 C 
ATOM     23  O   LIG d   1       3.658  79.937 109.746  0.00  0.00    -0.241 OA
ATOM     24  O   LIG d   1       4.224  82.010 109.962  0.00  0.00    -0.241 OA
ENDBRANCH   3  22
TORSDOF 7
ENDMDL
