MODEL 1
REMARK VINA RESULT:      -5.6      0.000      0.000
REMARK  7 active torsions:
REMARK  status: ('A' for Active; 'I' for Inactive)
REMARK    1  A    between atoms: C_2  and  C_3 
REMARK    2  A    between atoms: C_3  and  O_6 
REMARK    3  A    between atoms: C_3  and  C_4 
REMARK    4  A    between atoms: C_7  and  O_6 
REMARK    5  A    between atoms: C_9  and  C_10 
REMARK    6  A    between atoms: N_15  and  C_14 
REMARK    7  A    between atoms: N_20  and  C_19 
REMARK       I    between atoms: C_22  and  N_20 
ROOT
ATOM      1  C   LIG d   1       0.823  82.111 111.865  0.00  0.00     0.161 C 
ATOM      2  C   LIG d   1      -0.460  81.973 112.420  0.00  0.00     0.016 C 
ATOM      3  C   LIG d   1      -1.302  80.865 112.168  0.00  0.00     0.038 C 
ATOM      4  C   LIG d   1      -0.855  79.740 111.459  0.00  0.00     0.028 C 
ATOM      5  C   LIG d   1       0.251  80.056 110.458  0.00  0.00    -0.047 C 
ATOM      6  C   LIG d   1       1.370  80.843 111.178  0.00  0.00     0.091 C 
ENDROOT
BRANCH   1   7
ATOM      7  O   LIG d   1       1.744  82.573 112.872  0.00  0.00    -0.368 OA
BRANCH   7   8
ATOM      8  C   LIG d   1       1.684  83.985 113.192  0.00  0.00     0.119 C 
BRANCH   8   9
ATOM      9  C   LIG d   1       2.925  84.653 112.567  0.00  0.00     0.028 C 
ATOM     10  C   LIG d   1       4.208  83.835 112.791  0.00  0.00     0.006 C 
ENDBRANCH   8   9
BRANCH   8  11
ATOM     11  C   LIG d   1       1.812  84.221 114.699  0.00  0.00     0.028 C 
ATOM     12  C   LIG d   1       1.903  82.914 115.502  0.00  0.00     0.006 C 
ENDBRANCH   8  11
ENDBRANCH   7   8
ENDBRANCH   1   7
BRANCH   6  13
ATOM     13  N   LIG d   1       2.453  81.265 110.252  0.00  0.00    -0.311 N 
ATOM     14  C   LIG d   1       3.748  81.091 110.510  0.00  0.00     0.210 C 
ATOM     15  C   LIG d   1       4.699  81.617 109.430  0.00  0.00     0.109 C 
ATOM     16  O   LIG d   1       4.198  80.522 111.516  0.00  0.00    -0.276 OA
ATOM     17  H   LIG d   1       2.176  81.707 109.397  0.00  0.00     0.149 HD
ENDBRANCH   6  13
BRANCH   5  18
ATOM     18  N   LIG d   1       0.717  78.777 109.890  0.00  0.00     0.381 N 
ATOM     19  H   LIG d   1       1.556  78.925 109.364  0.00  0.00    -0.090 HD
ATOM     20  H   LIG d   1       0.013  78.422 109.267  0.00  0.00    -0.090 HD
ATOM     21  H   LIG d   1       0.886  78.121 110.620  0.00  0.00    -0.090 HD
ENDBRANCH   5  18
BRANCH   3  22
ATOM     22  C   LIG d   1      -2.621  80.893 112.595  0.00  0.00     0.382 C 
ATOM     23  O   LIG d   1      -3.439  81.675 112.053  0.00  0.00    -0.241 OA
ATOM     24  O   LIG d   1      -2.993  80.178 113.544  0.00  0.00    -0.241 OA
ENDBRANCH   3  22
TORSDOF 7
ENDMDL
MODEL 2
REMARK VINA RESULT:      -5.5      0.722      1.810
REMARK  7 active torsions:
REMARK  status: ('A' for Active; 'I' for Inactive)
REMARK    1  A    between atoms: C_2  and  C_3 
REMARK    2  A    between atoms: C_3  and  O_6 
REMARK    3  A    between atoms: C_3  and  C_4 
REMARK    4  A    between atoms: C_7  and  O_6 
REMARK    5  A    between atoms: C_9  and  C_10 
REMARK    6  A    between atoms: N_15  and  C_14 
REMARK    7  A    between atoms: N_20  and  C_19 
REMARK       I    between atoms: C_22  and  N_20 
ROOT
ATOM      1  C   LIG d   1       0.905  81.993 111.845  0.00  0.00     0.161 C 
ATOM      2  C   LIG d   1      -0.376  81.814 112.392  0.00  0.00     0.016 C 
ATOM      3  C   LIG d   1      -1.199  80.702 112.098  0.00  0.00     0.038 C 
ATOM      4  C   LIG d   1      -0.732  79.611 111.350  0.00  0.00     0.028 C 
ATOM      5  C   LIG d   1       0.371  79.980 110.364  0.00  0.00    -0.047 C 
ATOM      6  C   LIG d   1       1.475  80.759 111.115  0.00  0.00     0.091 C 
ENDROOT
BRANCH   1   7
ATOM      7  O   LIG d   1       1.817  82.434 112.870  0.00  0.00    -0.368 OA
BRANCH   7   8
ATOM      8  C   LIG d   1       2.330  83.782 112.731  0.00  0.00     0.119 C 
BRANCH   8   9
ATOM      9  C   LIG d   1       1.969  84.549 114.018  0.00  0.00     0.028 C 
ATOM     10  C   LIG d   1       1.686  83.610 115.202  0.00  0.00     0.006 C 
ENDBRANCH   8   9
BRANCH   8  11
ATOM     11  C   LIG d   1       1.622  84.533 111.599  0.00  0.00     0.028 C 
ATOM     12  C   LIG d   1       2.493  84.672 110.341  0.00  0.00     0.006 C 
ENDBRANCH   8  11
ENDBRANCH   7   8
ENDBRANCH   1   7
BRANCH   6  13
ATOM     13  N   LIG d   1       2.553  81.231 110.206  0.00  0.00    -0.311 N 
ATOM     14  C   LIG d   1       3.845  81.203 110.526  0.00  0.00     0.210 C 
ATOM     15  C   LIG d   1       4.789  81.756 109.453  0.00  0.00     0.109 C 
ATOM     16  O   LIG d   1       4.303  80.743 111.583  0.00  0.00    -0.276 OA
ATOM     17  H   LIG d   1       2.273  81.591 109.315  0.00  0.00     0.149 HD
ENDBRANCH   6  13
BRANCH   5  18
ATOM     18  N   LIG d   1       0.858  78.730 109.752  0.00  0.00     0.381 N 
ATOM     19  H   LIG d   1       0.901  78.833 108.758  0.00  0.00    -0.090 HD
ATOM     20  H   LIG d   1       0.212  77.990 109.965  0.00  0.00    -0.090 HD
ATOM     21  H   LIG d   1       1.761  78.505 110.110  0.00  0.00    -0.090 HD
ENDBRANCH   5  18
BRANCH   3  22
ATOM     22  C   LIG d   1      -2.519  80.694 112.523  0.00  0.00     0.382 C 
ATOM     23  O   LIG d   1      -2.942  79.753 113.237  0.00  0.00    -0.241 OA
ATOM     24  O   LIG d   1      -3.304  81.592 112.163  0.00  0.00    -0.241 OA
ENDBRANCH   3  22
TORSDOF 7
ENDMDL
MODEL 3
REMARK VINA RESULT:      -5.0      2.406      3.754
REMARK  7 active torsions:
REMARK  status: ('A' for Active; 'I' for Inactive)
REMARK    1  A    between atoms: C_2  and  C_3 
REMARK    2  A    between atoms: C_3  and  O_6 
REMARK    3  A    between atoms: C_3  and  C_4 
REMARK    4  A    between atoms: C_7  and  O_6 
REMARK    5  A    between atoms: C_9  and  C_10 
REMARK    6  A    between atoms: N_15  and  C_14 
REMARK    7  A    between atoms: N_20  and  C_19 
REMARK       I    between atoms: C_22  and  N_20 
ROOT
ATOM      1  C   LIG d   1       0.546  80.313 111.303  0.00  0.00     0.161 C 
ATOM      2  C   LIG d   1      -0.664  79.667 110.998  0.00  0.00     0.016 C 
ATOM      3  C   LIG d   1      -1.504  79.087 111.976  0.00  0.00     0.038 C 
ATOM      4  C   LIG d   1      -1.264  79.246 113.349  0.00  0.00     0.028 C 
ATOM      5  C   LIG d   1       0.208  79.455 113.686  0.00  0.00    -0.047 C 
ATOM      6  C   LIG d   1       0.769  80.593 112.804  0.00  0.00     0.091 C 
ENDROOT
BRANCH   1   7
ATOM      7  O   LIG d   1       0.654  81.533 110.543  0.00  0.00    -0.368 OA
BRANCH   7   8
ATOM      8  C   LIG d   1       1.581  81.511 109.430  0.00  0.00     0.119 C 
BRANCH   8   9
ATOM      9  C   LIG d   1       2.475  80.267 109.596  0.00  0.00     0.028 C 
ATOM     10  C   LIG d   1       3.954  80.631 109.809  0.00  0.00     0.006 C 
ENDBRANCH   8   9
BRANCH   8  11
ATOM     11  C   LIG d   1       2.537  82.707 109.478  0.00  0.00     0.028 C 
ATOM     12  C   LIG d   1       1.988  83.877 110.310  0.00  0.00     0.006 C 
ENDBRANCH   8  11
ENDBRANCH   7   8
ENDBRANCH   1   7
BRANCH   6  13
ATOM     13  N   LIG d   1       2.225  80.806 113.010  0.00  0.00    -0.311 N 
ATOM     14  C   LIG d   1       2.745  81.956 113.435  0.00  0.00     0.210 C 
ATOM     15  C   LIG d   1       4.272  81.968 113.561  0.00  0.00     0.109 C 
ATOM     16  O   LIG d   1       2.085  82.958 113.750  0.00  0.00    -0.276 OA
ATOM     17  H   LIG d   1       2.832  80.035 112.808  0.00  0.00     0.149 HD
ENDBRANCH   6  13
BRANCH   5  18
ATOM     18  N   LIG d   1       0.298  79.744 115.130  0.00  0.00     0.381 N 
ATOM     19  H   LIG d   1      -0.160  80.610 115.331  0.00  0.00    -0.090 HD
ATOM     20  H   LIG d   1       1.266  79.833 115.384  0.00  0.00    -0.090 HD
ATOM     21  H   LIG d   1      -0.124  79.008 115.652  0.00  0.00    -0.090 HD
ENDBRANCH   5  18
BRANCH   3  22
ATOM     22  C   LIG d   1      -2.578  78.303 111.581  0.00  0.00     0.382 C 
ATOM     23  O   LIG d   1      -3.439  77.951 112.423  0.00  0.00    -0.241 OA
ATOM     24  O   LIG d   1      -2.672  77.907 110.404  0.00  0.00    -0.241 OA
ENDBRANCH   3  22
TORSDOF 7
ENDMDL
MODEL 4
REMARK VINA RESULT:      -4.8      2.379      3.430
REMARK  7 active torsions:
REMARK  status: ('A' for Active; 'I' for Inactive)
REMARK    1  A    between atoms: C_2  and  C_3 
REMARK    2  A    between atoms: C_3  and  O_6 
REMARK    3  A    between atoms: C_3  and  C_4 
REMARK    4  A    between atoms: C_7  and  O_6 
REMARK    5  A    between atoms: C_9  and  C_10 
REMARK    6  A    between atoms: N_15  and  C_14 
REMARK    7  A    between atoms: N_20  and  C_19 
REMARK       I    between atoms: C_22  and  N_20 
ROOT
ATOM      1  C   LIG d   1       1.029  80.574 110.876  0.00  0.00     0.161 C 
ATOM      2  C   LIG d   1      -0.207  79.918 110.757  0.00  0.00     0.016 C 
ATOM      3  C   LIG d   1      -0.964  79.478 111.867  0.00  0.00     0.038 C 
ATOM      4  C   LIG d   1      -0.606  79.800 113.184  0.00  0.00     0.028 C 
ATOM      5  C   LIG d   1       0.892  80.022 113.367  0.00  0.00    -0.047 C 
ATOM      6  C   LIG d   1       1.383  81.033 112.306  0.00  0.00     0.091 C 
ENDROOT
BRANCH   1   7
ATOM      7  O   LIG d   1       1.080  81.690 109.965  0.00  0.00    -0.368 OA
BRANCH   7   8
ATOM      8  C   LIG d   1       1.154  83.004 110.570  0.00  0.00     0.119 C 
BRANCH   8   9
ATOM      9  C   LIG d   1      -0.284  83.548 110.673  0.00  0.00     0.028 C 
ATOM     10  C   LIG d   1      -0.648  83.978 112.104  0.00  0.00     0.006 C 
ENDBRANCH   8   9
BRANCH   8  11
ATOM     11  C   LIG d   1       1.897  83.993 109.666  0.00  0.00     0.028 C 
ATOM     12  C   LIG d   1       3.213  84.491 110.283  0.00  0.00     0.006 C 
ENDBRANCH   8  11
ENDBRANCH   7   8
ENDBRANCH   1   7
BRANCH   6  13
ATOM     13  N   LIG d   1       2.853  81.243 112.360  0.00  0.00    -0.311 N 
ATOM     14  C   LIG d   1       3.431  82.198 113.087  0.00  0.00     0.210 C 
ATOM     15  C   LIG d   1       4.959  82.253 112.985  0.00  0.00     0.109 C 
ATOM     16  O   LIG d   1       2.826  82.985 113.830  0.00  0.00    -0.276 OA
ATOM     17  H   LIG d   1       3.422  80.629 111.811  0.00  0.00     0.149 HD
ENDBRANCH   6  13
BRANCH   5  18
ATOM     18  N   LIG d   1       1.108  80.485 114.751  0.00  0.00     0.381 N 
ATOM     19  H   LIG d   1       1.723  79.855 115.226  0.00  0.00    -0.090 HD
ATOM     20  H   LIG d   1       0.227  80.490 115.233  0.00  0.00    -0.090 HD
ATOM     21  H   LIG d   1       1.499  81.401 114.747  0.00  0.00    -0.090 HD
ENDBRANCH   5  18
BRANCH   3  22
ATOM     22  C   LIG d   1      -2.074  78.671 111.665  0.00  0.00     0.382 C 
ATOM     23  O   LIG d   1      -1.942  77.547 111.124  0.00  0.00    -0.241 OA
ATOM     24  O   LIG d   1      -3.211  79.072 111.977  0.00  0.00    -0.241 OA
ENDBRANCH   3  22
TORSDOF 7
ENDMDL
MODEL 5
REMARK VINA RESULT:      -4.7      2.741      4.458
REMARK  7 active torsions:
REMARK  status: ('A' for Active; 'I' for Inactive)
REMARK    1  A    between atoms: C_2  and  C_3 
REMARK    2  A    between atoms: C_3  and  O_6 
REMARK    3  A    between atoms: C_3  and  C_4 
REMARK    4  A    between atoms: C_7  and  O_6 
REMARK    5  A    between atoms: C_9  and  C_10 
REMARK    6  A    between atoms: N_15  and  C_14 
REMARK    7  A    between atoms: N_20  and  C_19 
REMARK       I    between atoms: C_22  and  N_20 
ROOT
ATOM      1  C   LIG d   1       1.937  81.080 112.294  0.00  0.00     0.161 C 
ATOM      2  C   LIG d   1       0.968  81.901 111.693  0.00  0.00     0.016 C 
ATOM      3  C   LIG d   1       0.423  83.047 112.316  0.00  0.00     0.038 C 
ATOM      4  C   LIG d   1       0.925  83.539 113.531  0.00  0.00     0.028 C 
ATOM      5  C   LIG d   1       1.550  82.461 114.409  0.00  0.00    -0.047 C 
ATOM      6  C   LIG d   1       2.576  81.664 113.572  0.00  0.00     0.091 C 
ENDROOT
BRANCH   1   7
ATOM      7  O   LIG d   1       2.956  80.743 111.333  0.00  0.00    -0.368 OA
BRANCH   7   8
ATOM      8  C   LIG d   1       3.980  81.743 111.112  0.00  0.00     0.119 C 
BRANCH   8   9
ATOM      9  C   LIG d   1       3.462  82.703 110.024  0.00  0.00     0.028 C 
ATOM     10  C   LIG d   1       3.536  84.177 110.458  0.00  0.00     0.006 C 
ENDBRANCH   8   9
BRANCH   8  11
ATOM     11  C   LIG d   1       5.253  81.120 110.531  0.00  0.00     0.028 C 
ATOM     12  C   LIG d   1       4.988  79.790 109.807  0.00  0.00     0.006 C 
ENDBRANCH   8  11
ENDBRANCH   7   8
ENDBRANCH   1   7
BRANCH   6  13
ATOM     13  N   LIG d   1       3.173  80.535 114.332  0.00  0.00    -0.311 N 
ATOM     14  C   LIG d   1       4.233  80.667 115.129  0.00  0.00     0.210 C 
ATOM     15  C   LIG d   1       4.700  79.373 115.803  0.00  0.00     0.109 C 
ATOM     16  O   LIG d   1       4.810  81.739 115.366  0.00  0.00    -0.276 OA
ATOM     17  H   LIG d   1       2.748  79.635 114.222  0.00  0.00     0.149 HD
ENDBRANCH   6  13
BRANCH   5  18
ATOM     18  N   LIG d   1       2.153  83.132 115.576  0.00  0.00     0.381 N 
ATOM     19  H   LIG d   1       3.150  83.126 115.493  0.00  0.00    -0.090 HD
ATOM     20  H   LIG d   1       1.904  82.625 116.407  0.00  0.00    -0.090 HD
ATOM     21  H   LIG d   1       1.823  84.070 115.639  0.00  0.00    -0.090 HD
ENDBRANCH   5  18
BRANCH   3  22
ATOM     22  C   LIG d   1      -0.662  83.691 111.742  0.00  0.00     0.382 C 
ATOM     23  O   LIG d   1      -1.179  84.680 112.316  0.00  0.00    -0.241 OA
ATOM     24  O   LIG d   1      -1.159  83.268 110.681  0.00  0.00    -0.241 OA
ENDBRANCH   3  22
TORSDOF 7
ENDMDL
MODEL 6
REMARK VINA RESULT:      -4.6      1.972      5.135
REMARK  7 active torsions:
REMARK  status: ('A' for Active; 'I' for Inactive)
REMARK    1  A    between atoms: C_2  and  C_3 
REMARK    2  A    between atoms: C_3  and  O_6 
REMARK    3  A    between atoms: C_3  and  C_4 
REMARK    4  A    between atoms: C_7  and  O_6 
REMARK    5  A    between atoms: C_9  and  C_10 
REMARK    6  A    between atoms: N_15  and  C_14 
REMARK    7  A    between atoms: N_20  and  C_19 
REMARK       I    between atoms: C_22  and  N_20 
ROOT
ATOM      1  C   LIG d   1       2.042  80.841 112.383  0.00  0.00     0.161 C 
ATOM      2  C   LIG d   1       3.259  81.229 111.798  0.00  0.00     0.016 C 
ATOM      3  C   LIG d   1       3.345  82.078 110.671  0.00  0.00     0.038 C 
ATOM      4  C   LIG d   1       2.218  82.722 110.140  0.00  0.00     0.028 C 
ATOM      5  C   LIG d   1       0.917  81.964 110.382  0.00  0.00    -0.047 C 
ATOM      6  C   LIG d   1       0.808  81.622 111.886  0.00  0.00     0.091 C 
ENDROOT
BRANCH   1   7
ATOM      7  O   LIG d   1       2.141  80.922 113.818  0.00  0.00    -0.368 OA
BRANCH   7   8
ATOM      8  C   LIG d   1       2.834  82.080 114.345  0.00  0.00     0.119 C 
BRANCH   8   9
ATOM      9  C   LIG d   1       3.792  81.586 115.446  0.00  0.00     0.028 C 
ATOM     10  C   LIG d   1       3.550  80.113 115.817  0.00  0.00     0.006 C 
ENDBRANCH   8   9
BRANCH   8  11
ATOM     11  C   LIG d   1       1.866  83.036 115.049  0.00  0.00     0.028 C 
ATOM     12  C   LIG d   1       1.497  84.253 114.186  0.00  0.00     0.006 C 
ENDBRANCH   8  11
ENDBRANCH   7   8
ENDBRANCH   1   7
BRANCH   6  13
ATOM     13  N   LIG d   1      -0.396  80.807 112.195  0.00  0.00    -0.311 N 
ATOM     14  C   LIG d   1      -1.583  81.335 112.488  0.00  0.00     0.210 C 
ATOM     15  C   LIG d   1      -2.685  80.316 112.796  0.00  0.00     0.109 C 
ATOM     16  O   LIG d   1      -1.836  82.549 112.491  0.00  0.00    -0.276 OA
ATOM     17  H   LIG d   1      -0.287  79.812 112.185  0.00  0.00     0.149 HD
ENDBRANCH   6  13
BRANCH   5  18
ATOM     18  N   LIG d   1      -0.189  82.812 109.900  0.00  0.00     0.381 N 
ATOM     19  H   LIG d   1       0.052  83.777 110.006  0.00  0.00    -0.090 HD
ATOM     20  H   LIG d   1      -1.006  82.628 110.456  0.00  0.00    -0.090 HD
ATOM     21  H   LIG d   1      -0.379  82.614 108.942  0.00  0.00    -0.090 HD
ENDBRANCH   5  18
BRANCH   3  22
ATOM     22  C   LIG d   1       4.566  82.258 110.038  0.00  0.00     0.382 C 
ATOM     23  O   LIG d   1       5.445  81.366 110.106  0.00  0.00    -0.241 OA
ATOM     24  O   LIG d   1       4.815  83.320 109.437  0.00  0.00    -0.241 OA
ENDBRANCH   3  22
TORSDOF 7
ENDMDL
MODEL 7
REMARK VINA RESULT:      -4.6      2.625      4.256
REMARK  7 active torsions:
REMARK  status: ('A' for Active; 'I' for Inactive)
REMARK    1  A    between atoms: C_2  and  C_3 
REMARK    2  A    between atoms: C_3  and  O_6 
REMARK    3  A    between atoms: C_3  and  C_4 
REMARK    4  A    between atoms: C_7  and  O_6 
REMARK    5  A    between atoms: C_9  and  C_10 
REMARK    6  A    between atoms: N_15  and  C_14 
REMARK    7  A    between atoms: N_20  and  C_19 
REMARK       I    between atoms: C_22  and  N_20 
ROOT
ATOM      1  C   LIG d   1       1.299  80.741 112.288  0.00  0.00     0.161 C 
ATOM      2  C   LIG d   1       1.288  81.967 111.601  0.00  0.00     0.016 C 
ATOM      3  C   LIG d   1       0.115  82.725 111.381  0.00  0.00     0.038 C 
ATOM      4  C   LIG d   1      -1.111  82.382 111.970  0.00  0.00     0.028 C 
ATOM      5  C   LIG d   1      -1.252  80.889 112.249  0.00  0.00    -0.047 C 
ATOM      6  C   LIG d   1      -0.010  80.406 113.033  0.00  0.00     0.091 C 
ENDROOT
BRANCH   1   7
ATOM      7  O   LIG d   1       2.417  80.701 113.197  0.00  0.00    -0.368 OA
BRANCH   7   8
ATOM      8  C   LIG d   1       2.632  81.890 113.996  0.00  0.00     0.119 C 
BRANCH   8   9
ATOM      9  C   LIG d   1       4.142  82.198 113.971  0.00  0.00     0.028 C 
ATOM     10  C   LIG d   1       4.860  81.520 112.792  0.00  0.00     0.006 C 
ENDBRANCH   8   9
BRANCH   8  11
ATOM     11  C   LIG d   1       2.293  81.641 115.468  0.00  0.00     0.028 C 
ATOM     12  C   LIG d   1       2.428  80.164 115.869  0.00  0.00     0.006 C 
ENDBRANCH   8  11
ENDBRANCH   7   8
ENDBRANCH   1   7
BRANCH   6  13
ATOM     13  N   LIG d   1      -0.027  78.940 113.274  0.00  0.00    -0.311 N 
ATOM     14  C   LIG d   1      -0.568  78.381 114.356  0.00  0.00     0.210 C 
ATOM     15  C   LIG d   1      -0.460  76.855 114.418  0.00  0.00     0.109 C 
ATOM     16  O   LIG d   1      -1.155  79.003 115.255  0.00  0.00    -0.276 OA
ATOM     17  H   LIG d   1       0.400  78.358 112.580  0.00  0.00     0.149 HD
ENDBRANCH   6  13
BRANCH   5  18
ATOM     18  N   LIG d   1      -2.514  80.691 112.986  0.00  0.00     0.381 N 
ATOM     19  H   LIG d   1      -3.266  80.558 112.340  0.00  0.00    -0.090 HD
ATOM     20  H   LIG d   1      -2.706  81.515 113.529  0.00  0.00    -0.090 HD
ATOM     21  H   LIG d   1      -2.438  79.899 113.586  0.00  0.00    -0.090 HD
ENDBRANCH   5  18
BRANCH   3  22
ATOM     22  C   LIG d   1       0.154  83.820 110.531  0.00  0.00     0.382 C 
ATOM     23  O   LIG d   1       1.201  84.078 109.889  0.00  0.00    -0.241 OA
ATOM     24  O   LIG d   1      -0.828  84.579 110.434  0.00  0.00    -0.241 OA
ENDBRANCH   3  22
TORSDOF 7
ENDMDL
MODEL 8
REMARK VINA RESULT:      -4.6      2.614      3.892
REMARK  7 active torsions:
REMARK  status: ('A' for Active; 'I' for Inactive)
REMARK    1  A    between atoms: C_2  and  C_3 
REMARK    2  A    between atoms: C_3  and  O_6 
REMARK    3  A    between atoms: C_3  and  C_4 
REMARK    4  A    between atoms: C_7  and  O_6 
REMARK    5  A    between atoms: C_9  and  C_10 
REMARK    6  A    between atoms: N_15  and  C_14 
REMARK    7  A    between atoms: N_20  and  C_19 
REMARK       I    between atoms: C_22  and  N_20 
ROOT
ATOM      1  C   LIG d   1       1.517  80.880 112.117  0.00  0.00     0.161 C 
ATOM      2  C   LIG d   1       0.599  80.323 111.211  0.00  0.00     0.016 C 
ATOM      3  C   LIG d   1      -0.498  79.523 111.607  0.00  0.00     0.038 C 
ATOM      4  C   LIG d   1      -0.839  79.349 112.957  0.00  0.00     0.028 C 
ATOM      5  C   LIG d   1       0.350  79.474 113.903  0.00  0.00    -0.047 C 
ATOM      6  C   LIG d   1       1.097  80.793 113.599  0.00  0.00     0.091 C 
ENDROOT
BRANCH   1   7
ATOM      7  O   LIG d   1       1.794  82.247 111.754  0.00  0.00    -0.368 OA
BRANCH   7   8
ATOM      8  C   LIG d   1       3.077  82.493 111.128  0.00  0.00     0.119 C 
BRANCH   8   9
ATOM      9  C   LIG d   1       3.923  83.319 112.116  0.00  0.00     0.028 C 
ATOM     10  C   LIG d   1       5.070  82.501 112.733  0.00  0.00     0.006 C 
ENDBRANCH   8   9
BRANCH   8  11
ATOM     11  C   LIG d   1       2.931  83.375 109.884  0.00  0.00     0.028 C 
ATOM     12  C   LIG d   1       1.464  83.656 109.522  0.00  0.00     0.006 C 
ENDBRANCH   8  11
ENDBRANCH   7   8
ENDBRANCH   1   7
BRANCH   6  13
ATOM     13  N   LIG d   1       2.323  80.954 114.424  0.00  0.00    -0.311 N 
ATOM     14  C   LIG d   1       2.358  81.656 115.555  0.00  0.00     0.210 C 
ATOM     15  C   LIG d   1       3.728  81.711 116.239  0.00  0.00     0.109 C 
ATOM     16  O   LIG d   1       1.379  82.212 116.073  0.00  0.00    -0.276 OA
ATOM     17  H   LIG d   1       3.157  80.509 114.093  0.00  0.00     0.149 HD
ENDBRANCH   6  13
BRANCH   5  18
ATOM     18  N   LIG d   1      -0.169  79.409 115.282  0.00  0.00     0.381 N 
ATOM     19  H   LIG d   1       0.459  78.884 115.856  0.00  0.00    -0.090 HD
ATOM     20  H   LIG d   1      -1.057  78.938 115.273  0.00  0.00    -0.090 HD
ATOM     21  H   LIG d   1      -0.277  80.329 115.650  0.00  0.00    -0.090 HD
ENDBRANCH   5  18
BRANCH   3  22
ATOM     22  C   LIG d   1      -1.242  78.854 110.648  0.00  0.00     0.382 C 
ATOM     23  O   LIG d   1      -1.056  79.093 109.430  0.00  0.00    -0.241 OA
ATOM     24  O   LIG d   1      -2.129  78.047 110.986  0.00  0.00    -0.241 OA
ENDBRANCH   3  22
TORSDOF 7
ENDMDL
MODEL 9
REMARK VINA RESULT:      -4.5      2.670      5.469
REMARK  7 active torsions:
REMARK  status: ('A' for Active; 'I' for Inactive)
REMARK    1  A    between atoms: C_2  and  C_3 
REMARK    2  A    between atoms: C_3  and  O_6 
REMARK    3  A    between atoms: C_3  and  C_4 
REMARK    4  A    between atoms: C_7  and  O_6 
REMARK    5  A    between atoms: C_9  and  C_10 
REMARK    6  A    between atoms: N_15  and  C_14 
REMARK    7  A    between atoms: N_20  and  C_19 
REMARK       I    between atoms: C_22  and  N_20 
ROOT
ATOM      1  C   LIG d   1       1.703  81.909 112.584  0.00  0.00     0.161 C 
ATOM      2  C   LIG d   1       2.957  82.242 113.123  0.00  0.00     0.016 C 
ATOM      3  C   LIG d   1       3.506  81.613 114.264  0.00  0.00     0.038 C 
ATOM      4  C   LIG d   1       2.900  80.496 114.859  0.00  0.00     0.028 C 
ATOM      5  C   LIG d   1       1.389  80.448 114.657  0.00  0.00    -0.047 C 
ATOM      6  C   LIG d   1       1.078  80.618 113.153  0.00  0.00     0.091 C 
ENDROOT
BRANCH   1   7
ATOM      7  O   LIG d   1       1.793  81.832 111.148  0.00  0.00    -0.368 OA
BRANCH   7   8
ATOM      8  C   LIG d   1       3.127  81.909 110.588  0.00  0.00     0.119 C 
BRANCH   8   9
ATOM      9  C   LIG d   1       3.136  83.068 109.572  0.00  0.00     0.028 C 
ATOM     10  C   LIG d   1       3.615  84.390 110.194  0.00  0.00     0.006 C 
ENDBRANCH   8   9
BRANCH   8  11
ATOM     11  C   LIG d   1       3.465  80.655 109.776  0.00  0.00     0.028 C 
ATOM     12  C   LIG d   1       4.934  80.227 109.924  0.00  0.00     0.006 C 
ENDBRANCH   8  11
ENDBRANCH   7   8
ENDBRANCH   1   7
BRANCH   6  13
ATOM     13  N   LIG d   1      -0.382  80.666 112.878  0.00  0.00    -0.311 N 
ATOM     14  C   LIG d   1      -1.110  79.589 112.587  0.00  0.00     0.210 C 
ATOM     15  C   LIG d   1      -2.593  79.864 112.318  0.00  0.00     0.109 C 
ATOM     16  O   LIG d   1      -0.674  78.428 112.558  0.00  0.00    -0.276 OA
ATOM     17  H   LIG d   1      -0.823  81.565 112.911  0.00  0.00     0.149 HD
ENDBRANCH   6  13
BRANCH   5  18
ATOM     18  N   LIG d   1       0.907  79.167 115.206  0.00  0.00     0.381 N 
ATOM     19  H   LIG d   1       1.375  78.970 116.068  0.00  0.00    -0.090 HD
ATOM     20  H   LIG d   1       1.122  78.432 114.555  0.00  0.00    -0.090 HD
ATOM     21  H   LIG d   1      -0.077  79.209 115.357  0.00  0.00    -0.090 HD
ENDBRANCH   5  18
BRANCH   3  22
ATOM     22  C   LIG d   1       4.654  82.127 114.847  0.00  0.00     0.382 C 
ATOM     23  O   LIG d   1       5.544  82.644 114.129  0.00  0.00    -0.241 OA
ATOM     24  O   LIG d   1       4.832  82.041 116.077  0.00  0.00    -0.241 OA
ENDBRANCH   3  22
TORSDOF 7
ENDMDL
