MODEL 1
REMARK VINA RESULT:      -5.5      0.000      0.000
REMARK  7 active torsions:
REMARK  status: ('A' for Active; 'I' for Inactive)
REMARK    1  A    between atoms: C_2  and  C_3 
REMARK    2  A    between atoms: C_3  and  O_6 
REMARK    3  A    between atoms: C_3  and  C_4 
REMARK    4  A    between atoms: C_7  and  O_6 
REMARK    5  A    between atoms: C_9  and  C_10 
REMARK    6  A    between atoms: N_15  and  C_14 
REMARK    7  A    between atoms: N_20  and  C_19 
REMARK       I    between atoms: C_22  and  N_20 
ROOT
ATOM      1  C   LIG d   1       0.430  82.831 111.964  0.00  0.00     0.161 C 
ATOM      2  C   LIG d   1      -0.803  82.493 112.548  0.00  0.00     0.016 C 
ATOM      3  C   LIG d   1      -1.407  81.222 112.412  0.00  0.00     0.038 C 
ATOM      4  C   LIG d   1      -0.742  80.147 111.803  0.00  0.00     0.028 C 
ATOM      5  C   LIG d   1       0.284  80.581 110.762  0.00  0.00    -0.047 C 
ATOM      6  C   LIG d   1       1.221  81.637 111.390  0.00  0.00     0.091 C 
ENDROOT
BRANCH   1   7
ATOM      7  O   LIG d   1       1.236  83.558 112.911  0.00  0.00    -0.368 OA
BRANCH   7   8
ATOM      8  C   LIG d   1       1.450  82.916 114.192  0.00  0.00     0.119 C 
BRANCH   8   9
ATOM      9  C   LIG d   1       1.005  83.905 115.286  0.00  0.00     0.028 C 
ATOM     10  C   LIG d   1      -0.138  83.349 116.151  0.00  0.00     0.006 C 
ENDBRANCH   8   9
BRANCH   8  11
ATOM     11  C   LIG d   1       2.940  82.669 114.450  0.00  0.00     0.028 C 
ATOM     12  C   LIG d   1       3.228  81.253 114.971  0.00  0.00     0.006 C 
ENDBRANCH   8  11
ENDBRANCH   7   8
ENDBRANCH   1   7
BRANCH   6  13
ATOM     13  N   LIG d   1       2.203  82.176 110.413  0.00  0.00    -0.311 N 
ATOM     14  C   LIG d   1       3.520  82.024 110.538  0.00  0.00     0.210 C 
ATOM     15  C   LIG d   1       4.354  82.676 109.430  0.00  0.00     0.109 C 
ATOM     16  O   LIG d   1       4.076  81.383 111.442  0.00  0.00    -0.276 OA
ATOM     17  H   LIG d   1       1.837  82.684 109.632  0.00  0.00     0.149 HD
ENDBRANCH   6  13
BRANCH   5  18
ATOM     18  N   LIG d   1       0.997  79.371 110.309  0.00  0.00     0.381 N 
ATOM     19  H   LIG d   1       1.389  79.529 109.402  0.00  0.00    -0.090 HD
ATOM     20  H   LIG d   1       0.341  78.613 110.242  0.00  0.00    -0.090 HD
ATOM     21  H   LIG d   1       1.720  79.140 110.954  0.00  0.00    -0.090 HD
ENDBRANCH   5  18
BRANCH   3  22
ATOM     22  C   LIG d   1      -2.707  81.028 112.853  0.00  0.00     0.382 C 
ATOM     23  O   LIG d   1      -3.195  79.873 112.877  0.00  0.00    -0.241 OA
ATOM     24  O   LIG d   1      -3.413  81.999 113.185  0.00  0.00    -0.241 OA
ENDBRANCH   3  22
TORSDOF 7
ENDMDL
MODEL 2
REMARK VINA RESULT:      -5.3      1.960      4.909
REMARK  7 active torsions:
REMARK  status: ('A' for Active; 'I' for Inactive)
REMARK    1  A    between atoms: C_2  and  C_3 
REMARK    2  A    between atoms: C_3  and  O_6 
REMARK    3  A    between atoms: C_3  and  C_4 
REMARK    4  A    between atoms: C_7  and  O_6 
REMARK    5  A    between atoms: C_9  and  C_10 
REMARK    6  A    between atoms: N_15  and  C_14 
REMARK    7  A    between atoms: N_20  and  C_19 
REMARK       I    between atoms: C_22  and  N_20 
ROOT
ATOM      1  C   LIG d   1       0.672  81.256 113.094  0.00  0.00     0.161 C 
ATOM      2  C   LIG d   1       1.617  82.207 112.673  0.00  0.00     0.016 C 
ATOM      3  C   LIG d   1       1.900  82.472 111.313  0.00  0.00     0.038 C 
ATOM      4  C   LIG d   1       1.145  81.909 110.274  0.00  0.00     0.028 C 
ATOM      5  C   LIG d   1       0.522  80.565 110.639  0.00  0.00    -0.047 C 
ATOM      6  C   LIG d   1      -0.240  80.712 111.975  0.00  0.00     0.091 C 
ENDROOT
BRANCH   1   7
ATOM      7  O   LIG d   1      -0.121  81.799 114.168  0.00  0.00    -0.368 OA
BRANCH   7   8
ATOM      8  C   LIG d   1      -1.215  82.664 113.778  0.00  0.00     0.119 C 
BRANCH   8   9
ATOM      9  C   LIG d   1      -0.809  84.109 114.125  0.00  0.00     0.028 C 
ATOM     10  C   LIG d   1       0.002  84.194 115.430  0.00  0.00     0.006 C 
ENDBRANCH   8   9
BRANCH   8  11
ATOM     11  C   LIG d   1      -2.470  82.385 114.611  0.00  0.00     0.028 C 
ATOM     12  C   LIG d   1      -2.268  81.254 115.632  0.00  0.00     0.006 C 
ENDBRANCH   8  11
ENDBRANCH   7   8
ENDBRANCH   1   7
BRANCH   6  13
ATOM     13  N   LIG d   1      -0.810  79.422 112.447  0.00  0.00    -0.311 N 
ATOM     14  C   LIG d   1      -2.118  79.193 112.550  0.00  0.00     0.210 C 
ATOM     15  C   LIG d   1      -2.491  77.803 113.077  0.00  0.00     0.109 C 
ATOM     16  O   LIG d   1      -3.005  79.996 112.225  0.00  0.00    -0.276 OA
ATOM     17  H   LIG d   1      -0.161  78.704 112.703  0.00  0.00     0.149 HD
ENDBRANCH   6  13
BRANCH   5  18
ATOM     18  N   LIG d   1      -0.348  80.159 109.519  0.00  0.00     0.381 N 
ATOM     19  H   LIG d   1      -0.786  80.966 109.120  0.00  0.00    -0.090 HD
ATOM     20  H   LIG d   1      -1.068  79.552 109.869  0.00  0.00    -0.090 HD
ATOM     21  H   LIG d   1       0.188  79.686 108.825  0.00  0.00    -0.090 HD
ENDBRANCH   5  18
BRANCH   3  22
ATOM     22  C   LIG d   1       2.977  83.281 110.981  0.00  0.00     0.382 C 
ATOM     23  O   LIG d   1       3.762  83.678 111.875  0.00  0.00    -0.241 OA
ATOM     24  O   LIG d   1       3.147  83.654 109.805  0.00  0.00    -0.241 OA
ENDBRANCH   3  22
TORSDOF 7
ENDMDL
MODEL 3
REMARK VINA RESULT:      -5.1      1.840      4.893
REMARK  7 active torsions:
REMARK  status: ('A' for Active; 'I' for Inactive)
REMARK    1  A    between atoms: C_2  and  C_3 
REMARK    2  A    between atoms: C_3  and  O_6 
REMARK    3  A    between atoms: C_3  and  C_4 
REMARK    4  A    between atoms: C_7  and  O_6 
REMARK    5  A    between atoms: C_9  and  C_10 
REMARK    6  A    between atoms: N_15  and  C_14 
REMARK    7  A    between atoms: N_20  and  C_19 
REMARK       I    between atoms: C_22  and  N_20 
ROOT
ATOM      1  C   LIG d   1       0.947  81.653 112.775  0.00  0.00     0.161 C 
ATOM      2  C   LIG d   1       1.931  82.485 112.217  0.00  0.00     0.016 C 
ATOM      3  C   LIG d   1       2.261  82.487 110.842  0.00  0.00     0.038 C 
ATOM      4  C   LIG d   1       1.519  81.759 109.901  0.00  0.00     0.028 C 
ATOM      5  C   LIG d   1       0.846  80.522 110.486  0.00  0.00    -0.047 C 
ATOM      6  C   LIG d   1       0.050  80.933 111.746  0.00  0.00     0.091 C 
ENDROOT
BRANCH   1   7
ATOM      7  O   LIG d   1       0.140  82.405 113.703  0.00  0.00    -0.368 OA
BRANCH   7   8
ATOM      8  C   LIG d   1       0.665  82.532 115.047  0.00  0.00     0.119 C 
BRANCH   8   9
ATOM      9  C   LIG d   1       1.003  81.114 115.548  0.00  0.00     0.028 C 
ATOM     10  C   LIG d   1      -0.244  80.343 116.012  0.00  0.00     0.006 C 
ENDBRANCH   8   9
BRANCH   8  11
ATOM     11  C   LIG d   1      -0.399  83.060 116.014  0.00  0.00     0.028 C 
ATOM     12  C   LIG d   1      -1.641  83.606 115.292  0.00  0.00     0.006 C 
ENDBRANCH   8  11
ENDBRANCH   7   8
ENDBRANCH   1   7
BRANCH   6  13
ATOM     13  N   LIG d   1      -0.571  79.768 112.429  0.00  0.00    -0.311 N 
ATOM     14  C   LIG d   1      -1.878  79.671 112.669  0.00  0.00     0.210 C 
ATOM     15  C   LIG d   1      -2.307  78.396 113.403  0.00  0.00     0.109 C 
ATOM     16  O   LIG d   1      -2.726  80.504 112.317  0.00  0.00    -0.276 OA
ATOM     17  H   LIG d   1       0.040  79.031 112.721  0.00  0.00     0.149 HD
ENDBRANCH   6  13
BRANCH   5  18
ATOM     18  N   LIG d   1      -0.003  79.936 109.431  0.00  0.00     0.381 N 
ATOM     19  H   LIG d   1      -0.406  79.080 109.757  0.00  0.00    -0.090 HD
ATOM     20  H   LIG d   1       0.568  79.731 108.630  0.00  0.00    -0.090 HD
ATOM     21  H   LIG d   1      -0.724  80.576 109.180  0.00  0.00    -0.090 HD
ENDBRANCH   5  18
BRANCH   3  22
ATOM     22  C   LIG d   1       3.371  83.193 110.403  0.00  0.00     0.382 C 
ATOM     23  O   LIG d   1       3.221  84.244 109.735  0.00  0.00    -0.241 OA
ATOM     24  O   LIG d   1       4.520  82.768 110.628  0.00  0.00    -0.241 OA
ENDBRANCH   3  22
TORSDOF 7
ENDMDL
MODEL 4
REMARK VINA RESULT:      -4.6      2.724      4.890
REMARK  7 active torsions:
REMARK  status: ('A' for Active; 'I' for Inactive)
REMARK    1  A    between atoms: C_2  and  C_3 
REMARK    2  A    between atoms: C_3  and  O_6 
REMARK    3  A    between atoms: C_3  and  C_4 
REMARK    4  A    between atoms: C_7  and  O_6 
REMARK    5  A    between atoms: C_9  and  C_10 
REMARK    6  A    between atoms: N_15  and  C_14 
REMARK    7  A    between atoms: N_20  and  C_19 
REMARK       I    between atoms: C_22  and  N_20 
ROOT
ATOM      1  C   LIG d   1       2.160  81.654 113.299  0.00  0.00     0.161 C 
ATOM      2  C   LIG d   1       0.996  82.395 113.036  0.00  0.00     0.016 C 
ATOM      3  C   LIG d   1       0.288  83.109 114.029  0.00  0.00     0.038 C 
ATOM      4  C   LIG d   1       0.784  83.256 115.333  0.00  0.00     0.028 C 
ATOM      5  C   LIG d   1       1.691  82.110 115.769  0.00  0.00    -0.047 C 
ATOM      6  C   LIG d   1       2.779  81.894 114.692  0.00  0.00     0.091 C 
ENDROOT
BRANCH   1   7
ATOM      7  O   LIG d   1       3.138  81.899 112.268  0.00  0.00    -0.368 OA
BRANCH   7   8
ATOM      8  C   LIG d   1       2.618  82.326 110.985  0.00  0.00     0.119 C 
BRANCH   8   9
ATOM      9  C   LIG d   1       2.823  81.164 109.993  0.00  0.00     0.028 C 
ATOM     10  C   LIG d   1       4.253  81.118 109.431  0.00  0.00     0.006 C 
ENDBRANCH   8   9
BRANCH   8  11
ATOM     11  C   LIG d   1       3.429  83.493 110.415  0.00  0.00     0.028 C 
ATOM     12  C   LIG d   1       3.822  84.524 111.486  0.00  0.00     0.006 C 
ENDBRANCH   8  11
ENDBRANCH   7   8
ENDBRANCH   1   7
BRANCH   6  13
ATOM     13  N   LIG d   1       3.658  80.735 114.999  0.00  0.00    -0.311 N 
ATOM     14  C   LIG d   1       4.858  80.855 115.564  0.00  0.00     0.210 C 
ATOM     15  C   LIG d   1       5.608  79.536 115.775  0.00  0.00     0.109 C 
ATOM     16  O   LIG d   1       5.359  81.926 115.940  0.00  0.00    -0.276 OA
ATOM     17  H   LIG d   1       3.316  79.826 114.756  0.00  0.00     0.149 HD
ENDBRANCH   6  13
BRANCH   5  18
ATOM     18  N   LIG d   1       2.246  82.459 117.090  0.00  0.00     0.381 N 
ATOM     19  H   LIG d   1       1.875  81.844 117.786  0.00  0.00    -0.090 HD
ATOM     20  H   LIG d   1       1.973  83.398 117.320  0.00  0.00    -0.090 HD
ATOM     21  H   LIG d   1       3.240  82.389 117.071  0.00  0.00    -0.090 HD
ENDBRANCH   5  18
BRANCH   3  22
ATOM     22  C   LIG d   1      -0.952  83.654 113.732  0.00  0.00     0.382 C 
ATOM     23  O   LIG d   1      -1.799  83.821 114.643  0.00  0.00    -0.241 OA
ATOM     24  O   LIG d   1      -1.252  83.938 112.557  0.00  0.00    -0.241 OA
ENDBRANCH   3  22
TORSDOF 7
ENDMDL
MODEL 5
REMARK VINA RESULT:      -4.6      2.749      4.590
REMARK  7 active torsions:
REMARK  status: ('A' for Active; 'I' for Inactive)
REMARK    1  A    between atoms: C_2  and  C_3 
REMARK    2  A    between atoms: C_3  and  O_6 
REMARK    3  A    between atoms: C_3  and  C_4 
REMARK    4  A    between atoms: C_7  and  O_6 
REMARK    5  A    between atoms: C_9  and  C_10 
REMARK    6  A    between atoms: N_15  and  C_14 
REMARK    7  A    between atoms: N_20  and  C_19 
REMARK       I    between atoms: C_22  and  N_20 
ROOT
ATOM      1  C   LIG d   1      -0.438  80.881 112.486  0.00  0.00     0.161 C 
ATOM      2  C   LIG d   1      -1.123  79.684 112.220  0.00  0.00     0.016 C 
ATOM      3  C   LIG d   1      -2.050  79.103 113.116  0.00  0.00     0.038 C 
ATOM      4  C   LIG d   1      -2.470  79.763 114.280  0.00  0.00     0.028 C 
ATOM      5  C   LIG d   1      -1.431  80.731 114.836  0.00  0.00    -0.047 C 
ATOM      6  C   LIG d   1      -0.965  81.672 113.701  0.00  0.00     0.091 C 
ENDROOT
BRANCH   1   7
ATOM      7  O   LIG d   1      -0.434  81.714 111.310  0.00  0.00    -0.368 OA
BRANCH   7   8
ATOM      8  C   LIG d   1       0.855  81.927 110.684  0.00  0.00     0.119 C 
BRANCH   8   9
ATOM      9  C   LIG d   1       0.870  83.366 110.133  0.00  0.00     0.028 C 
ATOM     10  C   LIG d   1      -0.190  84.260 110.797  0.00  0.00     0.006 C 
ENDBRANCH   8   9
BRANCH   8  11
ATOM     11  C   LIG d   1       1.038  81.023 109.461  0.00  0.00     0.028 C 
ATOM     12  C   LIG d   1       2.316  80.173 109.534  0.00  0.00     0.006 C 
ENDBRANCH   8  11
ENDBRANCH   7   8
ENDBRANCH   1   7
BRANCH   6  13
ATOM     13  N   LIG d   1       0.113  82.597 114.139  0.00  0.00    -0.311 N 
ATOM     14  C   LIG d   1      -0.065  83.907 114.300  0.00  0.00     0.210 C 
ATOM     15  C   LIG d   1       1.183  84.680 114.738  0.00  0.00     0.109 C 
ATOM     16  O   LIG d   1      -1.146  84.497 114.154  0.00  0.00    -0.276 OA
ATOM     17  H   LIG d   1       1.015  82.197 114.310  0.00  0.00     0.149 HD
ENDBRANCH   6  13
BRANCH   5  18
ATOM     18  N   LIG d   1      -2.050  81.449 115.965  0.00  0.00     0.381 N 
ATOM     19  H   LIG d   1      -1.609  81.179 116.822  0.00  0.00    -0.090 HD
ATOM     20  H   LIG d   1      -3.021  81.197 116.018  0.00  0.00    -0.090 HD
ATOM     21  H   LIG d   1      -1.961  82.433 115.834  0.00  0.00    -0.090 HD
ENDBRANCH   5  18
BRANCH   3  22
ATOM     22  C   LIG d   1      -2.538  77.828 112.869  0.00  0.00     0.382 C 
ATOM     23  O   LIG d   1      -2.038  76.841 113.460  0.00  0.00    -0.241 OA
ATOM     24  O   LIG d   1      -3.440  77.649 112.029  0.00  0.00    -0.241 OA
ENDBRANCH   3  22
TORSDOF 7
ENDMDL
MODEL 6
REMARK VINA RESULT:      -4.5      3.603      5.461
REMARK  7 active torsions:
REMARK  status: ('A' for Active; 'I' for Inactive)
REMARK    1  A    between atoms: C_2  and  C_3 
REMARK    2  A    between atoms: C_3  and  O_6 
REMARK    3  A    between atoms: C_3  and  C_4 
REMARK    4  A    between atoms: C_7  and  O_6 
REMARK    5  A    between atoms: C_9  and  C_10 
REMARK    6  A    between atoms: N_15  and  C_14 
REMARK    7  A    between atoms: N_20  and  C_19 
REMARK       I    between atoms: C_22  and  N_20 
ROOT
ATOM      1  C   LIG d   1      -0.548  80.265 115.103  0.00  0.00     0.161 C 
ATOM      2  C   LIG d   1      -0.670  81.497 114.439  0.00  0.00     0.016 C 
ATOM      3  C   LIG d   1      -1.322  81.649 113.194  0.00  0.00     0.038 C 
ATOM      4  C   LIG d   1      -2.033  80.598 112.596  0.00  0.00     0.028 C 
ATOM      5  C   LIG d   1      -1.511  79.218 112.980  0.00  0.00    -0.047 C 
ATOM      6  C   LIG d   1      -1.414  79.128 114.520  0.00  0.00     0.091 C 
ENDROOT
BRANCH   1   7
ATOM      7  O   LIG d   1      -0.826  80.437 116.507  0.00  0.00    -0.368 OA
BRANCH   7   8
ATOM      8  C   LIG d   1      -1.582  81.619 116.867  0.00  0.00     0.119 C 
BRANCH   8   9
ATOM      9  C   LIG d   1      -0.969  82.184 118.163  0.00  0.00     0.028 C 
ATOM     10  C   LIG d   1       0.412  82.820 117.931  0.00  0.00     0.006 C 
ENDBRANCH   8   9
BRANCH   8  11
ATOM     11  C   LIG d   1      -3.030  81.268 117.222  0.00  0.00     0.028 C 
ATOM     12  C   LIG d   1      -3.162  79.887 117.883  0.00  0.00     0.006 C 
ENDBRANCH   8  11
ENDBRANCH   7   8
ENDBRANCH   1   7
BRANCH   6  13
ATOM     13  N   LIG d   1      -0.832  77.840 114.978  0.00  0.00    -0.311 N 
ATOM     14  C   LIG d   1      -1.529  76.910 115.628  0.00  0.00     0.210 C 
ATOM     15  C   LIG d   1      -0.732  75.664 116.027  0.00  0.00     0.109 C 
ATOM     16  O   LIG d   1      -2.740  76.984 115.884  0.00  0.00    -0.276 OA
ATOM     17  H   LIG d   1       0.138  77.683 114.784  0.00  0.00     0.149 HD
ENDBRANCH   6  13
BRANCH   5  18
ATOM     18  N   LIG d   1      -2.426  78.217 112.399  0.00  0.00     0.381 N 
ATOM     19  H   LIG d   1      -1.936  77.358 112.247  0.00  0.00    -0.090 HD
ATOM     20  H   LIG d   1      -2.755  78.554 111.512  0.00  0.00    -0.090 HD
ATOM     21  H   LIG d   1      -3.197  78.064 113.011  0.00  0.00    -0.090 HD
ENDBRANCH   5  18
BRANCH   3  22
ATOM     22  C   LIG d   1      -1.232  82.854 112.514  0.00  0.00     0.382 C 
ATOM     23  O   LIG d   1      -1.127  82.862 111.263  0.00  0.00    -0.241 OA
ATOM     24  O   LIG d   1      -1.211  83.932 113.138  0.00  0.00    -0.241 OA
ENDBRANCH   3  22
TORSDOF 7
ENDMDL
MODEL 7
REMARK VINA RESULT:      -4.5      1.953      4.967
REMARK  7 active torsions:
REMARK  status: ('A' for Active; 'I' for Inactive)
REMARK    1  A    between atoms: C_2  and  C_3 
REMARK    2  A    between atoms: C_3  and  O_6 
REMARK    3  A    between atoms: C_3  and  C_4 
REMARK    4  A    between atoms: C_7  and  O_6 
REMARK    5  A    between atoms: C_9  and  C_10 
REMARK    6  A    between atoms: N_15  and  C_14 
REMARK    7  A    between atoms: N_20  and  C_19 
REMARK       I    between atoms: C_22  and  N_20 
ROOT
ATOM      1  C   LIG d   1       1.096  81.401 113.589  0.00  0.00     0.161 C 
ATOM      2  C   LIG d   1       2.020  81.695 112.572  0.00  0.00     0.016 C 
ATOM      3  C   LIG d   1       1.810  81.369 111.213  0.00  0.00     0.038 C 
ATOM      4  C   LIG d   1       0.587  80.857 110.753  0.00  0.00     0.028 C 
ATOM      5  C   LIG d   1      -0.181  80.077 111.815  0.00  0.00    -0.047 C 
ATOM      6  C   LIG d   1      -0.290  80.943 113.091  0.00  0.00     0.091 C 
ENDROOT
BRANCH   1   7
ATOM      7  O   LIG d   1       0.964  82.533 114.471  0.00  0.00    -0.368 OA
BRANCH   7   8
ATOM      8  C   LIG d   1       1.271  83.827 113.898  0.00  0.00     0.119 C 
BRANCH   8   9
ATOM      9  C   LIG d   1       2.061  84.625 114.953  0.00  0.00     0.028 C 
ATOM     10  C   LIG d   1       3.565  84.304 114.928  0.00  0.00     0.006 C 
ENDBRANCH   8   9
BRANCH   8  11
ATOM     11  C   LIG d   1      -0.001  84.641 113.643  0.00  0.00     0.028 C 
ATOM     12  C   LIG d   1      -0.461  84.583 112.178  0.00  0.00     0.006 C 
ENDBRANCH   8  11
ENDBRANCH   7   8
ENDBRANCH   1   7
BRANCH   6  13
ATOM     13  N   LIG d   1      -0.955  80.223 114.209  0.00  0.00    -0.311 N 
ATOM     14  C   LIG d   1      -2.269  80.252 114.421  0.00  0.00     0.210 C 
ATOM     15  C   LIG d   1      -2.745  79.457 115.641  0.00  0.00     0.109 C 
ATOM     16  O   LIG d   1      -3.090  80.833 113.695  0.00  0.00    -0.276 OA
ATOM     17  H   LIG d   1      -0.367  79.701 114.828  0.00  0.00     0.149 HD
ENDBRANCH   6  13
BRANCH   5  18
ATOM     18  N   LIG d   1      -1.493  79.720 111.244  0.00  0.00     0.381 N 
ATOM     19  H   LIG d   1      -2.022  80.550 111.065  0.00  0.00    -0.090 HD
ATOM     20  H   LIG d   1      -1.997  79.163 111.911  0.00  0.00    -0.090 HD
ATOM     21  H   LIG d   1      -1.369  79.208 110.399  0.00  0.00    -0.090 HD
ENDBRANCH   5  18
BRANCH   3  22
ATOM     22  C   LIG d   1       2.846  81.517 110.303  0.00  0.00     0.382 C 
ATOM     23  O   LIG d   1       3.449  80.506 109.870  0.00  0.00    -0.241 OA
ATOM     24  O   LIG d   1       3.213  82.651 109.943  0.00  0.00    -0.241 OA
ENDBRANCH   3  22
TORSDOF 7
ENDMDL
MODEL 8
REMARK VINA RESULT:      -4.5      2.156      5.026
REMARK  7 active torsions:
REMARK  status: ('A' for Active; 'I' for Inactive)
REMARK    1  A    between atoms: C_2  and  C_3 
REMARK    2  A    between atoms: C_3  and  O_6 
REMARK    3  A    between atoms: C_3  and  C_4 
REMARK    4  A    between atoms: C_7  and  O_6 
REMARK    5  A    between atoms: C_9  and  C_10 
REMARK    6  A    between atoms: N_15  and  C_14 
REMARK    7  A    between atoms: N_20  and  C_19 
REMARK       I    between atoms: C_22  and  N_20 
ROOT
ATOM      1  C   LIG d   1       0.172  80.738 113.605  0.00  0.00     0.161 C 
ATOM      2  C   LIG d   1       1.233  81.658 113.604  0.00  0.00     0.016 C 
ATOM      3  C   LIG d   1       1.804  82.185 112.423  0.00  0.00     0.038 C 
ATOM      4  C   LIG d   1       1.250  81.942 111.158  0.00  0.00     0.028 C 
ATOM      5  C   LIG d   1       0.493  80.620 111.073  0.00  0.00    -0.047 C 
ATOM      6  C   LIG d   1      -0.519  80.546 112.239  0.00  0.00     0.091 C 
ENDROOT
BRANCH   1   7
ATOM      7  O   LIG d   1      -0.795  81.108 114.608  0.00  0.00    -0.368 OA
BRANCH   7   8
ATOM      8  C   LIG d   1      -0.343  81.047 115.983  0.00  0.00     0.119 C 
BRANCH   8   9
ATOM      9  C   LIG d   1      -1.044  79.846 116.648  0.00  0.00     0.028 C 
ATOM     10  C   LIG d   1      -2.467  79.625 116.108  0.00  0.00     0.006 C 
ENDBRANCH   8   9
BRANCH   8  11
ATOM     11  C   LIG d   1      -0.801  82.274 116.776  0.00  0.00     0.028 C 
ATOM     12  C   LIG d   1       0.369  83.055 117.394  0.00  0.00     0.006 C 
ENDBRANCH   8  11
ENDBRANCH   7   8
ENDBRANCH   1   7
BRANCH   6  13
ATOM     13  N   LIG d   1      -1.243  79.248 112.279  0.00  0.00    -0.311 N 
ATOM     14  C   LIG d   1      -2.564  79.149 112.413  0.00  0.00     0.210 C 
ATOM     15  C   LIG d   1      -3.105  77.716 112.452  0.00  0.00     0.109 C 
ATOM     16  O   LIG d   1      -3.343  80.112 112.472  0.00  0.00    -0.276 OA
ATOM     17  H   LIG d   1      -0.691  78.416 112.207  0.00  0.00     0.149 HD
ENDBRANCH   6  13
BRANCH   5  18
ATOM     18  N   LIG d   1      -0.148  80.559 109.746  0.00  0.00     0.381 N 
ATOM     19  H   LIG d   1       0.546  80.406 109.041  0.00  0.00    -0.090 HD
ATOM     20  H   LIG d   1      -0.598  81.438 109.561  0.00  0.00    -0.090 HD
ATOM     21  H   LIG d   1      -0.820  79.823 109.726  0.00  0.00    -0.090 HD
ENDBRANCH   5  18
BRANCH   3  22
ATOM     22  C   LIG d   1       2.969  82.935 112.499  0.00  0.00     0.382 C 
ATOM     23  O   LIG d   1       3.635  83.164 111.461  0.00  0.00    -0.241 OA
ATOM     24  O   LIG d   1       3.384  83.347 113.598  0.00  0.00    -0.241 OA
ENDBRANCH   3  22
TORSDOF 7
ENDMDL
MODEL 9
REMARK VINA RESULT:      -4.4      2.344      4.832
REMARK  7 active torsions:
REMARK  status: ('A' for Active; 'I' for Inactive)
REMARK    1  A    between atoms: C_2  and  C_3 
REMARK    2  A    between atoms: C_3  and  O_6 
REMARK    3  A    between atoms: C_3  and  C_4 
REMARK    4  A    between atoms: C_7  and  O_6 
REMARK    5  A    between atoms: C_9  and  C_10 
REMARK    6  A    between atoms: N_15  and  C_14 
REMARK    7  A    between atoms: N_20  and  C_19 
REMARK       I    between atoms: C_22  and  N_20 
ROOT
ATOM      1  C   LIG d   1       1.777  82.166 113.393  0.00  0.00     0.161 C 
ATOM      2  C   LIG d   1       2.872  82.020 112.526  0.00  0.00     0.016 C 
ATOM      3  C   LIG d   1       2.777  82.151 111.122  0.00  0.00     0.038 C 
ATOM      4  C   LIG d   1       1.600  82.590 110.496  0.00  0.00     0.028 C 
ATOM      5  C   LIG d   1       0.336  82.260 111.284  0.00  0.00    -0.047 C 
ATOM      6  C   LIG d   1       0.509  82.754 112.739  0.00  0.00     0.091 C 
ENDROOT
BRANCH   1   7
ATOM      7  O   LIG d   1       2.161  82.953 114.537  0.00  0.00    -0.368 OA
BRANCH   7   8
ATOM      8  C   LIG d   1       1.934  82.346 115.833  0.00  0.00     0.119 C 
BRANCH   8   9
ATOM      9  C   LIG d   1       1.252  83.401 116.726  0.00  0.00     0.028 C 
ATOM     10  C   LIG d   1       0.200  82.785 117.663  0.00  0.00     0.006 C 
ENDBRANCH   8   9
BRANCH   8  11
ATOM     11  C   LIG d   1       3.256  82.017 116.533  0.00  0.00     0.028 C 
ATOM     12  C   LIG d   1       4.388  82.986 116.156  0.00  0.00     0.006 C 
ENDBRANCH   8  11
ENDBRANCH   7   8
ENDBRANCH   1   7
BRANCH   6  13
ATOM     13  N   LIG d   1      -0.649  82.397 113.600  0.00  0.00    -0.311 N 
ATOM     14  C   LIG d   1      -1.434  83.300 114.185  0.00  0.00     0.210 C 
ATOM     15  C   LIG d   1      -2.558  82.717 115.047  0.00  0.00     0.109 C 
ATOM     16  O   LIG d   1      -1.325  84.527 114.047  0.00  0.00    -0.276 OA
ATOM     17  H   LIG d   1      -0.828  81.422 113.740  0.00  0.00     0.149 HD
ENDBRANCH   6  13
BRANCH   5  18
ATOM     18  N   LIG d   1      -0.800  82.894 110.589  0.00  0.00     0.381 N 
ATOM     19  H   LIG d   1      -0.558  83.828 110.326  0.00  0.00    -0.090 HD
ATOM     20  H   LIG d   1      -1.583  82.937 111.218  0.00  0.00    -0.090 HD
ATOM     21  H   LIG d   1      -1.043  82.365 109.780  0.00  0.00    -0.090 HD
ENDBRANCH   5  18
BRANCH   3  22
ATOM     22  C   LIG d   1       3.856  81.803 110.324  0.00  0.00     0.382 C 
ATOM     23  O   LIG d   1       3.896  80.672 109.781  0.00  0.00    -0.241 OA
ATOM     24  O   LIG d   1       4.811  82.588 110.176  0.00  0.00    -0.241 OA
ENDBRANCH   3  22
TORSDOF 7
ENDMDL
