MODEL 1
REMARK VINA RESULT:      -5.3      0.000      0.000
REMARK  7 active torsions:
REMARK  status: ('A' for Active; 'I' for Inactive)
REMARK    1  A    between atoms: C_2  and  C_3 
REMARK    2  A    between atoms: C_3  and  O_6 
REMARK    3  A    between atoms: C_3  and  C_4 
REMARK    4  A    between atoms: C_7  and  O_6 
REMARK    5  A    between atoms: C_9  and  C_10 
REMARK    6  A    between atoms: N_15  and  C_14 
REMARK    7  A    between atoms: N_20  and  C_19 
REMARK       I    between atoms: C_22  and  N_20 
ROOT
ATOM      1  C   LIG d   1       1.702  81.239 112.503  0.00  0.00     0.161 C 
ATOM      2  C   LIG d   1       2.849  81.525 111.743  0.00  0.00     0.016 C 
ATOM      3  C   LIG d   1       2.929  81.315 110.347  0.00  0.00     0.038 C 
ATOM      4  C   LIG d   1       1.809  80.944 109.588  0.00  0.00     0.028 C 
ATOM      5  C   LIG d   1       0.771  80.160 110.383  0.00  0.00    -0.047 C 
ATOM      6  C   LIG d   1       0.435  80.938 111.675  0.00  0.00     0.091 C 
ENDROOT
BRANCH   1   7
ATOM      7  O   LIG d   1       1.451  82.312 113.432  0.00  0.00    -0.368 OA
BRANCH   7   8
ATOM      8  C   LIG d   1       2.124  83.565 113.154  0.00  0.00     0.119 C 
BRANCH   8   9
ATOM      9  C   LIG d   1       2.634  84.124 114.497  0.00  0.00     0.028 C 
ATOM     10  C   LIG d   1       2.855  83.021 115.546  0.00  0.00     0.006 C 
ENDBRANCH   8   9
BRANCH   8  11
ATOM     11  C   LIG d   1       1.146  84.617 112.622  0.00  0.00     0.028 C 
ATOM     12  C   LIG d   1       0.842  84.445 111.126  0.00  0.00     0.006 C 
ENDBRANCH   8  11
ENDBRANCH   7   8
ENDBRANCH   1   7
BRANCH   6  13
ATOM     13  N   LIG d   1      -0.511  80.200 112.552  0.00  0.00    -0.311 N 
ATOM     14  C   LIG d   1      -1.746  80.623 112.818  0.00  0.00     0.210 C 
ATOM     15  C   LIG d   1      -2.548  79.722 113.762  0.00  0.00     0.109 C 
ATOM     16  O   LIG d   1      -2.264  81.641 112.335  0.00  0.00    -0.276 OA
ATOM     17  H   LIG d   1      -0.183  79.347 112.961  0.00  0.00     0.149 HD
ENDBRANCH   6  13
BRANCH   5  18
ATOM     18  N   LIG d   1      -0.401  79.958 109.509  0.00  0.00     0.381 N 
ATOM     19  H   LIG d   1      -1.133  79.511 110.023  0.00  0.00    -0.090 HD
ATOM     20  H   LIG d   1      -0.138  79.359 108.747  0.00  0.00    -0.090 HD
ATOM     21  H   LIG d   1      -0.719  80.834 109.158  0.00  0.00    -0.090 HD
ENDBRANCH   5  18
BRANCH   3  22
ATOM     22  C   LIG d   1       4.150  81.438 109.703  0.00  0.00     0.382 C 
ATOM     23  O   LIG d   1       4.821  80.414 109.430  0.00  0.00    -0.241 OA
ATOM     24  O   LIG d   1       4.610  82.563 109.430  0.00  0.00    -0.241 OA
ENDBRANCH   3  22
TORSDOF 7
ENDMDL
MODEL 2
REMARK VINA RESULT:      -5.1      1.553      4.925
REMARK  7 active torsions:
REMARK  status: ('A' for Active; 'I' for Inactive)
REMARK    1  A    between atoms: C_2  and  C_3 
REMARK    2  A    between atoms: C_3  and  O_6 
REMARK    3  A    between atoms: C_3  and  C_4 
REMARK    4  A    between atoms: C_7  and  O_6 
REMARK    5  A    between atoms: C_9  and  C_10 
REMARK    6  A    between atoms: N_15  and  C_14 
REMARK    7  A    between atoms: N_20  and  C_19 
REMARK       I    between atoms: C_22  and  N_20 
ROOT
ATOM      1  C   LIG d   1       0.558  81.881 111.727  0.00  0.00     0.161 C 
ATOM      2  C   LIG d   1      -0.721  81.622 112.246  0.00  0.00     0.016 C 
ATOM      3  C   LIG d   1      -1.424  80.416 112.021  0.00  0.00     0.038 C 
ATOM      4  C   LIG d   1      -0.828  79.319 111.382  0.00  0.00     0.028 C 
ATOM      5  C   LIG d   1       0.274  79.713 110.403  0.00  0.00    -0.047 C 
ATOM      6  C   LIG d   1       1.270  80.653 111.121  0.00  0.00     0.091 C 
ENDROOT
BRANCH   1   7
ATOM      7  O   LIG d   1       1.383  82.488 112.741  0.00  0.00    -0.368 OA
BRANCH   7   8
ATOM      8  C   LIG d   1       1.393  83.937 112.771  0.00  0.00     0.119 C 
BRANCH   8   9
ATOM      9  C   LIG d   1       1.792  84.427 111.365  0.00  0.00     0.028 C 
ATOM     10  C   LIG d   1       3.304  84.680 111.240  0.00  0.00     0.006 C 
ENDBRANCH   8   9
BRANCH   8  11
ATOM     11  C   LIG d   1       2.480  84.467 113.710  0.00  0.00     0.028 C 
ATOM     12  C   LIG d   1       2.883  83.451 114.790  0.00  0.00     0.006 C 
ENDBRANCH   8  11
ENDBRANCH   7   8
ENDBRANCH   1   7
BRANCH   6  13
ATOM     13  N   LIG d   1       2.333  81.153 110.211  0.00  0.00    -0.311 N 
ATOM     14  C   LIG d   1       3.632  81.089 110.497  0.00  0.00     0.210 C 
ATOM     15  C   LIG d   1       4.559  81.680 109.430  0.00  0.00     0.109 C 
ATOM     16  O   LIG d   1       4.107  80.570 111.519  0.00  0.00    -0.276 OA
ATOM     17  H   LIG d   1       2.038  81.562 109.346  0.00  0.00     0.149 HD
ENDBRANCH   6  13
BRANCH   5  18
ATOM     18  N   LIG d   1       0.901  78.471 109.914  0.00  0.00     0.381 N 
ATOM     19  H   LIG d   1       0.915  77.788 110.645  0.00  0.00    -0.090 HD
ATOM     20  H   LIG d   1       1.850  78.668 109.648  0.00  0.00    -0.090 HD
ATOM     21  H   LIG d   1       0.395  78.119 109.131  0.00  0.00    -0.090 HD
ENDBRANCH   5  18
BRANCH   3  22
ATOM     22  C   LIG d   1      -2.753  80.314 112.402  0.00  0.00     0.382 C 
ATOM     23  O   LIG d   1      -3.285  79.184 112.524  0.00  0.00    -0.241 OA
ATOM     24  O   LIG d   1      -3.440  81.338 112.582  0.00  0.00    -0.241 OA
ENDBRANCH   3  22
TORSDOF 7
ENDMDL
MODEL 3
REMARK VINA RESULT:      -4.3      5.101      7.809
REMARK  7 active torsions:
REMARK  status: ('A' for Active; 'I' for Inactive)
REMARK    1  A    between atoms: C_2  and  C_3 
REMARK    2  A    between atoms: C_3  and  O_6 
REMARK    3  A    between atoms: C_3  and  C_4 
REMARK    4  A    between atoms: C_7  and  O_6 
REMARK    5  A    between atoms: C_9  and  C_10 
REMARK    6  A    between atoms: N_15  and  C_14 
REMARK    7  A    between atoms: N_20  and  C_19 
REMARK       I    between atoms: C_22  and  N_20 
ROOT
ATOM      1  C   LIG d   1      -2.638  77.318 115.322  0.00  0.00     0.161 C 
ATOM      2  C   LIG d   1      -2.725  77.454 113.927  0.00  0.00     0.016 C 
ATOM      3  C   LIG d   1      -2.002  78.421 113.193  0.00  0.00     0.038 C 
ATOM      4  C   LIG d   1      -1.020  79.225 113.791  0.00  0.00     0.028 C 
ATOM      5  C   LIG d   1      -1.261  79.469 115.277  0.00  0.00    -0.047 C 
ATOM      6  C   LIG d   1      -1.489  78.111 115.979  0.00  0.00     0.091 C 
ENDROOT
BRANCH   1   7
ATOM      7  O   LIG d   1      -2.547  75.922 115.672  0.00  0.00    -0.368 OA
BRANCH   7   8
ATOM      8  C   LIG d   1      -1.209  75.393 115.840  0.00  0.00     0.119 C 
BRANCH   8   9
ATOM      9  C   LIG d   1      -1.007  74.297 114.776  0.00  0.00     0.028 C 
ATOM     10  C   LIG d   1       0.258  74.524 113.932  0.00  0.00     0.006 C 
ENDBRANCH   8   9
BRANCH   8  11
ATOM     11  C   LIG d   1      -1.056  74.683 117.188  0.00  0.00     0.028 C 
ATOM     12  C   LIG d   1      -2.372  74.615 117.979  0.00  0.00     0.006 C 
ENDBRANCH   8  11
ENDBRANCH   7   8
ENDBRANCH   1   7
BRANCH   6  13
ATOM     13  N   LIG d   1      -1.816  78.265 117.420  0.00  0.00    -0.311 N 
ATOM     14  C   LIG d   1      -0.908  78.177 118.391  0.00  0.00     0.210 C 
ATOM     15  C   LIG d   1      -1.460  78.347 119.810  0.00  0.00     0.109 C 
ATOM     16  O   LIG d   1       0.307  78.005 118.210  0.00  0.00    -0.276 OA
ATOM     17  H   LIG d   1      -2.773  78.438 117.655  0.00  0.00     0.149 HD
ENDBRANCH   6  13
BRANCH   5  18
ATOM     18  N   LIG d   1      -0.094  80.203 115.803  0.00  0.00     0.381 N 
ATOM     19  H   LIG d   1       0.167  79.830 116.694  0.00  0.00    -0.090 HD
ATOM     20  H   LIG d   1      -0.346  81.168 115.927  0.00  0.00    -0.090 HD
ATOM     21  H   LIG d   1       0.670  80.130 115.167  0.00  0.00    -0.090 HD
ENDBRANCH   5  18
BRANCH   3  22
ATOM     22  C   LIG d   1      -2.286  78.620 111.850  0.00  0.00     0.382 C 
ATOM     23  O   LIG d   1      -3.199  77.959 111.298  0.00  0.00    -0.241 OA
ATOM     24  O   LIG d   1      -1.612  79.419 111.173  0.00  0.00    -0.241 OA
ENDBRANCH   3  22
TORSDOF 7
ENDMDL
MODEL 4
REMARK VINA RESULT:      -4.2      1.775      2.965
REMARK  7 active torsions:
REMARK  status: ('A' for Active; 'I' for Inactive)
REMARK    1  A    between atoms: C_2  and  C_3 
REMARK    2  A    between atoms: C_3  and  O_6 
REMARK    3  A    between atoms: C_3  and  C_4 
REMARK    4  A    between atoms: C_7  and  O_6 
REMARK    5  A    between atoms: C_9  and  C_10 
REMARK    6  A    between atoms: N_15  and  C_14 
REMARK    7  A    between atoms: N_20  and  C_19 
REMARK       I    between atoms: C_22  and  N_20 
ROOT
ATOM      1  C   LIG d   1       1.575  81.137 113.180  0.00  0.00     0.161 C 
ATOM      2  C   LIG d   1       2.573  81.974 112.654  0.00  0.00     0.016 C 
ATOM      3  C   LIG d   1       2.600  82.400 111.306  0.00  0.00     0.038 C 
ATOM      4  C   LIG d   1       1.541  82.138 110.424  0.00  0.00     0.028 C 
ATOM      5  C   LIG d   1       0.761  80.875 110.772  0.00  0.00    -0.047 C 
ATOM      6  C   LIG d   1       0.352  80.932 112.261  0.00  0.00     0.091 C 
ENDROOT
BRANCH   1   7
ATOM      7  O   LIG d   1       1.157  81.626 114.469  0.00  0.00    -0.368 OA
BRANCH   7   8
ATOM      8  C   LIG d   1       1.657  80.901 115.619  0.00  0.00     0.119 C 
BRANCH   8   9
ATOM      9  C   LIG d   1       0.519  80.833 116.656  0.00  0.00     0.028 C 
ATOM     10  C   LIG d   1      -0.528  79.761 116.309  0.00  0.00     0.006 C 
ENDBRANCH   8   9
BRANCH   8  11
ATOM     11  C   LIG d   1       2.790  81.665 116.310  0.00  0.00     0.028 C 
ATOM     12  C   LIG d   1       3.813  80.736 116.982  0.00  0.00     0.006 C 
ENDBRANCH   8  11
ENDBRANCH   7   8
ENDBRANCH   1   7
BRANCH   6  13
ATOM     13  N   LIG d   1      -0.343  79.696 112.706  0.00  0.00    -0.311 N 
ATOM     14  C   LIG d   1      -1.668  79.559 112.705  0.00  0.00     0.210 C 
ATOM     15  C   LIG d   1      -2.179  78.210 113.222  0.00  0.00     0.109 C 
ATOM     16  O   LIG d   1      -2.467  80.414 112.295  0.00  0.00    -0.276 OA
ATOM     17  H   LIG d   1       0.231  78.940 113.025  0.00  0.00     0.149 HD
ENDBRANCH   6  13
BRANCH   5  18
ATOM     18  N   LIG d   1      -0.394  80.799 109.857  0.00  0.00     0.381 N 
ATOM     19  H   LIG d   1      -1.244  80.780 110.385  0.00  0.00    -0.090 HD
ATOM     20  H   LIG d   1      -0.334  79.947 109.328  0.00  0.00    -0.090 HD
ATOM     21  H   LIG d   1      -0.394  81.582 109.241  0.00  0.00    -0.090 HD
ENDBRANCH   5  18
BRANCH   3  22
ATOM     22  C   LIG d   1       3.716  83.062 110.817  0.00  0.00     0.382 C 
ATOM     23  O   LIG d   1       3.590  84.190 110.280  0.00  0.00    -0.241 OA
ATOM     24  O   LIG d   1       4.840  82.528 110.866  0.00  0.00    -0.241 OA
ENDBRANCH   3  22
TORSDOF 7
ENDMDL
MODEL 5
REMARK VINA RESULT:      -4.0      2.248      3.293
REMARK  7 active torsions:
REMARK  status: ('A' for Active; 'I' for Inactive)
REMARK    1  A    between atoms: C_2  and  C_3 
REMARK    2  A    between atoms: C_3  and  O_6 
REMARK    3  A    between atoms: C_3  and  C_4 
REMARK    4  A    between atoms: C_7  and  O_6 
REMARK    5  A    between atoms: C_9  and  C_10 
REMARK    6  A    between atoms: N_15  and  C_14 
REMARK    7  A    between atoms: N_20  and  C_19 
REMARK       I    between atoms: C_22  and  N_20 
ROOT
ATOM      1  C   LIG d   1       1.421  80.951 112.678  0.00  0.00     0.161 C 
ATOM      2  C   LIG d   1       1.707  81.977 111.762  0.00  0.00     0.016 C 
ATOM      3  C   LIG d   1       0.710  82.751 111.125  0.00  0.00     0.038 C 
ATOM      4  C   LIG d   1      -0.644  82.652 111.476  0.00  0.00     0.028 C 
ATOM      5  C   LIG d   1      -1.027  81.282 112.027  0.00  0.00    -0.047 C 
ATOM      6  C   LIG d   1      -0.045  80.902 113.158  0.00  0.00     0.091 C 
ENDROOT
BRANCH   1   7
ATOM      7  O   LIG d   1       2.315  81.039 113.805  0.00  0.00    -0.368 OA
BRANCH   7   8
ATOM      8  C   LIG d   1       1.856  81.841 114.921  0.00  0.00     0.119 C 
BRANCH   8   9
ATOM      9  C   LIG d   1       2.603  83.188 114.862  0.00  0.00     0.028 C 
ATOM     10  C   LIG d   1       3.662  83.321 115.968  0.00  0.00     0.006 C 
ENDBRANCH   8   9
BRANCH   8  11
ATOM     11  C   LIG d   1       2.256  81.214 116.260  0.00  0.00     0.028 C 
ATOM     12  C   LIG d   1       1.057  80.987 117.194  0.00  0.00     0.006 C 
ENDBRANCH   8  11
ENDBRANCH   7   8
ENDBRANCH   1   7
BRANCH   6  13
ATOM     13  N   LIG d   1      -0.297  79.540 113.694  0.00  0.00    -0.311 N 
ATOM     14  C   LIG d   1      -1.124  79.293 114.709  0.00  0.00     0.210 C 
ATOM     15  C   LIG d   1      -1.224  77.820 115.118  0.00  0.00     0.109 C 
ATOM     16  O   LIG d   1      -1.808  80.150 115.288  0.00  0.00    -0.276 OA
ATOM     17  H   LIG d   1       0.193  78.781 113.262  0.00  0.00     0.149 HD
ENDBRANCH   6  13
BRANCH   5  18
ATOM     18  N   LIG d   1      -2.429  81.361 112.481  0.00  0.00     0.381 N 
ATOM     19  H   LIG d   1      -2.592  82.242 112.926  0.00  0.00    -0.090 HD
ATOM     20  H   LIG d   1      -2.594  80.632 113.153  0.00  0.00    -0.090 HD
ATOM     21  H   LIG d   1      -3.045  81.254 111.705  0.00  0.00    -0.090 HD
ENDBRANCH   5  18
BRANCH   3  22
ATOM     22  C   LIG d   1       1.062  83.610 110.094  0.00  0.00     0.382 C 
ATOM     23  O   LIG d   1       0.312  84.570 109.794  0.00  0.00    -0.241 OA
ATOM     24  O   LIG d   1       2.097  83.410 109.431  0.00  0.00    -0.241 OA
ENDBRANCH   3  22
TORSDOF 7
ENDMDL
MODEL 6
REMARK VINA RESULT:      -4.0      2.034      5.056
REMARK  7 active torsions:
REMARK  status: ('A' for Active; 'I' for Inactive)
REMARK    1  A    between atoms: C_2  and  C_3 
REMARK    2  A    between atoms: C_3  and  O_6 
REMARK    3  A    between atoms: C_3  and  C_4 
REMARK    4  A    between atoms: C_7  and  O_6 
REMARK    5  A    between atoms: C_9  and  C_10 
REMARK    6  A    between atoms: N_15  and  C_14 
REMARK    7  A    between atoms: N_20  and  C_19 
REMARK       I    between atoms: C_22  and  N_20 
ROOT
ATOM      1  C   LIG d   1       0.995  81.376 113.400  0.00  0.00     0.161 C 
ATOM      2  C   LIG d   1      -0.016  80.405 113.500  0.00  0.00     0.016 C 
ATOM      3  C   LIG d   1      -0.672  79.847 112.379  0.00  0.00     0.038 C 
ATOM      4  C   LIG d   1      -0.254  80.114 111.067  0.00  0.00     0.028 C 
ATOM      5  C   LIG d   1       0.425  81.470 110.911  0.00  0.00    -0.047 C 
ATOM      6  C   LIG d   1       1.540  81.597 111.974  0.00  0.00     0.091 C 
ENDROOT
BRANCH   1   7
ATOM      7  O   LIG d   1       2.070  81.056 114.305  0.00  0.00    -0.368 OA
BRANCH   7   8
ATOM      8  C   LIG d   1       2.078  81.771 115.565  0.00  0.00     0.119 C 
BRANCH   8   9
ATOM      9  C   LIG d   1       3.000  82.994 115.398  0.00  0.00     0.028 C 
ATOM     10  C   LIG d   1       2.214  84.313 115.303  0.00  0.00     0.006 C 
ENDBRANCH   8   9
BRANCH   8  11
ATOM     11  C   LIG d   1       2.714  80.932 116.677  0.00  0.00     0.028 C 
ATOM     12  C   LIG d   1       3.138  81.775 117.890  0.00  0.00     0.006 C 
ENDBRANCH   8  11
ENDBRANCH   7   8
ENDBRANCH   1   7
BRANCH   6  13
ATOM     13  N   LIG d   1       2.200  82.929 111.947  0.00  0.00    -0.311 N 
ATOM     14  C   LIG d   1       3.421  83.132 111.455  0.00  0.00     0.210 C 
ATOM     15  C   LIG d   1       3.921  84.577 111.542  0.00  0.00     0.109 C 
ATOM     16  O   LIG d   1       4.124  82.258 110.925  0.00  0.00    -0.276 OA
ATOM     17  H   LIG d   1       1.688  83.700 112.328  0.00  0.00     0.149 HD
ENDBRANCH   6  13
BRANCH   5  18
ATOM     18  N   LIG d   1       0.932  81.559 109.529  0.00  0.00     0.381 N 
ATOM     19  H   LIG d   1       1.863  81.197 109.485  0.00  0.00    -0.090 HD
ATOM     20  H   LIG d   1       0.955  82.525 109.253  0.00  0.00    -0.090 HD
ATOM     21  H   LIG d   1       0.339  81.045 108.915  0.00  0.00    -0.090 HD
ENDBRANCH   5  18
BRANCH   3  22
ATOM     22  C   LIG d   1      -1.786  79.042 112.565  0.00  0.00     0.382 C 
ATOM     23  O   LIG d   1      -2.812  79.509 113.115  0.00  0.00    -0.241 OA
ATOM     24  O   LIG d   1      -1.762  77.843 112.230  0.00  0.00    -0.241 OA
ENDBRANCH   3  22
TORSDOF 7
ENDMDL
MODEL 7
REMARK VINA RESULT:      -3.9      5.335      7.984
REMARK  7 active torsions:
REMARK  status: ('A' for Active; 'I' for Inactive)
REMARK    1  A    between atoms: C_2  and  C_3 
REMARK    2  A    between atoms: C_3  and  O_6 
REMARK    3  A    between atoms: C_3  and  C_4 
REMARK    4  A    between atoms: C_7  and  O_6 
REMARK    5  A    between atoms: C_9  and  C_10 
REMARK    6  A    between atoms: N_15  and  C_14 
REMARK    7  A    between atoms: N_20  and  C_19 
REMARK       I    between atoms: C_22  and  N_20 
ROOT
ATOM      1  C   LIG d   1      -2.296  78.087 116.324  0.00  0.00     0.161 C 
ATOM      2  C   LIG d   1      -2.824  78.045 115.023  0.00  0.00     0.016 C 
ATOM      3  C   LIG d   1      -2.251  78.734 113.929  0.00  0.00     0.038 C 
ATOM      4  C   LIG d   1      -1.017  79.393 114.032  0.00  0.00     0.028 C 
ATOM      5  C   LIG d   1      -0.708  79.884 115.443  0.00  0.00    -0.047 C 
ATOM      6  C   LIG d   1      -0.889  78.710 116.432  0.00  0.00     0.091 C 
ENDROOT
BRANCH   1   7
ATOM      7  O   LIG d   1      -2.304  76.764 116.897  0.00  0.00    -0.368 OA
BRANCH   7   8
ATOM      8  C   LIG d   1      -1.171  75.922 116.571  0.00  0.00     0.119 C 
BRANCH   8   9
ATOM      9  C   LIG d   1      -1.699  74.735 115.742  0.00  0.00     0.028 C 
ATOM     10  C   LIG d   1      -3.114  74.308 116.165  0.00  0.00     0.006 C 
ENDBRANCH   8   9
BRANCH   8  11
ATOM     11  C   LIG d   1      -0.560  75.298 117.829  0.00  0.00     0.028 C 
ATOM     12  C   LIG d   1      -1.207  75.814 119.124  0.00  0.00     0.006 C 
ENDBRANCH   8  11
ENDBRANCH   7   8
ENDBRANCH   1   7
BRANCH   6  13
ATOM     13  N   LIG d   1      -0.688  79.125 117.845  0.00  0.00    -0.311 N 
ATOM     14  C   LIG d   1       0.491  79.077 118.463  0.00  0.00     0.210 C 
ATOM     15  C   LIG d   1       0.474  79.531 119.926  0.00  0.00     0.109 C 
ATOM     16  O   LIG d   1       1.556  78.732 117.928  0.00  0.00    -0.276 OA
ATOM     17  H   LIG d   1      -1.493  79.447 118.345  0.00  0.00     0.149 HD
ENDBRANCH   6  13
BRANCH   5  18
ATOM     18  N   LIG d   1       0.663  80.427 115.435  0.00  0.00     0.381 N 
ATOM     19  H   LIG d   1       0.631  81.427 115.430  0.00  0.00    -0.090 HD
ATOM     20  H   LIG d   1       1.129  80.122 114.599  0.00  0.00    -0.090 HD
ATOM     21  H   LIG d   1       1.161  80.108 116.237  0.00  0.00    -0.090 HD
ENDBRANCH   5  18
BRANCH   3  22
ATOM     22  C   LIG d   1      -2.934  78.801 112.725  0.00  0.00     0.382 C 
ATOM     23  O   LIG d   1      -3.052  77.774 112.013  0.00  0.00    -0.241 OA
ATOM     24  O   LIG d   1      -3.397  79.884 112.320  0.00  0.00    -0.241 OA
ENDBRANCH   3  22
TORSDOF 7
ENDMDL
MODEL 8
REMARK VINA RESULT:      -3.9      2.669      5.445
REMARK  7 active torsions:
REMARK  status: ('A' for Active; 'I' for Inactive)
REMARK    1  A    between atoms: C_2  and  C_3 
REMARK    2  A    between atoms: C_3  and  O_6 
REMARK    3  A    between atoms: C_3  and  C_4 
REMARK    4  A    between atoms: C_7  and  O_6 
REMARK    5  A    between atoms: C_9  and  C_10 
REMARK    6  A    between atoms: N_15  and  C_14 
REMARK    7  A    between atoms: N_20  and  C_19 
REMARK       I    between atoms: C_22  and  N_20 
ROOT
ATOM      1  C   LIG d   1      -0.432  80.517 113.671  0.00  0.00     0.161 C 
ATOM      2  C   LIG d   1      -1.341  79.495 113.349  0.00  0.00     0.016 C 
ATOM      3  C   LIG d   1      -1.574  79.048 112.028  0.00  0.00     0.038 C 
ATOM      4  C   LIG d   1      -0.797  79.492 110.948  0.00  0.00     0.028 C 
ATOM      5  C   LIG d   1      -0.215  80.887 111.152  0.00  0.00    -0.047 C 
ATOM      6  C   LIG d   1       0.505  80.935 112.519  0.00  0.00     0.091 C 
ENDROOT
BRANCH   1   7
ATOM      7  O   LIG d   1       0.337  80.139 114.830  0.00  0.00    -0.368 OA
BRANCH   7   8
ATOM      8  C   LIG d   1      -0.320  80.302 116.112  0.00  0.00     0.119 C 
BRANCH   8   9
ATOM      9  C   LIG d   1       0.697  80.942 117.075  0.00  0.00     0.028 C 
ATOM     10  C   LIG d   1       1.900  81.553 116.337  0.00  0.00     0.006 C 
ENDBRANCH   8   9
BRANCH   8  11
ATOM     11  C   LIG d   1      -0.671  78.947 116.734  0.00  0.00     0.028 C 
ATOM     12  C   LIG d   1       0.285  78.548 117.870  0.00  0.00     0.006 C 
ENDBRANCH   8  11
ENDBRANCH   7   8
ENDBRANCH   1   7
BRANCH   6  13
ATOM     13  N   LIG d   1       1.031  82.289 112.835  0.00  0.00    -0.311 N 
ATOM     14  C   LIG d   1       2.263  82.688 112.524  0.00  0.00     0.210 C 
ATOM     15  C   LIG d   1       2.609  84.115 112.959  0.00  0.00     0.109 C 
ATOM     16  O   LIG d   1       3.091  82.007 111.901  0.00  0.00    -0.276 OA
ATOM     17  H   LIG d   1       0.415  82.917 113.313  0.00  0.00     0.149 HD
ENDBRANCH   6  13
BRANCH   5  18
ATOM     18  N   LIG d   1       0.682  81.166 110.015  0.00  0.00     0.381 N 
ATOM     19  H   LIG d   1       1.072  82.083 110.109  0.00  0.00    -0.090 HD
ATOM     20  H   LIG d   1       0.148  81.136 109.165  0.00  0.00    -0.090 HD
ATOM     21  H   LIG d   1       1.412  80.489 109.982  0.00  0.00    -0.090 HD
ENDBRANCH   5  18
BRANCH   3  22
ATOM     22  C   LIG d   1      -2.621  78.176 111.772  0.00  0.00     0.382 C 
ATOM     23  O   LIG d   1      -3.257  77.664 112.724  0.00  0.00    -0.241 OA
ATOM     24  O   LIG d   1      -2.909  77.861 110.602  0.00  0.00    -0.241 OA
ENDBRANCH   3  22
TORSDOF 7
ENDMDL
MODEL 9
REMARK VINA RESULT:      -3.9      5.382      6.620
REMARK  7 active torsions:
REMARK  status: ('A' for Active; 'I' for Inactive)
REMARK    1  A    between atoms: C_2  and  C_3 
REMARK    2  A    between atoms: C_3  and  O_6 
REMARK    3  A    between atoms: C_3  and  C_4 
REMARK    4  A    between atoms: C_7  and  O_6 
REMARK    5  A    between atoms: C_9  and  C_10 
REMARK    6  A    between atoms: N_15  and  C_14 
REMARK    7  A    between atoms: N_20  and  C_19 
REMARK       I    between atoms: C_22  and  N_20 
ROOT
ATOM      1  C   LIG d   1      -0.879  79.255 115.939  0.00  0.00     0.161 C 
ATOM      2  C   LIG d   1      -1.534  79.841 114.843  0.00  0.00     0.016 C 
ATOM      3  C   LIG d   1      -2.195  79.094 113.841  0.00  0.00     0.038 C 
ATOM      4  C   LIG d   1      -2.377  77.707 113.949  0.00  0.00     0.028 C 
ATOM      5  C   LIG d   1      -1.299  77.017 114.779  0.00  0.00    -0.047 C 
ATOM      6  C   LIG d   1      -1.162  77.750 116.133  0.00  0.00     0.091 C 
ENDROOT
BRANCH   1   7
ATOM      7  O   LIG d   1      -1.194  79.983 117.143  0.00  0.00    -0.368 OA
BRANCH   7   8
ATOM      8  C   LIG d   1      -0.214  80.959 117.572  0.00  0.00     0.119 C 
BRANCH   8   9
ATOM      9  C   LIG d   1       0.736  80.257 118.562  0.00  0.00     0.028 C 
ATOM     10  C   LIG d   1       2.119  79.977 117.949  0.00  0.00     0.006 C 
ENDBRANCH   8   9
BRANCH   8  11
ATOM     11  C   LIG d   1      -0.867  82.091 118.371  0.00  0.00     0.028 C 
ATOM     12  C   LIG d   1      -2.272  81.728 118.877  0.00  0.00     0.006 C 
ENDBRANCH   8  11
ENDBRANCH   7   8
ENDBRANCH   1   7
BRANCH   6  13
ATOM     13  N   LIG d   1      -0.070  77.192 116.972  0.00  0.00    -0.311 N 
ATOM     14  C   LIG d   1      -0.264  76.697 118.194  0.00  0.00     0.210 C 
ATOM     15  C   LIG d   1       1.000  76.190 118.894  0.00  0.00     0.109 C 
ATOM     16  O   LIG d   1      -1.368  76.601 118.751  0.00  0.00    -0.276 OA
ATOM     17  H   LIG d   1       0.853  77.202 116.585  0.00  0.00     0.149 HD
ENDBRANCH   6  13
BRANCH   5  18
ATOM     18  N   LIG d   1      -1.686  75.601 114.924  0.00  0.00     0.381 N 
ATOM     19  H   LIG d   1      -2.634  75.540 115.239  0.00  0.00    -0.090 HD
ATOM     20  H   LIG d   1      -1.096  75.172 115.615  0.00  0.00    -0.090 HD
ATOM     21  H   LIG d   1      -1.586  75.129 114.052  0.00  0.00    -0.090 HD
ENDBRANCH   5  18
BRANCH   3  22
ATOM     22  C   LIG d   1      -2.648  79.730 112.696  0.00  0.00     0.382 C 
ATOM     23  O   LIG d   1      -2.275  79.330 111.567  0.00  0.00    -0.241 OA
ATOM     24  O   LIG d   1      -3.389  80.728 112.779  0.00  0.00    -0.241 OA
ENDBRANCH   3  22
TORSDOF 7
ENDMDL
