MODEL 1
REMARK VINA RESULT:      -4.7      0.000      0.000
REMARK  7 active torsions:
REMARK  status: ('A' for Active; 'I' for Inactive)
REMARK    1  A    between atoms: C_2  and  C_3 
REMARK    2  A    between atoms: C_3  and  O_6 
REMARK    3  A    between atoms: C_3  and  C_4 
REMARK    4  A    between atoms: C_7  and  O_6 
REMARK    5  A    between atoms: C_9  and  C_10 
REMARK    6  A    between atoms: N_15  and  C_14 
REMARK    7  A    between atoms: N_20  and  C_19 
REMARK       I    between atoms: C_22  and  N_20 
ROOT
ATOM      1  C   LIG d   1       2.054  82.120 112.756  0.00  0.00     0.161 C 
ATOM      2  C   LIG d   1       2.987  82.826 111.978  0.00  0.00     0.016 C 
ATOM      3  C   LIG d   1       2.929  82.898 110.567  0.00  0.00     0.038 C 
ATOM      4  C   LIG d   1       1.840  82.390 109.844  0.00  0.00     0.028 C 
ATOM      5  C   LIG d   1       1.134  81.233 110.543  0.00  0.00    -0.047 C 
ATOM      6  C   LIG d   1       0.797  81.653 111.992  0.00  0.00     0.091 C 
ENDROOT
BRANCH   1   7
ATOM      7  O   LIG d   1       1.680  82.907 113.904  0.00  0.00    -0.368 OA
BRANCH   7   8
ATOM      8  C   LIG d   1       2.759  83.301 114.786  0.00  0.00     0.119 C 
BRANCH   8   9
ATOM      9  C   LIG d   1       2.768  82.320 115.974  0.00  0.00     0.028 C 
ATOM     10  C   LIG d   1       4.188  81.861 116.347  0.00  0.00     0.006 C 
ENDBRANCH   8   9
BRANCH   8  11
ATOM     11  C   LIG d   1       2.501  84.680 115.401  0.00  0.00     0.028 C 
ATOM     12  C   LIG d   1       2.015  84.602 116.856  0.00  0.00     0.006 C 
ENDBRANCH   8  11
ENDBRANCH   7   8
ENDBRANCH   1   7
BRANCH   6  13
ATOM     13  N   LIG d   1       0.180  80.549 112.773  0.00  0.00    -0.311 N 
ATOM     14  C   LIG d   1      -1.131  80.318 112.806  0.00  0.00     0.210 C 
ATOM     15  C   LIG d   1      -1.558  79.142 113.689  0.00  0.00     0.109 C 
ATOM     16  O   LIG d   1      -1.978  80.956 112.162  0.00  0.00    -0.276 OA
ATOM     17  H   LIG d   1       0.798  79.963 113.300  0.00  0.00     0.149 HD
ENDBRANCH   6  13
BRANCH   5  18
ATOM     18  N   LIG d   1      -0.061  80.894 109.747  0.00  0.00     0.381 N 
ATOM     19  H   LIG d   1      -0.515  81.732 109.443  0.00  0.00    -0.090 HD
ATOM     20  H   LIG d   1      -0.701  80.379 110.326  0.00  0.00    -0.090 HD
ATOM     21  H   LIG d   1       0.200  80.344 108.958  0.00  0.00    -0.090 HD
ENDBRANCH   5  18
BRANCH   3  22
ATOM     22  C   LIG d   1       3.989  83.449 109.863  0.00  0.00     0.382 C 
ATOM     23  O   LIG d   1       4.912  82.711 109.441  0.00  0.00    -0.241 OA
ATOM     24  O   LIG d   1       4.056  84.679 109.682  0.00  0.00    -0.241 OA
ENDBRANCH   3  22
TORSDOF 7
ENDMDL
MODEL 2
REMARK VINA RESULT:      -4.2      6.096      7.410
REMARK  7 active torsions:
REMARK  status: ('A' for Active; 'I' for Inactive)
REMARK    1  A    between atoms: C_2  and  C_3 
REMARK    2  A    between atoms: C_3  and  O_6 
REMARK    3  A    between atoms: C_3  and  C_4 
REMARK    4  A    between atoms: C_7  and  O_6 
REMARK    5  A    between atoms: C_9  and  C_10 
REMARK    6  A    between atoms: N_15  and  C_14 
REMARK    7  A    between atoms: N_20  and  C_19 
REMARK       I    between atoms: C_22  and  N_20 
ROOT
ATOM      1  C   LIG d   1      -0.051  78.785 117.060  0.00  0.00     0.161 C 
ATOM      2  C   LIG d   1      -1.210  78.990 116.293  0.00  0.00     0.016 C 
ATOM      3  C   LIG d   1      -1.747  78.016 115.419  0.00  0.00     0.038 C 
ATOM      4  C   LIG d   1      -1.243  76.708 115.367  0.00  0.00     0.028 C 
ATOM      5  C   LIG d   1       0.231  76.612 115.747  0.00  0.00    -0.047 C 
ATOM      6  C   LIG d   1       0.449  77.326 117.100  0.00  0.00     0.091 C 
ENDROOT
BRANCH   1   7
ATOM      7  O   LIG d   1      -0.257  79.281 118.398  0.00  0.00    -0.368 OA
BRANCH   7   8
ATOM      8  C   LIG d   1       0.466  80.487 118.749  0.00  0.00     0.119 C 
BRANCH   8   9
ATOM      9  C   LIG d   1      -0.559  81.635 118.821  0.00  0.00     0.028 C 
ATOM     10  C   LIG d   1       0.110  83.020 118.796  0.00  0.00     0.006 C 
ENDBRANCH   8   9
BRANCH   8  11
ATOM     11  C   LIG d   1       1.449  80.888 117.646  0.00  0.00     0.028 C 
ATOM     12  C   LIG d   1       2.917  80.774 118.085  0.00  0.00     0.006 C 
ENDBRANCH   8  11
ENDBRANCH   7   8
ENDBRANCH   1   7
BRANCH   6  13
ATOM     13  N   LIG d   1       1.879  77.351 117.505  0.00  0.00    -0.311 N 
ATOM     14  C   LIG d   1       2.314  76.916 118.686  0.00  0.00     0.210 C 
ATOM     15  C   LIG d   1       3.824  77.050 118.908  0.00  0.00     0.109 C 
ATOM     16  O   LIG d   1       1.598  76.402 119.558  0.00  0.00    -0.276 OA
ATOM     17  H   LIG d   1       2.533  77.723 116.845  0.00  0.00     0.149 HD
ENDBRANCH   6  13
BRANCH   5  18
ATOM     18  N   LIG d   1       0.589  75.181 115.783  0.00  0.00     0.381 N 
ATOM     19  H   LIG d   1       0.221  74.761 116.613  0.00  0.00    -0.090 HD
ATOM     20  H   LIG d   1       1.590  75.097 115.805  0.00  0.00    -0.090 HD
ATOM     21  H   LIG d   1       0.226  74.718 114.979  0.00  0.00    -0.090 HD
ENDBRANCH   5  18
BRANCH   3  22
ATOM     22  C   LIG d   1      -2.776  78.361 114.556  0.00  0.00     0.382 C 
ATOM     23  O   LIG d   1      -3.150  79.555 114.471  0.00  0.00    -0.241 OA
ATOM     24  O   LIG d   1      -3.364  77.485 113.893  0.00  0.00    -0.241 OA
ENDBRANCH   3  22
TORSDOF 7
ENDMDL
MODEL 3
REMARK VINA RESULT:      -4.0      5.109      8.083
REMARK  7 active torsions:
REMARK  status: ('A' for Active; 'I' for Inactive)
REMARK    1  A    between atoms: C_2  and  C_3 
REMARK    2  A    between atoms: C_3  and  O_6 
REMARK    3  A    between atoms: C_3  and  C_4 
REMARK    4  A    between atoms: C_7  and  O_6 
REMARK    5  A    between atoms: C_9  and  C_10 
REMARK    6  A    between atoms: N_15  and  C_14 
REMARK    7  A    between atoms: N_20  and  C_19 
REMARK       I    between atoms: C_22  and  N_20 
ROOT
ATOM      1  C   LIG d   1      -2.219  78.001 116.762  0.00  0.00     0.161 C 
ATOM      2  C   LIG d   1      -1.944  77.163 117.856  0.00  0.00     0.016 C 
ATOM      3  C   LIG d   1      -1.083  76.044 117.781  0.00  0.00     0.038 C 
ATOM      4  C   LIG d   1      -0.316  75.774 116.638  0.00  0.00     0.028 C 
ATOM      5  C   LIG d   1      -0.943  76.296 115.350  0.00  0.00    -0.047 C 
ATOM      6  C   LIG d   1      -1.305  77.787 115.538  0.00  0.00     0.091 C 
ENDROOT
BRANCH   1   7
ATOM      7  O   LIG d   1      -2.181  79.380 117.182  0.00  0.00    -0.368 OA
BRANCH   7   8
ATOM      8  C   LIG d   1      -1.339  79.676 118.323  0.00  0.00     0.119 C 
BRANCH   8   9
ATOM      9  C   LIG d   1      -2.035  80.784 119.137  0.00  0.00     0.028 C 
ATOM     10  C   LIG d   1      -1.171  82.050 119.262  0.00  0.00     0.006 C 
ENDBRANCH   8   9
BRANCH   8  11
ATOM     11  C   LIG d   1       0.001  80.274 117.886  0.00  0.00     0.028 C 
ATOM     12  C   LIG d   1       1.178  79.304 118.078  0.00  0.00     0.006 C 
ENDBRANCH   8  11
ENDBRANCH   7   8
ENDBRANCH   1   7
BRANCH   6  13
ATOM     13  N   LIG d   1      -2.001  78.355 114.353  0.00  0.00    -0.311 N 
ATOM     14  C   LIG d   1      -1.584  79.445 113.711  0.00  0.00     0.210 C 
ATOM     15  C   LIG d   1      -2.457  79.872 112.527  0.00  0.00     0.109 C 
ATOM     16  O   LIG d   1      -0.555  80.079 113.989  0.00  0.00    -0.276 OA
ATOM     17  H   LIG d   1      -2.827  77.884 114.040  0.00  0.00     0.149 HD
ENDBRANCH   6  13
BRANCH   5  18
ATOM     18  N   LIG d   1       0.024  76.069 114.259  0.00  0.00     0.381 N 
ATOM     19  H   LIG d   1       0.694  75.381 114.539  0.00  0.00    -0.090 HD
ATOM     20  H   LIG d   1       0.512  76.927 114.074  0.00  0.00    -0.090 HD
ATOM     21  H   LIG d   1      -0.453  75.765 113.439  0.00  0.00    -0.090 HD
ENDBRANCH   5  18
BRANCH   3  22
ATOM     22  C   LIG d   1      -1.014  75.158 118.845  0.00  0.00     0.382 C 
ATOM     23  O   LIG d   1      -1.898  74.279 118.988  0.00  0.00    -0.241 OA
ATOM     24  O   LIG d   1      -0.104  75.255 119.690  0.00  0.00    -0.241 OA
ENDBRANCH   3  22
TORSDOF 7
ENDMDL
MODEL 4
REMARK VINA RESULT:      -3.9      5.428      7.368
REMARK  7 active torsions:
REMARK  status: ('A' for Active; 'I' for Inactive)
REMARK    1  A    between atoms: C_2  and  C_3 
REMARK    2  A    between atoms: C_3  and  O_6 
REMARK    3  A    between atoms: C_3  and  C_4 
REMARK    4  A    between atoms: C_7  and  O_6 
REMARK    5  A    between atoms: C_9  and  C_10 
REMARK    6  A    between atoms: N_15  and  C_14 
REMARK    7  A    between atoms: N_20  and  C_19 
REMARK       I    between atoms: C_22  and  N_20 
ROOT
ATOM      1  C   LIG d   1      -0.505  78.174 116.931  0.00  0.00     0.161 C 
ATOM      2  C   LIG d   1      -0.793  79.088 115.904  0.00  0.00     0.016 C 
ATOM      3  C   LIG d   1      -1.873  78.933 115.005  0.00  0.00     0.038 C 
ATOM      4  C   LIG d   1      -2.834  77.924 115.167  0.00  0.00     0.028 C 
ATOM      5  C   LIG d   1      -2.300  76.688 115.882  0.00  0.00    -0.047 C 
ATOM      6  C   LIG d   1      -1.607  77.126 117.193  0.00  0.00     0.091 C 
ENDROOT
BRANCH   1   7
ATOM      7  O   LIG d   1      -0.191  78.885 118.144  0.00  0.00    -0.368 OA
BRANCH   7   8
ATOM      8  C   LIG d   1      -0.834  80.172 118.313  0.00  0.00     0.119 C 
BRANCH   8   9
ATOM      9  C   LIG d   1       0.152  81.086 119.067  0.00  0.00     0.028 C 
ATOM     10  C   LIG d   1       0.240  82.491 118.447  0.00  0.00     0.006 C 
ENDBRANCH   8   9
BRANCH   8  11
ATOM     11  C   LIG d   1      -2.063  80.066 119.221  0.00  0.00     0.028 C 
ATOM     12  C   LIG d   1      -3.385  80.086 118.437  0.00  0.00     0.006 C 
ENDBRANCH   8  11
ENDBRANCH   7   8
ENDBRANCH   1   7
BRANCH   6  13
ATOM     13  N   LIG d   1      -0.982  75.986 117.913  0.00  0.00    -0.311 N 
ATOM     14  C   LIG d   1      -1.595  75.306 118.880  0.00  0.00     0.210 C 
ATOM     15  C   LIG d   1      -0.765  74.180 119.505  0.00  0.00     0.109 C 
ATOM     16  O   LIG d   1      -2.759  75.507 119.258  0.00  0.00    -0.276 OA
ATOM     17  H   LIG d   1      -0.050  75.735 117.648  0.00  0.00     0.149 HD
ENDBRANCH   6  13
BRANCH   5  18
ATOM     18  N   LIG d   1      -3.437  75.776 116.106  0.00  0.00     0.381 N 
ATOM     19  H   LIG d   1      -4.286  76.214 115.810  0.00  0.00    -0.090 HD
ATOM     20  H   LIG d   1      -3.509  75.581 117.090  0.00  0.00    -0.090 HD
ATOM     21  H   LIG d   1      -3.299  74.928 115.602  0.00  0.00    -0.090 HD
ENDBRANCH   5  18
BRANCH   3  22
ATOM     22  C   LIG d   1      -1.977  79.770 113.904  0.00  0.00     0.382 C 
ATOM     23  O   LIG d   1      -3.103  80.026 113.415  0.00  0.00    -0.241 OA
ATOM     24  O   LIG d   1      -0.954  80.237 113.367  0.00  0.00    -0.241 OA
ENDBRANCH   3  22
TORSDOF 7
ENDMDL
MODEL 5
REMARK VINA RESULT:      -3.7      6.030      7.666
REMARK  7 active torsions:
REMARK  status: ('A' for Active; 'I' for Inactive)
REMARK    1  A    between atoms: C_2  and  C_3 
REMARK    2  A    between atoms: C_3  and  O_6 
REMARK    3  A    between atoms: C_3  and  C_4 
REMARK    4  A    between atoms: C_7  and  O_6 
REMARK    5  A    between atoms: C_9  and  C_10 
REMARK    6  A    between atoms: N_15  and  C_14 
REMARK    7  A    between atoms: N_20  and  C_19 
REMARK       I    between atoms: C_22  and  N_20 
ROOT
ATOM      1  C   LIG d   1       0.126  77.189 117.964  0.00  0.00     0.161 C 
ATOM      2  C   LIG d   1       0.186  76.016 117.194  0.00  0.00     0.016 C 
ATOM      3  C   LIG d   1      -0.154  75.967 115.823  0.00  0.00     0.038 C 
ATOM      4  C   LIG d   1      -0.435  77.127 115.087  0.00  0.00     0.028 C 
ATOM      5  C   LIG d   1      -0.999  78.262 115.936  0.00  0.00    -0.047 C 
ATOM      6  C   LIG d   1      -0.072  78.486 117.152  0.00  0.00     0.091 C 
ENDROOT
BRANCH   1   7
ATOM      7  O   LIG d   1       1.301  77.290 118.793  0.00  0.00    -0.368 OA
BRANCH   7   8
ATOM      8  C   LIG d   1       2.461  77.904 118.180  0.00  0.00     0.119 C 
BRANCH   8   9
ATOM      9  C   LIG d   1       3.522  76.802 117.992  0.00  0.00     0.028 C 
ATOM     10  C   LIG d   1       4.002  76.215 119.330  0.00  0.00     0.006 C 
ENDBRANCH   8   9
BRANCH   8  11
ATOM     11  C   LIG d   1       3.106  78.932 119.115  0.00  0.00     0.028 C 
ATOM     12  C   LIG d   1       3.703  80.131 118.360  0.00  0.00     0.006 C 
ENDBRANCH   8  11
ENDBRANCH   7   8
ENDBRANCH   1   7
BRANCH   6  13
ATOM     13  N   LIG d   1      -0.595  79.522 118.080  0.00  0.00    -0.311 N 
ATOM     14  C   LIG d   1      -0.155  80.779 118.099  0.00  0.00     0.210 C 
ATOM     15  C   LIG d   1      -0.815  81.680 119.147  0.00  0.00     0.109 C 
ATOM     16  O   LIG d   1       0.697  81.242 117.325  0.00  0.00    -0.276 OA
ATOM     17  H   LIG d   1      -1.310  79.241 118.722  0.00  0.00     0.149 HD
ENDBRANCH   6  13
BRANCH   5  18
ATOM     18  N   LIG d   1      -1.116  79.451 115.071  0.00  0.00     0.381 N 
ATOM     19  H   LIG d   1      -2.069  79.577 114.796  0.00  0.00    -0.090 HD
ATOM     20  H   LIG d   1      -0.565  79.305 114.243  0.00  0.00    -0.090 HD
ATOM     21  H   LIG d   1      -0.792  80.258 115.556  0.00  0.00    -0.090 HD
ENDBRANCH   5  18
BRANCH   3  22
ATOM     22  C   LIG d   1      -0.255  74.741 115.183  0.00  0.00     0.382 C 
ATOM     23  O   LIG d   1       0.766  74.209 114.683  0.00  0.00    -0.241 OA
ATOM     24  O   LIG d   1      -1.361  74.181 115.060  0.00  0.00    -0.241 OA
ENDBRANCH   3  22
TORSDOF 7
ENDMDL
MODEL 6
REMARK VINA RESULT:      -3.7      5.580      7.456
REMARK  7 active torsions:
REMARK  status: ('A' for Active; 'I' for Inactive)
REMARK    1  A    between atoms: C_2  and  C_3 
REMARK    2  A    between atoms: C_3  and  O_6 
REMARK    3  A    between atoms: C_3  and  C_4 
REMARK    4  A    between atoms: C_7  and  O_6 
REMARK    5  A    between atoms: C_9  and  C_10 
REMARK    6  A    between atoms: N_15  and  C_14 
REMARK    7  A    between atoms: N_20  and  C_19 
REMARK       I    between atoms: C_22  and  N_20 
ROOT
ATOM      1  C   LIG d   1      -0.887  78.285 117.107  0.00  0.00     0.161 C 
ATOM      2  C   LIG d   1      -1.111  79.147 116.020  0.00  0.00     0.016 C 
ATOM      3  C   LIG d   1      -2.028  78.867 114.981  0.00  0.00     0.038 C 
ATOM      4  C   LIG d   1      -2.901  77.770 115.038  0.00  0.00     0.028 C 
ATOM      5  C   LIG d   1      -2.359  76.608 115.862  0.00  0.00    -0.047 C 
ATOM      6  C   LIG d   1      -1.910  77.138 117.243  0.00  0.00     0.091 C 
ENDROOT
BRANCH   1   7
ATOM      7  O   LIG d   1      -0.823  79.047 118.329  0.00  0.00    -0.368 OA
BRANCH   7   8
ATOM      8  C   LIG d   1       0.469  79.095 118.982  0.00  0.00     0.119 C 
BRANCH   8   9
ATOM      9  C   LIG d   1       0.959  80.555 118.932  0.00  0.00     0.028 C 
ATOM     10  C   LIG d   1      -0.186  81.550 118.683  0.00  0.00     0.006 C 
ENDBRANCH   8   9
BRANCH   8  11
ATOM     11  C   LIG d   1       1.516  78.289 118.208  0.00  0.00     0.028 C 
ATOM     12  C   LIG d   1       2.092  77.121 119.024  0.00  0.00     0.006 C 
ENDBRANCH   8  11
ENDBRANCH   7   8
ENDBRANCH   1   7
BRANCH   6  13
ATOM     13  N   LIG d   1      -1.290  76.080 118.082  0.00  0.00    -0.311 N 
ATOM     14  C   LIG d   1      -1.971  75.350 118.964  0.00  0.00     0.210 C 
ATOM     15  C   LIG d   1      -1.135  74.327 119.739  0.00  0.00     0.109 C 
ATOM     16  O   LIG d   1      -3.194  75.430 119.154  0.00  0.00    -0.276 OA
ATOM     17  H   LIG d   1      -0.307  75.926 117.970  0.00  0.00     0.149 HD
ENDBRANCH   6  13
BRANCH   5  18
ATOM     18  N   LIG d   1      -3.424  75.591 115.952  0.00  0.00     0.381 N 
ATOM     19  H   LIG d   1      -4.064  75.834 116.682  0.00  0.00    -0.090 HD
ATOM     20  H   LIG d   1      -3.009  74.704 116.179  0.00  0.00    -0.090 HD
ATOM     21  H   LIG d   1      -3.908  75.526 115.084  0.00  0.00    -0.090 HD
ENDBRANCH   5  18
BRANCH   3  22
ATOM     22  C   LIG d   1      -2.051  79.669 113.850  0.00  0.00     0.382 C 
ATOM     23  O   LIG d   1      -0.981  80.132 113.388  0.00  0.00    -0.241 OA
ATOM     24  O   LIG d   1      -3.133  79.972 113.312  0.00  0.00    -0.241 OA
ENDBRANCH   3  22
TORSDOF 7
ENDMDL
MODEL 7
REMARK VINA RESULT:      -3.3      6.230      7.754
REMARK  7 active torsions:
REMARK  status: ('A' for Active; 'I' for Inactive)
REMARK    1  A    between atoms: C_2  and  C_3 
REMARK    2  A    between atoms: C_3  and  O_6 
REMARK    3  A    between atoms: C_3  and  C_4 
REMARK    4  A    between atoms: C_7  and  O_6 
REMARK    5  A    between atoms: C_9  and  C_10 
REMARK    6  A    between atoms: N_15  and  C_14 
REMARK    7  A    between atoms: N_20  and  C_19 
REMARK       I    between atoms: C_22  and  N_20 
ROOT
ATOM      1  C   LIG d   1      -0.051  78.538 117.602  0.00  0.00     0.161 C 
ATOM      2  C   LIG d   1      -0.809  78.855 116.462  0.00  0.00     0.016 C 
ATOM      3  C   LIG d   1      -1.401  77.881 115.626  0.00  0.00     0.038 C 
ATOM      4  C   LIG d   1      -1.402  76.519 115.960  0.00  0.00     0.028 C 
ATOM      5  C   LIG d   1      -0.220  76.108 116.832  0.00  0.00    -0.047 C 
ATOM      6  C   LIG d   1      -0.135  77.062 118.044  0.00  0.00     0.091 C 
ENDROOT
BRANCH   1   7
ATOM      7  O   LIG d   1      -0.418  79.409 118.690  0.00  0.00    -0.368 OA
BRANCH   7   8
ATOM      8  C   LIG d   1      -1.085  80.642 118.323  0.00  0.00     0.119 C 
BRANCH   8   9
ATOM      9  C   LIG d   1      -0.110  81.800 118.613  0.00  0.00     0.028 C 
ATOM     10  C   LIG d   1      -0.821  83.032 119.198  0.00  0.00     0.006 C 
ENDBRANCH   8   9
BRANCH   8  11
ATOM     11  C   LIG d   1      -2.302  80.903 119.215  0.00  0.00     0.028 C 
ATOM     12  C   LIG d   1      -3.403  79.845 119.046  0.00  0.00     0.006 C 
ENDBRANCH   8  11
ENDBRANCH   7   8
ENDBRANCH   1   7
BRANCH   6  13
ATOM     13  N   LIG d   1       1.045  76.783 118.904  0.00  0.00    -0.311 N 
ATOM     14  C   LIG d   1       2.294  76.735 118.442  0.00  0.00     0.210 C 
ATOM     15  C   LIG d   1       3.360  76.412 119.493  0.00  0.00     0.109 C 
ATOM     16  O   LIG d   1       2.623  76.961 117.268  0.00  0.00    -0.276 OA
ATOM     17  H   LIG d   1       0.873  76.618 119.876  0.00  0.00     0.149 HD
ENDBRANCH   6  13
BRANCH   5  18
ATOM     18  N   LIG d   1      -0.420  74.698 117.218  0.00  0.00     0.381 N 
ATOM     19  H   LIG d   1      -0.392  74.613 118.215  0.00  0.00    -0.090 HD
ATOM     20  H   LIG d   1       0.327  74.147 116.833  0.00  0.00    -0.090 HD
ATOM     21  H   LIG d   1      -1.296  74.371 116.874  0.00  0.00    -0.090 HD
ENDBRANCH   5  18
BRANCH   3  22
ATOM     22  C   LIG d   1      -1.967  78.264 114.420  0.00  0.00     0.382 C 
ATOM     23  O   LIG d   1      -3.015  77.705 114.014  0.00  0.00    -0.241 OA
ATOM     24  O   LIG d   1      -1.419  79.129 113.711  0.00  0.00    -0.241 OA
ENDBRANCH   3  22
TORSDOF 7
ENDMDL
MODEL 8
REMARK VINA RESULT:      -3.3      6.287      8.325
REMARK  7 active torsions:
REMARK  status: ('A' for Active; 'I' for Inactive)
REMARK    1  A    between atoms: C_2  and  C_3 
REMARK    2  A    between atoms: C_3  and  O_6 
REMARK    3  A    between atoms: C_3  and  C_4 
REMARK    4  A    between atoms: C_7  and  O_6 
REMARK    5  A    between atoms: C_9  and  C_10 
REMARK    6  A    between atoms: N_15  and  C_14 
REMARK    7  A    between atoms: N_20  and  C_19 
REMARK       I    between atoms: C_22  and  N_20 
ROOT
ATOM      1  C   LIG d   1       0.483  76.827 117.043  0.00  0.00     0.161 C 
ATOM      2  C   LIG d   1       1.855  76.630 117.271  0.00  0.00     0.016 C 
ATOM      3  C   LIG d   1       2.673  77.563 117.949  0.00  0.00     0.038 C 
ATOM      4  C   LIG d   1       2.138  78.695 118.582  0.00  0.00     0.028 C 
ATOM      5  C   LIG d   1       0.844  79.190 117.945  0.00  0.00    -0.047 C 
ATOM      6  C   LIG d   1      -0.140  78.004 117.822  0.00  0.00     0.091 C 
ENDROOT
BRANCH   1   7
ATOM      7  O   LIG d   1      -0.237  75.609 117.315  0.00  0.00    -0.368 OA
BRANCH   7   8
ATOM      8  C   LIG d   1      -0.463  74.735 116.181  0.00  0.00     0.119 C 
BRANCH   8   9
ATOM      9  C   LIG d   1      -0.331  75.588 114.905  0.00  0.00     0.028 C 
ATOM     10  C   LIG d   1       0.552  74.918 113.839  0.00  0.00     0.006 C 
ENDBRANCH   8   9
BRANCH   8  11
ATOM     11  C   LIG d   1      -1.898  74.201 116.166  0.00  0.00     0.028 C 
ATOM     12  C   LIG d   1      -2.950  75.321 116.193  0.00  0.00     0.006 C 
ENDBRANCH   8  11
ENDBRANCH   7   8
ENDBRANCH   1   7
BRANCH   6  13
ATOM     13  N   LIG d   1      -1.401  78.383 117.133  0.00  0.00    -0.311 N 
ATOM     14  C   LIG d   1      -1.434  79.039 115.974  0.00  0.00     0.210 C 
ATOM     15  C   LIG d   1      -2.839  79.348 115.446  0.00  0.00     0.109 C 
ATOM     16  O   LIG d   1      -0.434  79.366 115.317  0.00  0.00    -0.276 OA
ATOM     17  H   LIG d   1      -2.260  78.129 117.580  0.00  0.00     0.149 HD
ENDBRANCH   6  13
BRANCH   5  18
ATOM     18  N   LIG d   1       0.325  80.287 118.785  0.00  0.00     0.381 N 
ATOM     19  H   LIG d   1       0.043  79.927 119.675  0.00  0.00    -0.090 HD
ATOM     20  H   LIG d   1      -0.481  80.686 118.337  0.00  0.00    -0.090 HD
ATOM     21  H   LIG d   1       1.026  80.984 118.907  0.00  0.00    -0.090 HD
ENDBRANCH   5  18
BRANCH   3  22
ATOM     22  C   LIG d   1       4.048  77.388 117.965  0.00  0.00     0.382 C 
ATOM     23  O   LIG d   1       4.657  77.304 119.059  0.00  0.00    -0.241 OA
ATOM     24  O   LIG d   1       4.693  77.356 116.900  0.00  0.00    -0.241 OA
ENDBRANCH   3  22
TORSDOF 7
ENDMDL
MODEL 9
REMARK VINA RESULT:      -3.3      6.024      7.532
REMARK  7 active torsions:
REMARK  status: ('A' for Active; 'I' for Inactive)
REMARK    1  A    between atoms: C_2  and  C_3 
REMARK    2  A    between atoms: C_3  and  O_6 
REMARK    3  A    between atoms: C_3  and  C_4 
REMARK    4  A    between atoms: C_7  and  O_6 
REMARK    5  A    between atoms: C_9  and  C_10 
REMARK    6  A    between atoms: N_15  and  C_14 
REMARK    7  A    between atoms: N_20  and  C_19 
REMARK       I    between atoms: C_22  and  N_20 
ROOT
ATOM      1  C   LIG d   1       0.960  78.565 119.262  0.00  0.00     0.161 C 
ATOM      2  C   LIG d   1       2.213  78.022 119.597  0.00  0.00     0.016 C 
ATOM      3  C   LIG d   1       2.921  77.127 118.763  0.00  0.00     0.038 C 
ATOM      4  C   LIG d   1       2.490  76.828 117.461  0.00  0.00     0.028 C 
ATOM      5  C   LIG d   1       0.982  76.955 117.278  0.00  0.00    -0.047 C 
ATOM      6  C   LIG d   1       0.527  78.338 117.799  0.00  0.00     0.091 C 
ENDROOT
BRANCH   1   7
ATOM      7  O   LIG d   1       0.936  79.970 119.580  0.00  0.00    -0.368 OA
BRANCH   7   8
ATOM      8  C   LIG d   1       1.305  80.872 118.508  0.00  0.00     0.119 C 
BRANCH   8   9
ATOM      9  C   LIG d   1       2.716  81.407 118.817  0.00  0.00     0.028 C 
ATOM     10  C   LIG d   1       3.779  80.853 117.853  0.00  0.00     0.006 C 
ENDBRANCH   8   9
BRANCH   8  11
ATOM     11  C   LIG d   1       0.399  82.107 118.482  0.00  0.00     0.028 C 
ATOM     12  C   LIG d   1      -0.956  81.867 119.165  0.00  0.00     0.006 C 
ENDBRANCH   8  11
ENDBRANCH   7   8
ENDBRANCH   1   7
BRANCH   6  13
ATOM     13  N   LIG d   1      -0.947  78.511 117.734  0.00  0.00    -0.311 N 
ATOM     14  C   LIG d   1      -1.570  79.122 116.727  0.00  0.00     0.210 C 
ATOM     15  C   LIG d   1      -3.093  79.210 116.868  0.00  0.00     0.109 C 
ATOM     16  O   LIG d   1      -1.009  79.569 115.716  0.00  0.00    -0.276 OA
ATOM     17  H   LIG d   1      -1.483  78.150 118.498  0.00  0.00     0.149 HD
ENDBRANCH   6  13
BRANCH   5  18
ATOM     18  N   LIG d   1       0.688  76.751 115.847  0.00  0.00     0.381 N 
ATOM     19  H   LIG d   1       1.358  77.244 115.290  0.00  0.00    -0.090 HD
ATOM     20  H   LIG d   1      -0.224  77.123 115.646  0.00  0.00    -0.090 HD
ATOM     21  H   LIG d   1       0.715  75.780 115.628  0.00  0.00    -0.090 HD
ENDBRANCH   5  18
BRANCH   3  22
ATOM     22  C   LIG d   1       4.053  76.488 119.245  0.00  0.00     0.382 C 
ATOM     23  O   LIG d   1       5.192  76.929 118.959  0.00  0.00    -0.241 OA
ATOM     24  O   LIG d   1       3.951  75.450 119.926  0.00  0.00    -0.241 OA
ENDBRANCH   3  22
TORSDOF 7
ENDMDL
