MODEL 1
REMARK VINA RESULT:      -4.1      0.000      0.000
REMARK  7 active torsions:
REMARK  status: ('A' for Active; 'I' for Inactive)
REMARK    1  A    between atoms: C_2  and  C_3 
REMARK    2  A    between atoms: C_3  and  O_6 
REMARK    3  A    between atoms: C_3  and  C_4 
REMARK    4  A    between atoms: C_7  and  O_6 
REMARK    5  A    between atoms: C_9  and  C_10 
REMARK    6  A    between atoms: N_15  and  C_14 
REMARK    7  A    between atoms: N_20  and  C_19 
REMARK       I    between atoms: C_22  and  N_20 
ROOT
ATOM      1  C   LIG d   1      -1.304  77.463 116.294  0.00  0.00     0.161 C 
ATOM      2  C   LIG d   1      -1.677  78.019 115.058  0.00  0.00     0.016 C 
ATOM      3  C   LIG d   1      -2.566  77.388 114.158  0.00  0.00     0.038 C 
ATOM      4  C   LIG d   1      -3.265  76.222 114.501  0.00  0.00     0.028 C 
ATOM      5  C   LIG d   1      -2.539  75.361 115.529  0.00  0.00    -0.047 C 
ATOM      6  C   LIG d   1      -2.143  76.245 116.734  0.00  0.00     0.091 C 
ENDROOT
BRANCH   1   7
ATOM      7  O   LIG d   1      -1.326  78.481 117.314  0.00  0.00    -0.368 OA
BRANCH   7   8
ATOM      8  C   LIG d   1      -0.093  79.217 117.506  0.00  0.00     0.119 C 
BRANCH   8   9
ATOM      9  C   LIG d   1       1.029  78.187 117.743  0.00  0.00     0.028 C 
ATOM     10  C   LIG d   1       1.373  78.028 119.233  0.00  0.00     0.006 C 
ENDBRANCH   8   9
BRANCH   8  11
ATOM     11  C   LIG d   1      -0.142  80.064 118.781  0.00  0.00     0.028 C 
ATOM     12  C   LIG d   1      -1.572  80.265 119.308  0.00  0.00     0.006 C 
ENDBRANCH   8  11
ENDBRANCH   7   8
ENDBRANCH   1   7
BRANCH   6  13
ATOM     13  N   LIG d   1      -1.354  75.499 117.749  0.00  0.00    -0.311 N 
ATOM     14  C   LIG d   1      -1.610  75.545 119.055  0.00  0.00     0.210 C 
ATOM     15  C   LIG d   1      -0.663  74.718 119.929  0.00  0.00     0.109 C 
ATOM     16  O   LIG d   1      -2.551  76.167 119.570  0.00  0.00    -0.276 OA
ATOM     17  H   LIG d   1      -0.590  74.944 117.416  0.00  0.00     0.149 HD
ENDBRANCH   6  13
BRANCH   5  18
ATOM     18  N   LIG d   1      -3.439  74.252 115.898  0.00  0.00     0.381 N 
ATOM     19  H   LIG d   1      -3.318  74.024 116.864  0.00  0.00    -0.090 HD
ATOM     20  H   LIG d   1      -3.201  73.444 115.351  0.00  0.00    -0.090 HD
ATOM     21  H   LIG d   1      -4.386  74.510 115.727  0.00  0.00    -0.090 HD
ENDBRANCH   5  18
BRANCH   3  22
ATOM     22  C   LIG d   1      -2.733  77.905 112.882  0.00  0.00     0.382 C 
ATOM     23  O   LIG d   1      -3.126  79.086 112.730  0.00  0.00    -0.241 OA
ATOM     24  O   LIG d   1      -2.537  77.190 111.881  0.00  0.00    -0.241 OA
ENDBRANCH   3  22
TORSDOF 7
ENDMDL
MODEL 2
REMARK VINA RESULT:      -3.8      1.421      2.076
REMARK  7 active torsions:
REMARK  status: ('A' for Active; 'I' for Inactive)
REMARK    1  A    between atoms: C_2  and  C_3 
REMARK    2  A    between atoms: C_3  and  O_6 
REMARK    3  A    between atoms: C_3  and  C_4 
REMARK    4  A    between atoms: C_7  and  O_6 
REMARK    5  A    between atoms: C_9  and  C_10 
REMARK    6  A    between atoms: N_15  and  C_14 
REMARK    7  A    between atoms: N_20  and  C_19 
REMARK       I    between atoms: C_22  and  N_20 
ROOT
ATOM      1  C   LIG d   1      -0.621  77.819 116.945  0.00  0.00     0.161 C 
ATOM      2  C   LIG d   1      -1.294  78.529 115.936  0.00  0.00     0.016 C 
ATOM      3  C   LIG d   1      -1.876  77.910 114.806  0.00  0.00     0.038 C 
ATOM      4  C   LIG d   1      -1.956  76.515 114.683  0.00  0.00     0.028 C 
ATOM      5  C   LIG d   1      -0.848  75.777 115.426  0.00  0.00    -0.047 C 
ATOM      6  C   LIG d   1      -0.795  76.287 116.884  0.00  0.00     0.091 C 
ENDROOT
BRANCH   1   7
ATOM      7  O   LIG d   1      -1.015  78.317 118.239  0.00  0.00    -0.368 OA
BRANCH   7   8
ATOM      8  C   LIG d   1      -0.044  79.143 118.927  0.00  0.00     0.119 C 
BRANCH   8   9
ATOM      9  C   LIG d   1      -0.524  80.604 118.826  0.00  0.00     0.028 C 
ATOM     10  C   LIG d   1       0.644  81.604 118.791  0.00  0.00     0.006 C 
ENDBRANCH   8   9
BRANCH   8  11
ATOM     11  C   LIG d   1       1.314  79.112 118.220  0.00  0.00     0.028 C 
ATOM     12  C   LIG d   1       2.390  78.370 119.028  0.00  0.00     0.006 C 
ENDBRANCH   8  11
ENDBRANCH   7   8
ENDBRANCH   1   7
BRANCH   6  13
ATOM     13  N   LIG d   1       0.317  75.677 117.658  0.00  0.00    -0.311 N 
ATOM     14  C   LIG d   1       0.164  75.155 118.874  0.00  0.00     0.210 C 
ATOM     15  C   LIG d   1       1.444  74.596 119.503  0.00  0.00     0.109 C 
ATOM     16  O   LIG d   1      -0.916  75.072 119.477  0.00  0.00    -0.276 OA
ATOM     17  H   LIG d   1       1.223  75.674 117.231  0.00  0.00     0.149 HD
ENDBRANCH   6  13
BRANCH   5  18
ATOM     18  N   LIG d   1      -1.131  74.333 115.329  0.00  0.00     0.381 N 
ATOM     19  H   LIG d   1      -2.080  74.155 115.591  0.00  0.00    -0.090 HD
ATOM     20  H   LIG d   1      -0.530  73.840 115.966  0.00  0.00    -0.090 HD
ATOM     21  H   LIG d   1      -0.971  74.016 114.398  0.00  0.00    -0.090 HD
ENDBRANCH   5  18
BRANCH   3  22
ATOM     22  C   LIG d   1      -2.351  78.691 113.763  0.00  0.00     0.382 C 
ATOM     23  O   LIG d   1      -1.945  79.871 113.629  0.00  0.00    -0.241 OA
ATOM     24  O   LIG d   1      -3.213  78.246 112.982  0.00  0.00    -0.241 OA
ENDBRANCH   3  22
TORSDOF 7
ENDMDL
MODEL 3
REMARK VINA RESULT:      -3.7      4.081      6.146
REMARK  7 active torsions:
REMARK  status: ('A' for Active; 'I' for Inactive)
REMARK    1  A    between atoms: C_2  and  C_3 
REMARK    2  A    between atoms: C_3  and  O_6 
REMARK    3  A    between atoms: C_3  and  C_4 
REMARK    4  A    between atoms: C_7  and  O_6 
REMARK    5  A    between atoms: C_9  and  C_10 
REMARK    6  A    between atoms: N_15  and  C_14 
REMARK    7  A    between atoms: N_20  and  C_19 
REMARK       I    between atoms: C_22  and  N_20 
ROOT
ATOM      1  C   LIG d   1       2.642  80.078 117.342  0.00  0.00     0.161 C 
ATOM      2  C   LIG d   1       3.874  79.924 116.684  0.00  0.00     0.016 C 
ATOM      3  C   LIG d   1       4.373  78.675 116.249  0.00  0.00     0.038 C 
ATOM      4  C   LIG d   1       3.600  77.506 116.308  0.00  0.00     0.028 C 
ATOM      5  C   LIG d   1       2.558  77.525 117.421  0.00  0.00    -0.047 C 
ATOM      6  C   LIG d   1       1.735  78.830 117.316  0.00  0.00     0.091 C 
ENDROOT
BRANCH   1   7
ATOM      7  O   LIG d   1       1.941  81.218 116.808  0.00  0.00    -0.368 OA
BRANCH   7   8
ATOM      8  C   LIG d   1       2.111  82.465 117.526  0.00  0.00     0.119 C 
BRANCH   8   9
ATOM      9  C   LIG d   1       0.906  82.622 118.473  0.00  0.00     0.028 C 
ATOM     10  C   LIG d   1       0.557  84.096 118.739  0.00  0.00     0.006 C 
ENDBRANCH   8   9
BRANCH   8  11
ATOM     11  C   LIG d   1       2.042  83.667 116.579  0.00  0.00     0.028 C 
ATOM     12  C   LIG d   1       2.751  83.411 115.239  0.00  0.00     0.006 C 
ENDBRANCH   8  11
ENDBRANCH   7   8
ENDBRANCH   1   7
BRANCH   6  13
ATOM     13  N   LIG d   1       0.748  78.967 118.419  0.00  0.00    -0.311 N 
ATOM     14  C   LIG d   1      -0.545  79.212 118.219  0.00  0.00     0.210 C 
ATOM     15  C   LIG d   1      -1.385  79.337 119.494  0.00  0.00     0.109 C 
ATOM     16  O   LIG d   1      -1.083  79.305 117.105  0.00  0.00    -0.276 OA
ATOM     17  H   LIG d   1       1.094  78.875 119.354  0.00  0.00     0.149 HD
ENDBRANCH   6  13
BRANCH   5  18
ATOM     18  N   LIG d   1       1.734  76.309 117.280  0.00  0.00     0.381 N 
ATOM     19  H   LIG d   1       1.638  75.861 118.169  0.00  0.00    -0.090 HD
ATOM     20  H   LIG d   1       2.197  75.674 116.655  0.00  0.00    -0.090 HD
ATOM     21  H   LIG d   1       0.835  76.546 116.921  0.00  0.00    -0.090 HD
ENDBRANCH   5  18
BRANCH   3  22
ATOM     22  C   LIG d   1       5.676  78.581 115.783  0.00  0.00     0.382 C 
ATOM     23  O   LIG d   1       6.580  79.277 116.305  0.00  0.00    -0.241 OA
ATOM     24  O   LIG d   1       5.950  77.841 114.820  0.00  0.00    -0.241 OA
ENDBRANCH   3  22
TORSDOF 7
ENDMDL
MODEL 4
REMARK VINA RESULT:      -3.7      4.183      6.718
REMARK  7 active torsions:
REMARK  status: ('A' for Active; 'I' for Inactive)
REMARK    1  A    between atoms: C_2  and  C_3 
REMARK    2  A    between atoms: C_3  and  O_6 
REMARK    3  A    between atoms: C_3  and  C_4 
REMARK    4  A    between atoms: C_7  and  O_6 
REMARK    5  A    between atoms: C_9  and  C_10 
REMARK    6  A    between atoms: N_15  and  C_14 
REMARK    7  A    between atoms: N_20  and  C_19 
REMARK       I    between atoms: C_22  and  N_20 
ROOT
ATOM      1  C   LIG d   1       3.263  77.283 117.949  0.00  0.00     0.161 C 
ATOM      2  C   LIG d   1       2.568  76.083 118.171  0.00  0.00     0.016 C 
ATOM      3  C   LIG d   1       1.174  75.943 117.976  0.00  0.00     0.038 C 
ATOM      4  C   LIG d   1       0.400  76.960 117.399  0.00  0.00     0.028 C 
ATOM      5  C   LIG d   1       0.966  78.357 117.631  0.00  0.00    -0.047 C 
ATOM      6  C   LIG d   1       2.454  78.372 117.213  0.00  0.00     0.091 C 
ENDROOT
BRANCH   1   7
ATOM      7  O   LIG d   1       4.493  77.014 117.249  0.00  0.00    -0.368 OA
BRANCH   7   8
ATOM      8  C   LIG d   1       5.692  76.967 118.062  0.00  0.00     0.119 C 
BRANCH   8   9
ATOM      9  C   LIG d   1       5.468  77.896 119.271  0.00  0.00     0.028 C 
ATOM     10  C   LIG d   1       6.338  79.163 119.206  0.00  0.00     0.006 C 
ENDBRANCH   8   9
BRANCH   8  11
ATOM     11  C   LIG d   1       6.894  77.554 117.316  0.00  0.00     0.028 C 
ATOM     12  C   LIG d   1       6.653  77.679 115.803  0.00  0.00     0.006 C 
ENDBRANCH   8  11
ENDBRANCH   7   8
ENDBRANCH   1   7
BRANCH   6  13
ATOM     13  N   LIG d   1       3.107  79.679 117.487  0.00  0.00    -0.311 N 
ATOM     14  C   LIG d   1       3.835  80.338 116.587  0.00  0.00     0.210 C 
ATOM     15  C   LIG d   1       4.435  81.658 117.081  0.00  0.00     0.109 C 
ATOM     16  O   LIG d   1       4.014  79.970 115.416  0.00  0.00    -0.276 OA
ATOM     17  H   LIG d   1       2.987  80.066 118.403  0.00  0.00     0.149 HD
ENDBRANCH   6  13
BRANCH   5  18
ATOM     18  N   LIG d   1       0.140  79.306 116.861  0.00  0.00     0.381 N 
ATOM     19  H   LIG d   1       0.246  79.131 115.882  0.00  0.00    -0.090 HD
ATOM     20  H   LIG d   1       0.456  80.241 117.050  0.00  0.00    -0.090 HD
ATOM     21  H   LIG d   1      -0.818  79.213 117.121  0.00  0.00    -0.090 HD
ENDBRANCH   5  18
BRANCH   3  22
ATOM     22  C   LIG d   1       0.534  74.788 118.399  0.00  0.00     0.382 C 
ATOM     23  O   LIG d   1       0.886  74.231 119.467  0.00  0.00    -0.241 OA
ATOM     24  O   LIG d   1      -0.361  74.271 117.704  0.00  0.00    -0.241 OA
ENDBRANCH   3  22
TORSDOF 7
ENDMDL
MODEL 5
REMARK VINA RESULT:      -3.7      2.800      4.994
REMARK  7 active torsions:
REMARK  status: ('A' for Active; 'I' for Inactive)
REMARK    1  A    between atoms: C_2  and  C_3 
REMARK    2  A    between atoms: C_3  and  O_6 
REMARK    3  A    between atoms: C_3  and  C_4 
REMARK    4  A    between atoms: C_7  and  O_6 
REMARK    5  A    between atoms: C_9  and  C_10 
REMARK    6  A    between atoms: N_15  and  C_14 
REMARK    7  A    between atoms: N_20  and  C_19 
REMARK       I    between atoms: C_22  and  N_20 
ROOT
ATOM      1  C   LIG d   1      -2.019  78.690 115.380  0.00  0.00     0.161 C 
ATOM      2  C   LIG d   1      -2.363  77.397 115.808  0.00  0.00     0.016 C 
ATOM      3  C   LIG d   1      -2.715  76.352 114.924  0.00  0.00     0.038 C 
ATOM      4  C   LIG d   1      -2.600  76.487 113.532  0.00  0.00     0.028 C 
ATOM      5  C   LIG d   1      -2.742  77.927 113.050  0.00  0.00    -0.047 C 
ATOM      6  C   LIG d   1      -1.780  78.825 113.861  0.00  0.00     0.091 C 
ENDROOT
BRANCH   1   7
ATOM      7  O   LIG d   1      -0.869  79.157 116.112  0.00  0.00    -0.368 OA
BRANCH   7   8
ATOM      8  C   LIG d   1      -0.609  78.501 117.377  0.00  0.00     0.119 C 
BRANCH   8   9
ATOM      9  C   LIG d   1      -0.875  79.527 118.495  0.00  0.00     0.028 C 
ATOM     10  C   LIG d   1      -2.319  79.462 119.020  0.00  0.00     0.006 C 
ENDBRANCH   8   9
BRANCH   8  11
ATOM     11  C   LIG d   1       0.869  78.125 117.515  0.00  0.00     0.028 C 
ATOM     12  C   LIG d   1       1.096  76.605 117.558  0.00  0.00     0.006 C 
ENDBRANCH   8  11
ENDBRANCH   7   8
ENDBRANCH   1   7
BRANCH   6  13
ATOM     13  N   LIG d   1      -1.917  80.263 113.511  0.00  0.00    -0.311 N 
ATOM     14  C   LIG d   1      -1.317  80.822 112.462  0.00  0.00     0.210 C 
ATOM     15  C   LIG d   1      -1.574  82.323 112.293  0.00  0.00     0.109 C 
ATOM     16  O   LIG d   1      -0.622  80.211 111.636  0.00  0.00    -0.276 OA
ATOM     17  H   LIG d   1      -2.488  80.826 114.110  0.00  0.00     0.149 HD
ENDBRANCH   6  13
BRANCH   5  18
ATOM     18  N   LIG d   1      -2.464  77.942 111.602  0.00  0.00     0.381 N 
ATOM     19  H   LIG d   1      -2.017  77.088 111.334  0.00  0.00    -0.090 HD
ATOM     20  H   LIG d   1      -1.840  78.703 111.398  0.00  0.00    -0.090 HD
ATOM     21  H   LIG d   1      -3.313  78.054 111.093  0.00  0.00    -0.090 HD
ENDBRANCH   5  18
BRANCH   3  22
ATOM     22  C   LIG d   1      -3.227  75.166 115.429  0.00  0.00     0.382 C 
ATOM     23  O   LIG d   1      -3.437  75.049 116.661  0.00  0.00    -0.241 OA
ATOM     24  O   LIG d   1      -3.440  74.198 114.676  0.00  0.00    -0.241 OA
ENDBRANCH   3  22
TORSDOF 7
ENDMDL
MODEL 6
REMARK VINA RESULT:      -3.7      4.259      6.829
REMARK  7 active torsions:
REMARK  status: ('A' for Active; 'I' for Inactive)
REMARK    1  A    between atoms: C_2  and  C_3 
REMARK    2  A    between atoms: C_3  and  O_6 
REMARK    3  A    between atoms: C_3  and  C_4 
REMARK    4  A    between atoms: C_7  and  O_6 
REMARK    5  A    between atoms: C_9  and  C_10 
REMARK    6  A    between atoms: N_15  and  C_14 
REMARK    7  A    between atoms: N_20  and  C_19 
REMARK       I    between atoms: C_22  and  N_20 
ROOT
ATOM      1  C   LIG d   1       3.329  77.374 118.140  0.00  0.00     0.161 C 
ATOM      2  C   LIG d   1       2.664  76.158 118.369  0.00  0.00     0.016 C 
ATOM      3  C   LIG d   1       1.298  75.950 118.069  0.00  0.00     0.038 C 
ATOM      4  C   LIG d   1       0.538  76.903 117.375  0.00  0.00     0.028 C 
ATOM      5  C   LIG d   1       1.029  78.333 117.576  0.00  0.00    -0.047 C 
ATOM      6  C   LIG d   1       2.545  78.388 117.281  0.00  0.00     0.091 C 
ENDROOT
BRANCH   1   7
ATOM      7  O   LIG d   1       4.624  77.120 117.559  0.00  0.00    -0.368 OA
BRANCH   7   8
ATOM      8  C   LIG d   1       5.752  77.744 118.221  0.00  0.00     0.119 C 
BRANCH   8   9
ATOM      9  C   LIG d   1       6.975  77.586 117.296  0.00  0.00     0.028 C 
ATOM     10  C   LIG d   1       6.600  77.671 115.807  0.00  0.00     0.006 C 
ENDBRANCH   8   9
BRANCH   8  11
ATOM     11  C   LIG d   1       6.120  77.004 119.510  0.00  0.00     0.028 C 
ATOM     12  C   LIG d   1       6.303  75.492 119.299  0.00  0.00     0.006 C 
ENDBRANCH   8  11
ENDBRANCH   7   8
ENDBRANCH   1   7
BRANCH   6  13
ATOM     13  N   LIG d   1       3.123  79.734 117.536  0.00  0.00    -0.311 N 
ATOM     14  C   LIG d   1       3.790  80.431 116.617  0.00  0.00     0.210 C 
ATOM     15  C   LIG d   1       4.319  81.787 117.093  0.00  0.00     0.109 C 
ATOM     16  O   LIG d   1       3.966  80.068 115.444  0.00  0.00    -0.276 OA
ATOM     17  H   LIG d   1       3.000  80.117 118.452  0.00  0.00     0.149 HD
ENDBRANCH   6  13
BRANCH   5  18
ATOM     18  N   LIG d   1       0.235  79.205 116.690  0.00  0.00     0.381 N 
ATOM     19  H   LIG d   1       0.514  80.158 116.815  0.00  0.00    -0.090 HD
ATOM     20  H   LIG d   1      -0.735  79.125 116.939  0.00  0.00    -0.090 HD
ATOM     21  H   LIG d   1       0.366  78.935 115.740  0.00  0.00    -0.090 HD
ENDBRANCH   5  18
BRANCH   3  22
ATOM     22  C   LIG d   1       0.668  74.793 118.501  0.00  0.00     0.382 C 
ATOM     23  O   LIG d   1      -0.268  74.299 117.826  0.00  0.00    -0.241 OA
ATOM     24  O   LIG d   1       0.994  74.260 119.579  0.00  0.00    -0.241 OA
ENDBRANCH   3  22
TORSDOF 7
ENDMDL
MODEL 7
REMARK VINA RESULT:      -3.5      6.335      8.046
REMARK  7 active torsions:
REMARK  status: ('A' for Active; 'I' for Inactive)
REMARK    1  A    between atoms: C_2  and  C_3 
REMARK    2  A    between atoms: C_3  and  O_6 
REMARK    3  A    between atoms: C_3  and  C_4 
REMARK    4  A    between atoms: C_7  and  O_6 
REMARK    5  A    between atoms: C_9  and  C_10 
REMARK    6  A    between atoms: N_15  and  C_14 
REMARK    7  A    between atoms: N_20  and  C_19 
REMARK       I    between atoms: C_22  and  N_20 
ROOT
ATOM      1  C   LIG d   1       0.043  82.843 112.264  0.00  0.00     0.161 C 
ATOM      2  C   LIG d   1      -1.036  82.047 112.684  0.00  0.00     0.016 C 
ATOM      3  C   LIG d   1      -1.304  80.761 112.161  0.00  0.00     0.038 C 
ATOM      4  C   LIG d   1      -0.417  80.117 111.286  0.00  0.00     0.028 C 
ATOM      5  C   LIG d   1       0.417  81.082 110.450  0.00  0.00    -0.047 C 
ATOM      6  C   LIG d   1       1.084  82.112 111.390  0.00  0.00     0.091 C 
ENDROOT
BRANCH   1   7
ATOM      7  O   LIG d   1       0.682  83.443 113.408  0.00  0.00    -0.368 OA
BRANCH   7   8
ATOM      8  C   LIG d   1       2.066  83.078 113.630  0.00  0.00     0.119 C 
BRANCH   8   9
ATOM      9  C   LIG d   1       2.098  82.073 114.797  0.00  0.00     0.028 C 
ATOM     10  C   LIG d   1       2.884  82.604 116.008  0.00  0.00     0.006 C 
ENDBRANCH   8   9
BRANCH   8  11
ATOM     11  C   LIG d   1       2.890  84.279 114.106  0.00  0.00     0.028 C 
ATOM     12  C   LIG d   1       3.989  84.680 113.110  0.00  0.00     0.006 C 
ENDBRANCH   8  11
ENDBRANCH   7   8
ENDBRANCH   1   7
BRANCH   6  13
ATOM     13  N   LIG d   1       1.852  83.145 110.647  0.00  0.00    -0.311 N 
ATOM     14  C   LIG d   1       3.096  82.960 110.208  0.00  0.00     0.210 C 
ATOM     15  C   LIG d   1       3.711  84.160 109.482  0.00  0.00     0.109 C 
ATOM     16  O   LIG d   1       3.736  81.904 110.323  0.00  0.00    -0.276 OA
ATOM     17  H   LIG d   1       1.396  84.021 110.482  0.00  0.00     0.149 HD
ENDBRANCH   6  13
BRANCH   5  18
ATOM     18  N   LIG d   1       1.392  80.282 109.685  0.00  0.00     0.381 N 
ATOM     19  H   LIG d   1       2.104  79.938 110.298  0.00  0.00    -0.090 HD
ATOM     20  H   LIG d   1       1.827  80.871 108.996  0.00  0.00    -0.090 HD
ATOM     21  H   LIG d   1       0.931  79.520 109.238  0.00  0.00    -0.090 HD
ENDBRANCH   5  18
BRANCH   3  22
ATOM     22  C   LIG d   1      -2.491  80.122 112.484  0.00  0.00     0.382 C 
ATOM     23  O   LIG d   1      -3.436  80.773 112.991  0.00  0.00    -0.241 OA
ATOM     24  O   LIG d   1      -2.613  78.893 112.316  0.00  0.00    -0.241 OA
ENDBRANCH   3  22
TORSDOF 7
ENDMDL
MODEL 8
REMARK VINA RESULT:      -3.3      4.246      6.741
REMARK  7 active torsions:
REMARK  status: ('A' for Active; 'I' for Inactive)
REMARK    1  A    between atoms: C_2  and  C_3 
REMARK    2  A    between atoms: C_3  and  O_6 
REMARK    3  A    between atoms: C_3  and  C_4 
REMARK    4  A    between atoms: C_7  and  O_6 
REMARK    5  A    between atoms: C_9  and  C_10 
REMARK    6  A    between atoms: N_15  and  C_14 
REMARK    7  A    between atoms: N_20  and  C_19 
REMARK       I    between atoms: C_22  and  N_20 
ROOT
ATOM      1  C   LIG d   1       2.745  77.927 117.498  0.00  0.00     0.161 C 
ATOM      2  C   LIG d   1       3.807  77.612 116.633  0.00  0.00     0.016 C 
ATOM      3  C   LIG d   1       4.958  78.420 116.487  0.00  0.00     0.038 C 
ATOM      4  C   LIG d   1       5.195  79.528 117.313  0.00  0.00     0.028 C 
ATOM      5  C   LIG d   1       3.919  80.169 117.848  0.00  0.00    -0.047 C 
ATOM      6  C   LIG d   1       3.037  79.073 118.488  0.00  0.00     0.091 C 
ENDROOT
BRANCH   1   7
ATOM      7  O   LIG d   1       2.326  76.745 118.208  0.00  0.00    -0.368 OA
BRANCH   7   8
ATOM      8  C   LIG d   1       0.910  76.445 118.167  0.00  0.00     0.119 C 
BRANCH   8   9
ATOM      9  C   LIG d   1       0.748  74.937 118.439  0.00  0.00     0.028 C 
ATOM     10  C   LIG d   1       1.392  74.507 119.767  0.00  0.00     0.006 C 
ENDBRANCH   8   9
BRANCH   8  11
ATOM     11  C   LIG d   1       0.333  76.669 116.766  0.00  0.00     0.028 C 
ATOM     12  C   LIG d   1      -1.070  77.295 116.793  0.00  0.00     0.006 C 
ENDBRANCH   8  11
ENDBRANCH   7   8
ENDBRANCH   1   7
BRANCH   6  13
ATOM     13  N   LIG d   1       1.731  79.602 118.962  0.00  0.00    -0.311 N 
ATOM     14  C   LIG d   1       0.839  80.179 118.159  0.00  0.00     0.210 C 
ATOM     15  C   LIG d   1      -0.434  80.672 118.855  0.00  0.00     0.109 C 
ATOM     16  O   LIG d   1       0.967  80.302 116.932  0.00  0.00    -0.276 OA
ATOM     17  H   LIG d   1       1.531  79.515 119.939  0.00  0.00     0.149 HD
ENDBRANCH   6  13
BRANCH   5  18
ATOM     18  N   LIG d   1       4.315  81.223 118.801  0.00  0.00     0.381 N 
ATOM     19  H   LIG d   1       5.236  81.038 119.147  0.00  0.00    -0.090 HD
ATOM     20  H   LIG d   1       3.679  81.214 119.579  0.00  0.00    -0.090 HD
ATOM     21  H   LIG d   1       4.293  82.113 118.355  0.00  0.00    -0.090 HD
ENDBRANCH   5  18
BRANCH   3  22
ATOM     22  C   LIG d   1       5.867  78.144 115.477  0.00  0.00     0.382 C 
ATOM     23  O   LIG d   1       6.845  77.390 115.703  0.00  0.00    -0.241 OA
ATOM     24  O   LIG d   1       5.747  78.674 114.357  0.00  0.00    -0.241 OA
ENDBRANCH   3  22
TORSDOF 7
ENDMDL
MODEL 9
REMARK VINA RESULT:      -3.3      4.340      6.230
REMARK  7 active torsions:
REMARK  status: ('A' for Active; 'I' for Inactive)
REMARK    1  A    between atoms: C_2  and  C_3 
REMARK    2  A    between atoms: C_3  and  O_6 
REMARK    3  A    between atoms: C_3  and  C_4 
REMARK    4  A    between atoms: C_7  and  O_6 
REMARK    5  A    between atoms: C_9  and  C_10 
REMARK    6  A    between atoms: N_15  and  C_14 
REMARK    7  A    between atoms: N_20  and  C_19 
REMARK       I    between atoms: C_22  and  N_20 
ROOT
ATOM      1  C   LIG d   1       3.484  78.628 117.406  0.00  0.00     0.161 C 
ATOM      2  C   LIG d   1       3.684  79.769 116.610  0.00  0.00     0.016 C 
ATOM      3  C   LIG d   1       2.764  80.840 116.541  0.00  0.00     0.038 C 
ATOM      4  C   LIG d   1       1.646  80.913 117.386  0.00  0.00     0.028 C 
ATOM      5  C   LIG d   1       1.140  79.548 117.841  0.00  0.00    -0.047 C 
ATOM      6  C   LIG d   1       2.325  78.741 118.418  0.00  0.00     0.091 C 
ENDROOT
BRANCH   1   7
ATOM      7  O   LIG d   1       4.709  78.285 118.084  0.00  0.00    -0.368 OA
BRANCH   7   8
ATOM      8  C   LIG d   1       5.402  77.111 117.593  0.00  0.00     0.119 C 
BRANCH   8   9
ATOM      9  C   LIG d   1       5.733  76.226 118.810  0.00  0.00     0.028 C 
ATOM     10  C   LIG d   1       4.779  75.027 118.941  0.00  0.00     0.006 C 
ENDBRANCH   8   9
BRANCH   8  11
ATOM     11  C   LIG d   1       6.756  77.478 116.978  0.00  0.00     0.028 C 
ATOM     12  C   LIG d   1       6.657  77.825 115.484  0.00  0.00     0.006 C 
ENDBRANCH   8  11
ENDBRANCH   7   8
ENDBRANCH   1   7
BRANCH   6  13
ATOM     13  N   LIG d   1       1.934  77.362 118.810  0.00  0.00    -0.311 N 
ATOM     14  C   LIG d   1       1.412  76.479 117.960  0.00  0.00     0.210 C 
ATOM     15  C   LIG d   1       1.061  75.120 118.574  0.00  0.00     0.109 C 
ATOM     16  O   LIG d   1       1.237  76.681 116.749  0.00  0.00    -0.276 OA
ATOM     17  H   LIG d   1       2.071  77.103 119.767  0.00  0.00     0.149 HD
ENDBRANCH   6  13
BRANCH   5  18
ATOM     18  N   LIG d   1       0.063  79.777 118.822  0.00  0.00     0.381 N 
ATOM     19  H   LIG d   1      -0.545  78.983 118.848  0.00  0.00    -0.090 HD
ATOM     20  H   LIG d   1      -0.474  80.576 118.535  0.00  0.00    -0.090 HD
ATOM     21  H   LIG d   1       0.452  79.936 119.725  0.00  0.00    -0.090 HD
ENDBRANCH   5  18
BRANCH   3  22
ATOM     22  C   LIG d   1       2.938  81.835 115.591  0.00  0.00     0.382 C 
ATOM     23  O   LIG d   1       2.182  81.885 114.590  0.00  0.00    -0.241 OA
ATOM     24  O   LIG d   1       3.868  82.656 115.699  0.00  0.00    -0.241 OA
ENDBRANCH   3  22
TORSDOF 7
ENDMDL
