MODEL 1
REMARK VINA RESULT:      -5.6      0.000      0.000
REMARK  7 active torsions:
REMARK  status: ('A' for Active; 'I' for Inactive)
REMARK    1  A    between atoms: C_2  and  C_3 
REMARK    2  A    between atoms: C_3  and  O_6 
REMARK    3  A    between atoms: C_3  and  C_4 
REMARK    4  A    between atoms: C_7  and  O_6 
REMARK    5  A    between atoms: C_9  and  C_10 
REMARK    6  A    between atoms: N_15  and  C_14 
REMARK    7  A    between atoms: N_20  and  C_19 
REMARK       I    between atoms: C_22  and  N_20 
ROOT
ATOM      1  C   LIG d   1       1.593  81.448 112.509  0.00  0.00     0.161 C 
ATOM      2  C   LIG d   1       2.566  82.145 111.773  0.00  0.00     0.016 C 
ATOM      3  C   LIG d   1       2.684  82.063 110.366  0.00  0.00     0.038 C 
ATOM      4  C   LIG d   1       1.735  81.392 109.581  0.00  0.00     0.028 C 
ATOM      5  C   LIG d   1       1.028  80.260 110.319  0.00  0.00    -0.047 C 
ATOM      6  C   LIG d   1       0.480  80.800 111.659  0.00  0.00     0.091 C 
ENDROOT
BRANCH   1   7
ATOM      7  O   LIG d   1       1.020  82.318 113.506  0.00  0.00    -0.368 OA
BRANCH   7   8
ATOM      8  C   LIG d   1       1.263  83.735 113.331  0.00  0.00     0.119 C 
BRANCH   8   9
ATOM      9  C   LIG d   1       1.630  84.315 114.711  0.00  0.00     0.028 C 
ATOM     10  C   LIG d   1       2.490  83.349 115.544  0.00  0.00     0.006 C 
ENDBRANCH   8   9
BRANCH   8  11
ATOM     11  C   LIG d   1      -0.012  84.471 112.909  0.00  0.00     0.028 C 
ATOM     12  C   LIG d   1      -0.373  84.238 111.433  0.00  0.00     0.006 C 
ENDBRANCH   8  11
ENDBRANCH   7   8
ENDBRANCH   1   7
BRANCH   6  13
ATOM     13  N   LIG d   1      -0.153  79.737 112.483  0.00  0.00    -0.311 N 
ATOM     14  C   LIG d   1      -1.453  79.708 112.769  0.00  0.00     0.210 C 
ATOM     15  C   LIG d   1      -1.896  78.535 113.650  0.00  0.00     0.109 C 
ATOM     16  O   LIG d   1      -2.288  80.525 112.351  0.00  0.00    -0.276 OA
ATOM     17  H   LIG d   1       0.446  79.017 112.837  0.00  0.00     0.149 HD
ENDBRANCH   6  13
BRANCH   5  18
ATOM     18  N   LIG d   1      -0.028  79.739 109.430  0.00  0.00     0.381 N 
ATOM     19  H   LIG d   1      -0.922  80.064 109.740  0.00  0.00    -0.090 HD
ATOM     20  H   LIG d   1      -0.024  78.735 109.475  0.00  0.00    -0.090 HD
ATOM     21  H   LIG d   1       0.136  80.038 108.494  0.00  0.00    -0.090 HD
ENDBRANCH   5  18
BRANCH   3  22
ATOM     22  C   LIG d   1       3.784  82.623 109.735  0.00  0.00     0.382 C 
ATOM     23  O   LIG d   1       4.766  81.904 109.430  0.00  0.00    -0.241 OA
ATOM     24  O   LIG d   1       3.826  83.847 109.507  0.00  0.00    -0.241 OA
ENDBRANCH   3  22
TORSDOF 7
ENDMDL
MODEL 2
REMARK VINA RESULT:      -5.0      1.201      1.867
REMARK  7 active torsions:
REMARK  status: ('A' for Active; 'I' for Inactive)
REMARK    1  A    between atoms: C_2  and  C_3 
REMARK    2  A    between atoms: C_3  and  O_6 
REMARK    3  A    between atoms: C_3  and  C_4 
REMARK    4  A    between atoms: C_7  and  O_6 
REMARK    5  A    between atoms: C_9  and  C_10 
REMARK    6  A    between atoms: N_15  and  C_14 
REMARK    7  A    between atoms: N_20  and  C_19 
REMARK       I    between atoms: C_22  and  N_20 
ROOT
ATOM      1  C   LIG d   1       1.784  81.472 112.734  0.00  0.00     0.161 C 
ATOM      2  C   LIG d   1       2.704  82.195 111.957  0.00  0.00     0.016 C 
ATOM      3  C   LIG d   1       2.732  82.155 110.544  0.00  0.00     0.038 C 
ATOM      4  C   LIG d   1       1.736  81.502 109.802  0.00  0.00     0.028 C 
ATOM      5  C   LIG d   1       1.083  80.345 110.551  0.00  0.00    -0.047 C 
ATOM      6  C   LIG d   1       0.621  80.843 111.939  0.00  0.00     0.091 C 
ENDROOT
BRANCH   1   7
ATOM      7  O   LIG d   1       1.273  82.309 113.791  0.00  0.00    -0.368 OA
BRANCH   7   8
ATOM      8  C   LIG d   1       2.241  82.767 114.766  0.00  0.00     0.119 C 
BRANCH   8   9
ATOM      9  C   LIG d   1       2.039  81.933 116.046  0.00  0.00     0.028 C 
ATOM     10  C   LIG d   1       3.307  81.164 116.453  0.00  0.00     0.006 C 
ENDBRANCH   8   9
BRANCH   8  11
ATOM     11  C   LIG d   1       1.973  84.217 115.180  0.00  0.00     0.028 C 
ATOM     12  C   LIG d   1       1.681  84.364 116.681  0.00  0.00     0.006 C 
ENDBRANCH   8  11
ENDBRANCH   7   8
ENDBRANCH   1   7
BRANCH   6  13
ATOM     13  N   LIG d   1       0.047  79.752 112.770  0.00  0.00    -0.311 N 
ATOM     14  C   LIG d   1      -1.244  79.424 112.759  0.00  0.00     0.210 C 
ATOM     15  C   LIG d   1      -1.630  78.284 113.706  0.00  0.00     0.109 C 
ATOM     16  O   LIG d   1      -2.101  79.948 112.031  0.00  0.00    -0.276 OA
ATOM     17  H   LIG d   1       0.677  79.254 113.367  0.00  0.00     0.149 HD
ENDBRANCH   6  13
BRANCH   5  18
ATOM     18  N   LIG d   1      -0.026  79.844 109.717  0.00  0.00     0.381 N 
ATOM     19  H   LIG d   1       0.195  79.968 108.749  0.00  0.00    -0.090 HD
ATOM     20  H   LIG d   1      -0.853  80.375 109.923  0.00  0.00    -0.090 HD
ATOM     21  H   LIG d   1      -0.186  78.879 109.907  0.00  0.00    -0.090 HD
ENDBRANCH   5  18
BRANCH   3  22
ATOM     22  C   LIG d   1       3.786  82.740 109.860  0.00  0.00     0.382 C 
ATOM     23  O   LIG d   1       3.778  83.973 109.631  0.00  0.00    -0.241 OA
ATOM     24  O   LIG d   1       4.725  82.042 109.430  0.00  0.00    -0.241 OA
ENDBRANCH   3  22
TORSDOF 7
ENDMDL
MODEL 3
REMARK VINA RESULT:      -4.1      6.363      7.741
REMARK  7 active torsions:
REMARK  status: ('A' for Active; 'I' for Inactive)
REMARK    1  A    between atoms: C_2  and  C_3 
REMARK    2  A    between atoms: C_3  and  O_6 
REMARK    3  A    between atoms: C_3  and  C_4 
REMARK    4  A    between atoms: C_7  and  O_6 
REMARK    5  A    between atoms: C_9  and  C_10 
REMARK    6  A    between atoms: N_15  and  C_14 
REMARK    7  A    between atoms: N_20  and  C_19 
REMARK       I    between atoms: C_22  and  N_20 
ROOT
ATOM      1  C   LIG d   1      -0.219  78.012 116.927  0.00  0.00     0.161 C 
ATOM      2  C   LIG d   1      -1.237  78.372 116.029  0.00  0.00     0.016 C 
ATOM      3  C   LIG d   1      -1.869  77.453 115.160  0.00  0.00     0.038 C 
ATOM      4  C   LIG d   1      -1.628  76.073 115.239  0.00  0.00     0.028 C 
ATOM      5  C   LIG d   1      -0.244  75.729 115.780  0.00  0.00    -0.047 C 
ATOM      6  C   LIG d   1      -0.020  76.493 117.106  0.00  0.00     0.091 C 
ENDROOT
BRANCH   1   7
ATOM      7  O   LIG d   1      -0.449  78.641 118.204  0.00  0.00    -0.368 OA
BRANCH   7   8
ATOM      8  C   LIG d   1       0.512  79.651 118.600  0.00  0.00     0.119 C 
BRANCH   8   9
ATOM      9  C   LIG d   1      -0.230  81.000 118.651  0.00  0.00     0.028 C 
ATOM     10  C   LIG d   1      -1.668  80.860 119.180  0.00  0.00     0.006 C 
ENDBRANCH   8   9
BRANCH   8  11
ATOM     11  C   LIG d   1       1.603  79.828 117.540  0.00  0.00     0.028 C 
ATOM     12  C   LIG d   1       3.019  79.637 118.105  0.00  0.00     0.006 C 
ENDBRANCH   8  11
ENDBRANCH   7   8
ENDBRANCH   1   7
BRANCH   6  13
ATOM     13  N   LIG d   1       1.342  76.279 117.660  0.00  0.00    -0.311 N 
ATOM     14  C   LIG d   1       1.580  76.037 118.948  0.00  0.00     0.210 C 
ATOM     15  C   LIG d   1       3.058  75.867 119.312  0.00  0.00     0.109 C 
ATOM     16  O   LIG d   1       0.704  75.916 119.818  0.00  0.00    -0.276 OA
ATOM     17  H   LIG d   1       2.109  76.329 117.018  0.00  0.00     0.149 HD
ENDBRANCH   6  13
BRANCH   5  18
ATOM     18  N   LIG d   1      -0.179  74.264 115.938  0.00  0.00     0.381 N 
ATOM     19  H   LIG d   1       0.714  74.003 116.308  0.00  0.00    -0.090 HD
ATOM     20  H   LIG d   1      -0.285  73.835 115.036  0.00  0.00    -0.090 HD
ATOM     21  H   LIG d   1      -0.903  73.955 116.549  0.00  0.00    -0.090 HD
ENDBRANCH   5  18
BRANCH   3  22
ATOM     22  C   LIG d   1      -2.724  77.917 114.172  0.00  0.00     0.382 C 
ATOM     23  O   LIG d   1      -2.813  79.148 113.948  0.00  0.00    -0.241 OA
ATOM     24  O   LIG d   1      -3.440  77.123 113.532  0.00  0.00    -0.241 OA
ENDBRANCH   3  22
TORSDOF 7
ENDMDL
MODEL 4
REMARK VINA RESULT:      -3.6      6.772      7.895
REMARK  7 active torsions:
REMARK  status: ('A' for Active; 'I' for Inactive)
REMARK    1  A    between atoms: C_2  and  C_3 
REMARK    2  A    between atoms: C_3  and  O_6 
REMARK    3  A    between atoms: C_3  and  C_4 
REMARK    4  A    between atoms: C_7  and  O_6 
REMARK    5  A    between atoms: C_9  and  C_10 
REMARK    6  A    between atoms: N_15  and  C_14 
REMARK    7  A    between atoms: N_20  and  C_19 
REMARK       I    between atoms: C_22  and  N_20 
ROOT
ATOM      1  C   LIG d   1      -0.663  76.142 117.234  0.00  0.00     0.161 C 
ATOM      2  C   LIG d   1      -0.064  75.415 116.191  0.00  0.00     0.016 C 
ATOM      3  C   LIG d   1      -0.365  75.623 114.826  0.00  0.00     0.038 C 
ATOM      4  C   LIG d   1      -1.179  76.683 114.398  0.00  0.00     0.028 C 
ATOM      5  C   LIG d   1      -2.199  77.122 115.443  0.00  0.00    -0.047 C 
ATOM      6  C   LIG d   1      -1.469  77.377 116.782  0.00  0.00     0.091 C 
ENDROOT
BRANCH   1   7
ATOM      7  O   LIG d   1       0.337  76.523 118.200  0.00  0.00    -0.368 OA
BRANCH   7   8
ATOM      8  C   LIG d   1       1.575  77.049 117.663  0.00  0.00     0.119 C 
BRANCH   8   9
ATOM      9  C   LIG d   1       2.734  76.331 118.383  0.00  0.00     0.028 C 
ATOM     10  C   LIG d   1       2.318  75.777 119.756  0.00  0.00     0.006 C 
ENDBRANCH   8   9
BRANCH   8  11
ATOM     11  C   LIG d   1       1.744  78.533 118.002  0.00  0.00     0.028 C 
ATOM     12  C   LIG d   1       3.136  79.073 117.636  0.00  0.00     0.006 C 
ENDBRANCH   8  11
ENDBRANCH   7   8
ENDBRANCH   1   7
BRANCH   6  13
ATOM     13  N   LIG d   1      -2.406  77.730 117.880  0.00  0.00    -0.311 N 
ATOM     14  C   LIG d   1      -2.348  78.877 118.553  0.00  0.00     0.210 C 
ATOM     15  C   LIG d   1      -3.396  79.031 119.660  0.00  0.00     0.109 C 
ATOM     16  O   LIG d   1      -1.549  79.796 118.317  0.00  0.00    -0.276 OA
ATOM     17  H   LIG d   1      -3.107  77.054 118.116  0.00  0.00     0.149 HD
ENDBRANCH   6  13
BRANCH   5  18
ATOM     18  N   LIG d   1      -2.885  78.319 114.921  0.00  0.00     0.381 N 
ATOM     19  H   LIG d   1      -2.759  79.084 115.553  0.00  0.00    -0.090 HD
ATOM     20  H   LIG d   1      -3.868  78.126 114.850  0.00  0.00    -0.090 HD
ATOM     21  H   LIG d   1      -2.520  78.557 114.024  0.00  0.00    -0.090 HD
ENDBRANCH   5  18
BRANCH   3  22
ATOM     22  C   LIG d   1       0.120  74.740 113.873  0.00  0.00     0.382 C 
ATOM     23  O   LIG d   1       1.230  74.180 114.044  0.00  0.00    -0.241 OA
ATOM     24  O   LIG d   1      -0.518  74.528 112.825  0.00  0.00    -0.241 OA
ENDBRANCH   3  22
TORSDOF 7
ENDMDL
MODEL 5
REMARK VINA RESULT:      -3.5      5.320      6.660
REMARK  7 active torsions:
REMARK  status: ('A' for Active; 'I' for Inactive)
REMARK    1  A    between atoms: C_2  and  C_3 
REMARK    2  A    between atoms: C_3  and  O_6 
REMARK    3  A    between atoms: C_3  and  C_4 
REMARK    4  A    between atoms: C_7  and  O_6 
REMARK    5  A    between atoms: C_9  and  C_10 
REMARK    6  A    between atoms: N_15  and  C_14 
REMARK    7  A    between atoms: N_20  and  C_19 
REMARK       I    between atoms: C_22  and  N_20 
ROOT
ATOM      1  C   LIG d   1       2.884  79.672 117.441  0.00  0.00     0.161 C 
ATOM      2  C   LIG d   1       4.156  79.248 117.021  0.00  0.00     0.016 C 
ATOM      3  C   LIG d   1       4.545  77.890 116.965  0.00  0.00     0.038 C 
ATOM      4  C   LIG d   1       3.632  76.848 117.184  0.00  0.00     0.028 C 
ATOM      5  C   LIG d   1       2.476  77.237 118.100  0.00  0.00    -0.047 C 
ATOM      6  C   LIG d   1       1.839  78.544 117.576  0.00  0.00     0.091 C 
ENDROOT
BRANCH   1   7
ATOM      7  O   LIG d   1       2.397  80.703 116.559  0.00  0.00    -0.368 OA
BRANCH   7   8
ATOM      8  C   LIG d   1       2.792  82.058 116.885  0.00  0.00     0.119 C 
BRANCH   8   9
ATOM      9  C   LIG d   1       2.257  82.371 118.295  0.00  0.00     0.028 C 
ATOM     10  C   LIG d   1       0.793  82.840 118.277  0.00  0.00     0.006 C 
ENDBRANCH   8   9
BRANCH   8  11
ATOM     11  C   LIG d   1       2.114  83.073 115.960  0.00  0.00     0.028 C 
ATOM     12  C   LIG d   1       2.255  82.712 114.473  0.00  0.00     0.006 C 
ENDBRANCH   8  11
ENDBRANCH   7   8
ENDBRANCH   1   7
BRANCH   6  13
ATOM     13  N   LIG d   1       0.754  79.041 118.463  0.00  0.00    -0.311 N 
ATOM     14  C   LIG d   1      -0.457  79.374 118.022  0.00  0.00     0.210 C 
ATOM     15  C   LIG d   1      -1.420  79.882 119.100  0.00  0.00     0.109 C 
ATOM     16  O   LIG d   1      -0.837  79.267 116.846  0.00  0.00    -0.276 OA
ATOM     17  H   LIG d   1       0.966  79.129 119.437  0.00  0.00     0.149 HD
ENDBRANCH   6  13
BRANCH   5  18
ATOM     18  N   LIG d   1       1.531  76.105 118.130  0.00  0.00     0.381 N 
ATOM     19  H   LIG d   1       1.533  75.638 117.245  0.00  0.00    -0.090 HD
ATOM     20  H   LIG d   1       0.605  76.459 118.297  0.00  0.00    -0.090 HD
ATOM     21  H   LIG d   1       1.786  75.467 118.851  0.00  0.00    -0.090 HD
ENDBRANCH   5  18
BRANCH   3  22
ATOM     22  C   LIG d   1       5.871  77.564 116.727  0.00  0.00     0.382 C 
ATOM     23  O   LIG d   1       6.503  76.863 117.554  0.00  0.00    -0.241 OA
ATOM     24  O   LIG d   1       6.458  77.999 115.718  0.00  0.00    -0.241 OA
ENDBRANCH   3  22
TORSDOF 7
ENDMDL
MODEL 6
REMARK VINA RESULT:      -3.4      6.671      7.777
REMARK  7 active torsions:
REMARK  status: ('A' for Active; 'I' for Inactive)
REMARK    1  A    between atoms: C_2  and  C_3 
REMARK    2  A    between atoms: C_3  and  O_6 
REMARK    3  A    between atoms: C_3  and  C_4 
REMARK    4  A    between atoms: C_7  and  O_6 
REMARK    5  A    between atoms: C_9  and  C_10 
REMARK    6  A    between atoms: N_15  and  C_14 
REMARK    7  A    between atoms: N_20  and  C_19 
REMARK       I    between atoms: C_22  and  N_20 
ROOT
ATOM      1  C   LIG d   1      -0.551  78.025 117.422  0.00  0.00     0.161 C 
ATOM      2  C   LIG d   1      -1.387  78.311 116.330  0.00  0.00     0.016 C 
ATOM      3  C   LIG d   1      -1.940  77.316 115.491  0.00  0.00     0.038 C 
ATOM      4  C   LIG d   1      -1.815  75.949 115.781  0.00  0.00     0.028 C 
ATOM      5  C   LIG d   1      -0.563  75.611 116.582  0.00  0.00    -0.047 C 
ATOM      6  C   LIG d   1      -0.495  76.535 117.820  0.00  0.00     0.091 C 
ENDROOT
BRANCH   1   7
ATOM      7  O   LIG d   1      -0.933  78.832 118.554  0.00  0.00    -0.368 OA
BRANCH   7   8
ATOM      8  C   LIG d   1      -0.312  80.138 118.644  0.00  0.00     0.119 C 
BRANCH   8   9
ATOM      9  C   LIG d   1       0.966  79.985 119.492  0.00  0.00     0.028 C 
ATOM     10  C   LIG d   1       2.247  80.137 118.655  0.00  0.00     0.006 C 
ENDBRANCH   8   9
BRANCH   8  11
ATOM     11  C   LIG d   1      -1.195  81.123 119.415  0.00  0.00     0.028 C 
ATOM     12  C   LIG d   1      -0.798  82.589 119.180  0.00  0.00     0.006 C 
ENDBRANCH   8  11
ENDBRANCH   7   8
ENDBRANCH   1   7
BRANCH   6  13
ATOM     13  N   LIG d   1       0.744  76.328 118.614  0.00  0.00    -0.311 N 
ATOM     14  C   LIG d   1       1.969  76.430 118.102  0.00  0.00     0.210 C 
ATOM     15  C   LIG d   1       3.108  76.159 119.089  0.00  0.00     0.109 C 
ATOM     16  O   LIG d   1       2.221  76.752 116.931  0.00  0.00    -0.276 OA
ATOM     17  H   LIG d   1       0.632  76.095 119.581  0.00  0.00     0.149 HD
ENDBRANCH   6  13
BRANCH   5  18
ATOM     18  N   LIG d   1      -0.630  74.180 116.932  0.00  0.00     0.381 N 
ATOM     19  H   LIG d   1       0.294  73.819 117.061  0.00  0.00    -0.090 HD
ATOM     20  H   LIG d   1      -1.061  73.680 116.174  0.00  0.00    -0.090 HD
ATOM     21  H   LIG d   1      -1.162  74.057 117.766  0.00  0.00    -0.090 HD
ENDBRANCH   5  18
BRANCH   3  22
ATOM     22  C   LIG d   1      -2.593  77.685 114.325  0.00  0.00     0.382 C 
ATOM     23  O   LIG d   1      -3.048  76.805 113.555  0.00  0.00    -0.241 OA
ATOM     24  O   LIG d   1      -2.694  78.886 114.010  0.00  0.00    -0.241 OA
ENDBRANCH   3  22
TORSDOF 7
ENDMDL
MODEL 7
REMARK VINA RESULT:      -3.2      7.274      8.532
REMARK  7 active torsions:
REMARK  status: ('A' for Active; 'I' for Inactive)
REMARK    1  A    between atoms: C_2  and  C_3 
REMARK    2  A    between atoms: C_3  and  O_6 
REMARK    3  A    between atoms: C_3  and  C_4 
REMARK    4  A    between atoms: C_7  and  O_6 
REMARK    5  A    between atoms: C_9  and  C_10 
REMARK    6  A    between atoms: N_15  and  C_14 
REMARK    7  A    between atoms: N_20  and  C_19 
REMARK       I    between atoms: C_22  and  N_20 
ROOT
ATOM      1  C   LIG d   1       1.073  77.762 117.653  0.00  0.00     0.161 C 
ATOM      2  C   LIG d   1       0.824  78.869 118.482  0.00  0.00     0.016 C 
ATOM      3  C   LIG d   1      -0.418  79.543 118.528  0.00  0.00     0.038 C 
ATOM      4  C   LIG d   1      -1.549  79.060 117.853  0.00  0.00     0.028 C 
ATOM      5  C   LIG d   1      -1.211  78.242 116.612  0.00  0.00    -0.047 C 
ATOM      6  C   LIG d   1      -0.182  77.153 116.993  0.00  0.00     0.091 C 
ENDROOT
BRANCH   1   7
ATOM      7  O   LIG d   1       1.793  76.753 118.388  0.00  0.00    -0.368 OA
BRANCH   7   8
ATOM      8  C   LIG d   1       3.196  77.021 118.632  0.00  0.00     0.119 C 
BRANCH   8   9
ATOM      9  C   LIG d   1       3.946  76.804 117.304  0.00  0.00     0.028 C 
ATOM     10  C   LIG d   1       5.432  77.188 117.400  0.00  0.00     0.006 C 
ENDBRANCH   8   9
BRANCH   8  11
ATOM     11  C   LIG d   1       3.796  76.004 119.607  0.00  0.00     0.028 C 
ATOM     12  C   LIG d   1       2.834  74.849 119.930  0.00  0.00     0.006 C 
ENDBRANCH   8  11
ENDBRANCH   7   8
ENDBRANCH   1   7
BRANCH   6  13
ATOM     13  N   LIG d   1       0.267  76.361 115.819  0.00  0.00    -0.311 N 
ATOM     14  C   LIG d   1      -0.343  75.251 115.407  0.00  0.00     0.210 C 
ATOM     15  C   LIG d   1       0.295  74.577 114.188  0.00  0.00     0.109 C 
ATOM     16  O   LIG d   1      -1.370  74.778 115.916  0.00  0.00    -0.276 OA
ATOM     17  H   LIG d   1       1.075  76.691 115.328  0.00  0.00     0.149 HD
ENDBRANCH   6  13
BRANCH   5  18
ATOM     18  N   LIG d   1      -2.472  77.687 116.087  0.00  0.00     0.381 N 
ATOM     19  H   LIG d   1      -2.989  78.404 115.618  0.00  0.00    -0.090 HD
ATOM     20  H   LIG d   1      -3.025  77.351 116.856  0.00  0.00    -0.090 HD
ATOM     21  H   LIG d   1      -2.280  76.940 115.456  0.00  0.00    -0.090 HD
ENDBRANCH   5  18
BRANCH   3  22
ATOM     22  C   LIG d   1      -0.526  80.738 119.223  0.00  0.00     0.382 C 
ATOM     23  O   LIG d   1      -1.576  81.419 119.141  0.00  0.00    -0.241 OA
ATOM     24  O   LIG d   1       0.431  81.166 119.896  0.00  0.00    -0.241 OA
ENDBRANCH   3  22
TORSDOF 7
ENDMDL
MODEL 8
REMARK VINA RESULT:      -3.2      6.331      8.452
REMARK  7 active torsions:
REMARK  status: ('A' for Active; 'I' for Inactive)
REMARK    1  A    between atoms: C_2  and  C_3 
REMARK    2  A    between atoms: C_3  and  O_6 
REMARK    3  A    between atoms: C_3  and  C_4 
REMARK    4  A    between atoms: C_7  and  O_6 
REMARK    5  A    between atoms: C_9  and  C_10 
REMARK    6  A    between atoms: N_15  and  C_14 
REMARK    7  A    between atoms: N_20  and  C_19 
REMARK       I    between atoms: C_22  and  N_20 
ROOT
ATOM      1  C   LIG d   1       0.709  78.912 118.096  0.00  0.00     0.161 C 
ATOM      2  C   LIG d   1      -0.367  79.741 118.453  0.00  0.00     0.016 C 
ATOM      3  C   LIG d   1      -0.237  81.130 118.683  0.00  0.00     0.038 C 
ATOM      4  C   LIG d   1       0.959  81.815 118.423  0.00  0.00     0.028 C 
ATOM      5  C   LIG d   1       2.200  80.938 118.547  0.00  0.00    -0.047 C 
ATOM      6  C   LIG d   1       1.998  79.661 117.699  0.00  0.00     0.091 C 
ENDROOT
BRANCH   1   7
ATOM      7  O   LIG d   1       0.306  78.015 117.042  0.00  0.00    -0.368 OA
BRANCH   7   8
ATOM      8  C   LIG d   1      -1.095  77.650 117.016  0.00  0.00     0.119 C 
BRANCH   8   9
ATOM      9  C   LIG d   1      -1.194  76.164 117.412  0.00  0.00     0.028 C 
ATOM     10  C   LIG d   1      -0.828  75.222 116.252  0.00  0.00     0.006 C 
ENDBRANCH   8   9
BRANCH   8  11
ATOM     11  C   LIG d   1      -1.667  77.730 115.598  0.00  0.00     0.028 C 
ATOM     12  C   LIG d   1      -3.136  78.181 115.572  0.00  0.00     0.006 C 
ENDBRANCH   8  11
ENDBRANCH   7   8
ENDBRANCH   1   7
BRANCH   6  13
ATOM     13  N   LIG d   1       3.131  78.708 117.831  0.00  0.00    -0.311 N 
ATOM     14  C   LIG d   1       4.200  78.725 117.037  0.00  0.00     0.210 C 
ATOM     15  C   LIG d   1       5.242  77.642 117.332  0.00  0.00     0.109 C 
ATOM     16  O   LIG d   1       4.399  79.554 116.136  0.00  0.00    -0.276 OA
ATOM     17  H   LIG d   1       3.067  78.021 118.556  0.00  0.00     0.149 HD
ENDBRANCH   6  13
BRANCH   5  18
ATOM     18  N   LIG d   1       3.359  81.741 118.116  0.00  0.00     0.381 N 
ATOM     19  H   LIG d   1       3.769  81.334 117.299  0.00  0.00    -0.090 HD
ATOM     20  H   LIG d   1       4.047  81.738 118.849  0.00  0.00    -0.090 HD
ATOM     21  H   LIG d   1       3.074  82.676 117.923  0.00  0.00    -0.090 HD
ENDBRANCH   5  18
BRANCH   3  22
ATOM     22  C   LIG d   1      -1.301  81.841 119.218  0.00  0.00     0.382 C 
ATOM     23  O   LIG d   1      -2.350  81.240 119.553  0.00  0.00    -0.241 OA
ATOM     24  O   LIG d   1      -1.241  83.080 119.328  0.00  0.00    -0.241 OA
ENDBRANCH   3  22
TORSDOF 7
ENDMDL
MODEL 9
REMARK VINA RESULT:      -3.0      3.461      5.479
REMARK  7 active torsions:
REMARK  status: ('A' for Active; 'I' for Inactive)
REMARK    1  A    between atoms: C_2  and  C_3 
REMARK    2  A    between atoms: C_3  and  O_6 
REMARK    3  A    between atoms: C_3  and  C_4 
REMARK    4  A    between atoms: C_7  and  O_6 
REMARK    5  A    between atoms: C_9  and  C_10 
REMARK    6  A    between atoms: N_15  and  C_14 
REMARK    7  A    between atoms: N_20  and  C_19 
REMARK       I    between atoms: C_22  and  N_20 
ROOT
ATOM      1  C   LIG d   1       2.452  82.137 115.510  0.00  0.00     0.161 C 
ATOM      2  C   LIG d   1       3.525  82.677 116.238  0.00  0.00     0.016 C 
ATOM      3  C   LIG d   1       4.275  83.794 115.804  0.00  0.00     0.038 C 
ATOM      4  C   LIG d   1       3.904  84.546 114.679  0.00  0.00     0.028 C 
ATOM      5  C   LIG d   1       3.134  83.739 113.639  0.00  0.00    -0.047 C 
ATOM      6  C   LIG d   1       1.962  83.010 114.336  0.00  0.00     0.091 C 
ENDROOT
BRANCH   1   7
ATOM      7  O   LIG d   1       1.359  81.836 116.400  0.00  0.00    -0.368 OA
BRANCH   7   8
ATOM      8  C   LIG d   1       1.610  82.050 117.811  0.00  0.00     0.119 C 
BRANCH   8   9
ATOM      9  C   LIG d   1       1.386  80.706 118.530  0.00  0.00     0.028 C 
ATOM     10  C   LIG d   1       0.770  80.884 119.928  0.00  0.00     0.006 C 
ENDBRANCH   8   9
BRANCH   8  11
ATOM     11  C   LIG d   1       0.585  83.011 118.420  0.00  0.00     0.028 C 
ATOM     12  C   LIG d   1       0.983  84.487 118.258  0.00  0.00     0.006 C 
ENDBRANCH   8  11
ENDBRANCH   7   8
ENDBRANCH   1   7
BRANCH   6  13
ATOM     13  N   LIG d   1       1.208  82.131 113.405  0.00  0.00    -0.311 N 
ATOM     14  C   LIG d   1       1.788  81.399 112.456  0.00  0.00     0.210 C 
ATOM     15  C   LIG d   1       0.825  80.578 111.593  0.00  0.00     0.109 C 
ATOM     16  O   LIG d   1       3.012  81.326 112.268  0.00  0.00    -0.276 OA
ATOM     17  H   LIG d   1       0.212  82.106 113.508  0.00  0.00     0.149 HD
ENDBRANCH   6  13
BRANCH   5  18
ATOM     18  N   LIG d   1       2.691  84.674 112.588  0.00  0.00     0.381 N 
ATOM     19  H   LIG d   1       2.764  85.615 112.919  0.00  0.00    -0.090 HD
ATOM     20  H   LIG d   1       1.727  84.489 112.374  0.00  0.00    -0.090 HD
ATOM     21  H   LIG d   1       3.249  84.557 111.771  0.00  0.00    -0.090 HD
ENDBRANCH   5  18
BRANCH   3  22
ATOM     22  C   LIG d   1       5.435  84.147 116.478  0.00  0.00     0.382 C 
ATOM     23  O   LIG d   1       5.367  84.615 117.640  0.00  0.00    -0.241 OA
ATOM     24  O   LIG d   1       6.544  84.044 115.922  0.00  0.00    -0.241 OA
ENDBRANCH   3  22
TORSDOF 7
ENDMDL
