MODEL 1
REMARK VINA RESULT:      -4.9      0.000      0.000
REMARK  7 active torsions:
REMARK  status: ('A' for Active; 'I' for Inactive)
REMARK    1  A    between atoms: C_2  and  C_3 
REMARK    2  A    between atoms: C_3  and  O_6 
REMARK    3  A    between atoms: C_3  and  C_4 
REMARK    4  A    between atoms: C_7  and  O_6 
REMARK    5  A    between atoms: C_9  and  C_10 
REMARK    6  A    between atoms: N_15  and  C_14 
REMARK    7  A    between atoms: N_20  and  C_19 
REMARK       I    between atoms: C_22  and  N_20 
ROOT
ATOM      1  C   LIG d   1       0.041  82.560 111.940  0.00  0.00     0.161 C 
ATOM      2  C   LIG d   1      -1.068  81.845 112.423  0.00  0.00     0.016 C 
ATOM      3  C   LIG d   1      -1.251  80.459 112.215  0.00  0.00     0.038 C 
ATOM      4  C   LIG d   1      -0.256  79.658 111.634  0.00  0.00     0.028 C 
ATOM      5  C   LIG d   1       0.657  80.423 110.681  0.00  0.00    -0.047 C 
ATOM      6  C   LIG d   1       1.190  81.683 111.400  0.00  0.00     0.091 C 
ENDROOT
BRANCH   1   7
ATOM      7  O   LIG d   1       0.529  83.453 112.960  0.00  0.00    -0.368 OA
BRANCH   7   8
ATOM      8  C   LIG d   1       1.888  83.228 113.408  0.00  0.00     0.119 C 
BRANCH   8   9
ATOM      9  C   LIG d   1       1.814  82.562 114.795  0.00  0.00     0.028 C 
ATOM     10  C   LIG d   1       2.311  83.489 115.918  0.00  0.00     0.006 C 
ENDBRANCH   8   9
BRANCH   8  11
ATOM     11  C   LIG d   1       2.627  84.551 113.631  0.00  0.00     0.028 C 
ATOM     12  C   LIG d   1       4.051  84.542 113.054  0.00  0.00     0.006 C 
ENDBRANCH   8  11
ENDBRANCH   7   8
ENDBRANCH   1   7
BRANCH   6  13
ATOM     13  N   LIG d   1       2.025  82.532 110.511  0.00  0.00    -0.311 N 
ATOM     14  C   LIG d   1       3.343  82.388 110.384  0.00  0.00     0.210 C 
ATOM     15  C   LIG d   1       4.013  83.381 109.430  0.00  0.00     0.109 C 
ATOM     16  O   LIG d   1       4.015  81.511 110.947  0.00  0.00    -0.276 OA
ATOM     17  H   LIG d   1       1.555  83.249 109.993  0.00  0.00     0.149 HD
ENDBRANCH   6  13
BRANCH   5  18
ATOM     18  N   LIG d   1       1.729  79.502 110.256  0.00  0.00     0.381 N 
ATOM     19  H   LIG d   1       2.611  79.830 110.596  0.00  0.00    -0.090 HD
ATOM     20  H   LIG d   1       1.763  79.486 109.252  0.00  0.00    -0.090 HD
ATOM     21  H   LIG d   1       1.550  78.586 110.605  0.00  0.00    -0.090 HD
ENDBRANCH   5  18
BRANCH   3  22
ATOM     22  C   LIG d   1      -2.458  79.866 112.553  0.00  0.00     0.382 C 
ATOM     23  O   LIG d   1      -2.947  78.974 111.819  0.00  0.00    -0.241 OA
ATOM     24  O   LIG d   1      -3.086  80.244 113.561  0.00  0.00    -0.241 OA
ENDBRANCH   3  22
TORSDOF 7
ENDMDL
MODEL 2
REMARK VINA RESULT:      -4.4      5.234      7.003
REMARK  7 active torsions:
REMARK  status: ('A' for Active; 'I' for Inactive)
REMARK    1  A    between atoms: C_2  and  C_3 
REMARK    2  A    between atoms: C_3  and  O_6 
REMARK    3  A    between atoms: C_3  and  C_4 
REMARK    4  A    between atoms: C_7  and  O_6 
REMARK    5  A    between atoms: C_9  and  C_10 
REMARK    6  A    between atoms: N_15  and  C_14 
REMARK    7  A    between atoms: N_20  and  C_19 
REMARK       I    between atoms: C_22  and  N_20 
ROOT
ATOM      1  C   LIG d   1      -0.945  77.994 115.409  0.00  0.00     0.161 C 
ATOM      2  C   LIG d   1      -1.353  78.547 114.183  0.00  0.00     0.016 C 
ATOM      3  C   LIG d   1      -2.373  77.989 113.379  0.00  0.00     0.038 C 
ATOM      4  C   LIG d   1      -3.165  76.919 113.822  0.00  0.00     0.028 C 
ATOM      5  C   LIG d   1      -2.456  76.017 114.827  0.00  0.00    -0.047 C 
ATOM      6  C   LIG d   1      -1.872  76.891 115.960  0.00  0.00     0.091 C 
ENDROOT
BRANCH   1   7
ATOM      7  O   LIG d   1      -0.776  79.041 116.385  0.00  0.00    -0.368 OA
BRANCH   7   8
ATOM      8  C   LIG d   1       0.466  79.023 117.130  0.00  0.00     0.119 C 
BRANCH   8   9
ATOM      9  C   LIG d   1       0.175  79.601 118.529  0.00  0.00     0.028 C 
ATOM     10  C   LIG d   1      -1.320  79.891 118.744  0.00  0.00     0.006 C 
ENDBRANCH   8   9
BRANCH   8  11
ATOM     11  C   LIG d   1       1.502  79.964 116.510  0.00  0.00     0.028 C 
ATOM     12  C   LIG d   1       2.940  79.438 116.642  0.00  0.00     0.006 C 
ENDBRANCH   8  11
ENDBRANCH   7   8
ENDBRANCH   1   7
BRANCH   6  13
ATOM     13  N   LIG d   1      -1.090  76.096 116.943  0.00  0.00    -0.311 N 
ATOM     14  C   LIG d   1      -1.416  75.997 118.231  0.00  0.00     0.210 C 
ATOM     15  C   LIG d   1      -0.464  75.144 119.075  0.00  0.00     0.109 C 
ATOM     16  O   LIG d   1      -2.422  76.507 118.747  0.00  0.00    -0.276 OA
ATOM     17  H   LIG d   1      -0.276  75.624 116.603  0.00  0.00     0.149 HD
ENDBRANCH   6  13
BRANCH   5  18
ATOM     18  N   LIG d   1      -3.439  75.027 115.307  0.00  0.00     0.381 N 
ATOM     19  H   LIG d   1      -3.481  74.256 114.671  0.00  0.00    -0.090 HD
ATOM     20  H   LIG d   1      -4.345  75.459 115.341  0.00  0.00    -0.090 HD
ATOM     21  H   LIG d   1      -3.182  74.705 116.215  0.00  0.00    -0.090 HD
ENDBRANCH   5  18
BRANCH   3  22
ATOM     22  C   LIG d   1      -2.584  78.479 112.099  0.00  0.00     0.382 C 
ATOM     23  O   LIG d   1      -3.401  77.909 111.336  0.00  0.00    -0.241 OA
ATOM     24  O   LIG d   1      -1.935  79.457 111.681  0.00  0.00    -0.241 OA
ENDBRANCH   3  22
TORSDOF 7
ENDMDL
MODEL 3
REMARK VINA RESULT:      -4.3      2.151      2.905
REMARK  7 active torsions:
REMARK  status: ('A' for Active; 'I' for Inactive)
REMARK    1  A    between atoms: C_2  and  C_3 
REMARK    2  A    between atoms: C_3  and  O_6 
REMARK    3  A    between atoms: C_3  and  C_4 
REMARK    4  A    between atoms: C_7  and  O_6 
REMARK    5  A    between atoms: C_9  and  C_10 
REMARK    6  A    between atoms: N_15  and  C_14 
REMARK    7  A    between atoms: N_20  and  C_19 
REMARK       I    between atoms: C_22  and  N_20 
ROOT
ATOM      1  C   LIG d   1       0.888  80.681 113.427  0.00  0.00     0.161 C 
ATOM      2  C   LIG d   1      -0.126  79.708 113.448  0.00  0.00     0.016 C 
ATOM      3  C   LIG d   1      -0.864  79.328 112.304  0.00  0.00     0.038 C 
ATOM      4  C   LIG d   1      -0.533  79.790 111.021  0.00  0.00     0.028 C 
ATOM      5  C   LIG d   1       0.152  81.152 111.026  0.00  0.00    -0.047 C 
ATOM      6  C   LIG d   1       1.338  81.115 112.016  0.00  0.00     0.091 C 
ENDROOT
BRANCH   1   7
ATOM      7  O   LIG d   1       2.018  80.225 114.196  0.00  0.00    -0.368 OA
BRANCH   7   8
ATOM      8  C   LIG d   1       1.904  80.353 115.634  0.00  0.00     0.119 C 
BRANCH   8   9
ATOM      9  C   LIG d   1       2.434  81.749 116.018  0.00  0.00     0.028 C 
ATOM     10  C   LIG d   1       1.734  82.320 117.263  0.00  0.00     0.006 C 
ENDBRANCH   8   9
BRANCH   8  11
ATOM     11  C   LIG d   1       2.819  79.360 116.357  0.00  0.00     0.028 C 
ATOM     12  C   LIG d   1       2.074  78.514 117.401  0.00  0.00     0.006 C 
ENDBRANCH   8  11
ENDBRANCH   7   8
ENDBRANCH   1   7
BRANCH   6  13
ATOM     13  N   LIG d   1       2.011  82.433 112.145  0.00  0.00    -0.311 N 
ATOM     14  C   LIG d   1       3.044  82.805 111.391  0.00  0.00     0.210 C 
ATOM     15  C   LIG d   1       3.602  84.198 111.700  0.00  0.00     0.109 C 
ATOM     16  O   LIG d   1       3.531  82.127 110.473  0.00  0.00    -0.276 OA
ATOM     17  H   LIG d   1       1.661  83.058 112.844  0.00  0.00     0.149 HD
ENDBRANCH   6  13
BRANCH   5  18
ATOM     18  N   LIG d   1       0.564  81.449 109.641  0.00  0.00     0.381 N 
ATOM     19  H   LIG d   1       0.907  80.617 109.204  0.00  0.00    -0.090 HD
ATOM     20  H   LIG d   1       1.308  82.124 109.660  0.00  0.00    -0.090 HD
ATOM     21  H   LIG d   1      -0.208  81.809 109.125  0.00  0.00    -0.090 HD
ENDBRANCH   5  18
BRANCH   3  22
ATOM     22  C   LIG d   1      -1.973  78.507 112.442  0.00  0.00     0.382 C 
ATOM     23  O   LIG d   1      -1.844  77.262 112.362  0.00  0.00    -0.241 OA
ATOM     24  O   LIG d   1      -3.106  78.998 112.603  0.00  0.00    -0.241 OA
ENDBRANCH   3  22
TORSDOF 7
ENDMDL
MODEL 4
REMARK VINA RESULT:      -4.3      5.567      7.361
REMARK  7 active torsions:
REMARK  status: ('A' for Active; 'I' for Inactive)
REMARK    1  A    between atoms: C_2  and  C_3 
REMARK    2  A    between atoms: C_3  and  O_6 
REMARK    3  A    between atoms: C_3  and  C_4 
REMARK    4  A    between atoms: C_7  and  O_6 
REMARK    5  A    between atoms: C_9  and  C_10 
REMARK    6  A    between atoms: N_15  and  C_14 
REMARK    7  A    between atoms: N_20  and  C_19 
REMARK       I    between atoms: C_22  and  N_20 
ROOT
ATOM      1  C   LIG d   1      -0.790  77.768 115.926  0.00  0.00     0.161 C 
ATOM      2  C   LIG d   1      -1.240  78.642 114.922  0.00  0.00     0.016 C 
ATOM      3  C   LIG d   1      -2.335  78.355 114.075  0.00  0.00     0.038 C 
ATOM      4  C   LIG d   1      -3.154  77.234 114.275  0.00  0.00     0.028 C 
ATOM      5  C   LIG d   1      -2.436  76.073 114.954  0.00  0.00    -0.047 C 
ATOM      6  C   LIG d   1      -1.740  76.591 116.233  0.00  0.00     0.091 C 
ENDROOT
BRANCH   1   7
ATOM      7  O   LIG d   1      -0.508  78.510 117.129  0.00  0.00    -0.368 OA
BRANCH   7   8
ATOM      8  C   LIG d   1       0.829  79.058 117.241  0.00  0.00     0.119 C 
BRANCH   8   9
ATOM      9  C   LIG d   1       1.747  77.935 117.761  0.00  0.00     0.028 C 
ATOM     10  C   LIG d   1       1.567  77.681 119.268  0.00  0.00     0.006 C 
ENDBRANCH   8   9
BRANCH   8  11
ATOM     11  C   LIG d   1       0.893  80.159 118.303  0.00  0.00     0.028 C 
ATOM     12  C   LIG d   1      -0.498  80.650 118.737  0.00  0.00     0.006 C 
ENDBRANCH   8  11
ENDBRANCH   7   8
ENDBRANCH   1   7
BRANCH   6  13
ATOM     13  N   LIG d   1      -0.944  75.536 116.912  0.00  0.00    -0.311 N 
ATOM     14  C   LIG d   1      -1.007  75.300 118.222  0.00  0.00     0.210 C 
ATOM     15  C   LIG d   1      -0.089  74.180 118.721  0.00  0.00     0.109 C 
ATOM     16  O   LIG d   1      -1.760  75.889 119.011  0.00  0.00    -0.276 OA
ATOM     17  H   LIG d   1      -0.330  74.989 116.341  0.00  0.00     0.149 HD
ENDBRANCH   6  13
BRANCH   5  18
ATOM     18  N   LIG d   1      -3.440  75.026 115.225  0.00  0.00     0.381 N 
ATOM     19  H   LIG d   1      -4.270  75.441 115.598  0.00  0.00    -0.090 HD
ATOM     20  H   LIG d   1      -3.070  74.391 115.910  0.00  0.00    -0.090 HD
ATOM     21  H   LIG d   1      -3.654  74.533 114.386  0.00  0.00    -0.090 HD
ENDBRANCH   5  18
BRANCH   3  22
ATOM     22  C   LIG d   1      -2.595  79.176 112.987  0.00  0.00     0.382 C 
ATOM     23  O   LIG d   1      -2.885  80.383 113.168  0.00  0.00    -0.241 OA
ATOM     24  O   LIG d   1      -2.588  78.713 111.831  0.00  0.00    -0.241 OA
ENDBRANCH   3  22
TORSDOF 7
ENDMDL
MODEL 5
REMARK VINA RESULT:      -4.1      2.525      5.203
REMARK  7 active torsions:
REMARK  status: ('A' for Active; 'I' for Inactive)
REMARK    1  A    between atoms: C_2  and  C_3 
REMARK    2  A    between atoms: C_3  and  O_6 
REMARK    3  A    between atoms: C_3  and  C_4 
REMARK    4  A    between atoms: C_7  and  O_6 
REMARK    5  A    between atoms: C_9  and  C_10 
REMARK    6  A    between atoms: N_15  and  C_14 
REMARK    7  A    between atoms: N_20  and  C_19 
REMARK       I    between atoms: C_22  and  N_20 
ROOT
ATOM      1  C   LIG d   1       1.325  80.229 113.633  0.00  0.00     0.161 C 
ATOM      2  C   LIG d   1       2.079  80.977 112.713  0.00  0.00     0.016 C 
ATOM      3  C   LIG d   1       1.668  81.214 111.381  0.00  0.00     0.038 C 
ATOM      4  C   LIG d   1       0.395  80.845 110.921  0.00  0.00     0.028 C 
ATOM      5  C   LIG d   1      -0.193  79.649 111.662  0.00  0.00    -0.047 C 
ATOM      6  C   LIG d   1      -0.116  79.913 113.183  0.00  0.00     0.091 C 
ENDROOT
BRANCH   1   7
ATOM      7  O   LIG d   1       1.316  80.894 114.912  0.00  0.00    -0.368 OA
BRANCH   7   8
ATOM      8  C   LIG d   1       2.279  80.418 115.884  0.00  0.00     0.119 C 
BRANCH   8   9
ATOM      9  C   LIG d   1       1.610  79.282 116.682  0.00  0.00     0.028 C 
ATOM     10  C   LIG d   1       0.431  79.780 117.536  0.00  0.00     0.006 C 
ENDBRANCH   8   9
BRANCH   8  11
ATOM     11  C   LIG d   1       2.609  81.499 116.918  0.00  0.00     0.028 C 
ATOM     12  C   LIG d   1       3.173  82.780 116.281  0.00  0.00     0.006 C 
ENDBRANCH   8  11
ENDBRANCH   7   8
ENDBRANCH   1   7
BRANCH   6  13
ATOM     13  N   LIG d   1      -0.594  78.756 113.984  0.00  0.00    -0.311 N 
ATOM     14  C   LIG d   1      -1.845  78.636 114.424  0.00  0.00     0.210 C 
ATOM     15  C   LIG d   1      -2.123  77.375 115.249  0.00  0.00     0.109 C 
ATOM     16  O   LIG d   1      -2.760  79.438 114.183  0.00  0.00    -0.276 OA
ATOM     17  H   LIG d   1       0.075  78.042 114.199  0.00  0.00     0.149 HD
ENDBRANCH   6  13
BRANCH   5  18
ATOM     18  N   LIG d   1      -1.573  79.460 111.177  0.00  0.00     0.381 N 
ATOM     19  H   LIG d   1      -1.558  79.073 110.254  0.00  0.00    -0.090 HD
ATOM     20  H   LIG d   1      -2.029  80.354 111.136  0.00  0.00    -0.090 HD
ATOM     21  H   LIG d   1      -2.070  78.853 111.791  0.00  0.00    -0.090 HD
ENDBRANCH   5  18
BRANCH   3  22
ATOM     22  C   LIG d   1       2.551  81.793 110.483  0.00  0.00     0.382 C 
ATOM     23  O   LIG d   1       2.114  82.488 109.534  0.00  0.00    -0.241 OA
ATOM     24  O   LIG d   1       3.776  81.593 110.583  0.00  0.00    -0.241 OA
ENDBRANCH   3  22
TORSDOF 7
ENDMDL
MODEL 6
REMARK VINA RESULT:      -4.1      5.263      6.893
REMARK  7 active torsions:
REMARK  status: ('A' for Active; 'I' for Inactive)
REMARK    1  A    between atoms: C_2  and  C_3 
REMARK    2  A    between atoms: C_3  and  O_6 
REMARK    3  A    between atoms: C_3  and  C_4 
REMARK    4  A    between atoms: C_7  and  O_6 
REMARK    5  A    between atoms: C_9  and  C_10 
REMARK    6  A    between atoms: N_15  and  C_14 
REMARK    7  A    between atoms: N_20  and  C_19 
REMARK       I    between atoms: C_22  and  N_20 
ROOT
ATOM      1  C   LIG d   1      -0.459  78.309 116.056  0.00  0.00     0.161 C 
ATOM      2  C   LIG d   1      -1.189  78.661 114.908  0.00  0.00     0.016 C 
ATOM      3  C   LIG d   1      -2.092  77.786 114.262  0.00  0.00     0.038 C 
ATOM      4  C   LIG d   1      -2.442  76.543 114.811  0.00  0.00     0.028 C 
ATOM      5  C   LIG d   1      -1.353  75.943 115.694  0.00  0.00    -0.047 C 
ATOM      6  C   LIG d   1      -0.911  76.998 116.733  0.00  0.00     0.091 C 
ENDROOT
BRANCH   1   7
ATOM      7  O   LIG d   1      -0.484  79.396 117.003  0.00  0.00    -0.368 OA
BRANCH   7   8
ATOM      8  C   LIG d   1       0.779  79.720 117.634  0.00  0.00     0.119 C 
BRANCH   8   9
ATOM      9  C   LIG d   1       0.674  81.162 118.166  0.00  0.00     0.028 C 
ATOM     10  C   LIG d   1       1.596  82.135 117.411  0.00  0.00     0.006 C 
ENDBRANCH   8   9
BRANCH   8  11
ATOM     11  C   LIG d   1       1.921  79.747 116.614  0.00  0.00     0.028 C 
ATOM     12  C   LIG d   1       3.076  78.803 116.987  0.00  0.00     0.006 C 
ENDBRANCH   8  11
ENDBRANCH   7   8
ENDBRANCH   1   7
BRANCH   6  13
ATOM     13  N   LIG d   1       0.210  76.522 117.584  0.00  0.00    -0.311 N 
ATOM     14  C   LIG d   1       0.035  75.930 118.764  0.00  0.00     0.210 C 
ATOM     15  C   LIG d   1       1.327  75.534 119.487  0.00  0.00     0.109 C 
ATOM     16  O   LIG d   1      -1.068  75.666 119.266  0.00  0.00    -0.276 OA
ATOM     17  H   LIG d   1       1.139  76.667 117.238  0.00  0.00     0.149 HD
ENDBRANCH   6  13
BRANCH   5  18
ATOM     18  N   LIG d   1      -1.902  74.720 116.309  0.00  0.00     0.381 N 
ATOM     19  H   LIG d   1      -2.845  74.882 116.603  0.00  0.00    -0.090 HD
ATOM     20  H   LIG d   1      -1.354  74.489 117.119  0.00  0.00    -0.090 HD
ATOM     21  H   LIG d   1      -1.875  73.968 115.656  0.00  0.00    -0.090 HD
ENDBRANCH   5  18
BRANCH   3  22
ATOM     22  C   LIG d   1      -2.625  78.135 113.030  0.00  0.00     0.382 C 
ATOM     23  O   LIG d   1      -2.681  77.287 112.108  0.00  0.00    -0.241 OA
ATOM     24  O   LIG d   1      -3.009  79.300 112.816  0.00  0.00    -0.241 OA
ENDBRANCH   3  22
TORSDOF 7
ENDMDL
MODEL 7
REMARK VINA RESULT:      -4.0      2.556      5.170
REMARK  7 active torsions:
REMARK  status: ('A' for Active; 'I' for Inactive)
REMARK    1  A    between atoms: C_2  and  C_3 
REMARK    2  A    between atoms: C_3  and  O_6 
REMARK    3  A    between atoms: C_3  and  C_4 
REMARK    4  A    between atoms: C_7  and  O_6 
REMARK    5  A    between atoms: C_9  and  C_10 
REMARK    6  A    between atoms: N_15  and  C_14 
REMARK    7  A    between atoms: N_20  and  C_19 
REMARK       I    between atoms: C_22  and  N_20 
ROOT
ATOM      1  C   LIG d   1       1.248  80.649 112.620  0.00  0.00     0.161 C 
ATOM      2  C   LIG d   1       1.599  81.901 112.087  0.00  0.00     0.016 C 
ATOM      3  C   LIG d   1       0.650  82.873 111.695  0.00  0.00     0.038 C 
ATOM      4  C   LIG d   1      -0.720  82.718 111.953  0.00  0.00     0.028 C 
ATOM      5  C   LIG d   1      -1.161  81.260 112.028  0.00  0.00    -0.047 C 
ATOM      6  C   LIG d   1      -0.237  80.506 113.012  0.00  0.00     0.091 C 
ENDROOT
BRANCH   1   7
ATOM      7  O   LIG d   1       2.095  80.344 113.746  0.00  0.00    -0.368 OA
BRANCH   7   8
ATOM      8  C   LIG d   1       1.606  80.764 115.043  0.00  0.00     0.119 C 
BRANCH   8   9
ATOM      9  C   LIG d   1       2.319  82.082 115.402  0.00  0.00     0.028 C 
ATOM     10  C   LIG d   1       2.011  82.545 116.836  0.00  0.00     0.006 C 
ENDBRANCH   8   9
BRANCH   8  11
ATOM     11  C   LIG d   1       2.011  79.773 116.139  0.00  0.00     0.028 C 
ATOM     12  C   LIG d   1       0.806  79.058 116.770  0.00  0.00     0.006 C 
ENDBRANCH   8  11
ENDBRANCH   7   8
ENDBRANCH   1   7
BRANCH   6  13
ATOM     13  N   LIG d   1      -0.547  79.054 113.080  0.00  0.00    -0.311 N 
ATOM     14  C   LIG d   1      -1.414  78.530 113.944  0.00  0.00     0.210 C 
ATOM     15  C   LIG d   1      -1.570  77.008 113.860  0.00  0.00     0.109 C 
ATOM     16  O   LIG d   1      -2.093  79.184 114.750  0.00  0.00    -0.276 OA
ATOM     17  H   LIG d   1      -0.064  78.454 112.441  0.00  0.00     0.149 HD
ENDBRANCH   6  13
BRANCH   5  18
ATOM     18  N   LIG d   1      -2.578  81.244 112.438  0.00  0.00     0.381 N 
ATOM     19  H   LIG d   1      -2.796  82.083 112.937  0.00  0.00    -0.090 HD
ATOM     20  H   LIG d   1      -2.730  80.463 113.052  0.00  0.00    -0.090 HD
ATOM     21  H   LIG d   1      -3.164  81.164 111.636  0.00  0.00    -0.090 HD
ENDBRANCH   5  18
BRANCH   3  22
ATOM     22  C   LIG d   1       1.066  83.999 111.002  0.00  0.00     0.382 C 
ATOM     23  O   LIG d   1       2.029  84.680 111.431  0.00  0.00    -0.241 OA
ATOM     24  O   LIG d   1       0.463  84.369 109.977  0.00  0.00    -0.241 OA
ENDBRANCH   3  22
TORSDOF 7
ENDMDL
MODEL 8
REMARK VINA RESULT:      -3.9      5.776      8.377
REMARK  7 active torsions:
REMARK  status: ('A' for Active; 'I' for Inactive)
REMARK    1  A    between atoms: C_2  and  C_3 
REMARK    2  A    between atoms: C_3  and  O_6 
REMARK    3  A    between atoms: C_3  and  C_4 
REMARK    4  A    between atoms: C_7  and  O_6 
REMARK    5  A    between atoms: C_9  and  C_10 
REMARK    6  A    between atoms: N_15  and  C_14 
REMARK    7  A    between atoms: N_20  and  C_19 
REMARK       I    between atoms: C_22  and  N_20 
ROOT
ATOM      1  C   LIG d   1       0.272  78.776 118.258  0.00  0.00     0.161 C 
ATOM      2  C   LIG d   1       0.632  80.031 117.739  0.00  0.00     0.016 C 
ATOM      3  C   LIG d   1       1.826  80.261 117.018  0.00  0.00     0.038 C 
ATOM      4  C   LIG d   1       2.675  79.212 116.634  0.00  0.00     0.028 C 
ATOM      5  C   LIG d   1       2.609  78.008 117.567  0.00  0.00    -0.047 C 
ATOM      6  C   LIG d   1       1.131  77.597 117.754  0.00  0.00     0.091 C 
ENDROOT
BRANCH   1   7
ATOM      7  O   LIG d   1      -1.124  78.525 118.003  0.00  0.00    -0.368 OA
BRANCH   7   8
ATOM      8  C   LIG d   1      -1.420  77.645 116.891  0.00  0.00     0.119 C 
BRANCH   8   9
ATOM      9  C   LIG d   1      -1.959  78.519 115.741  0.00  0.00     0.028 C 
ATOM     10  C   LIG d   1      -1.076  78.445 114.484  0.00  0.00     0.006 C 
ENDBRANCH   8   9
BRANCH   8  11
ATOM     11  C   LIG d   1      -2.557  76.678 117.232  0.00  0.00     0.028 C 
ATOM     12  C   LIG d   1      -2.463  75.352 116.461  0.00  0.00     0.006 C 
ENDBRANCH   8  11
ENDBRANCH   7   8
ENDBRANCH   1   7
BRANCH   6  13
ATOM     13  N   LIG d   1       0.970  76.479 118.720  0.00  0.00    -0.311 N 
ATOM     14  C   LIG d   1       0.864  75.203 118.353  0.00  0.00     0.210 C 
ATOM     15  C   LIG d   1       0.686  74.211 119.507  0.00  0.00     0.109 C 
ATOM     16  O   LIG d   1       0.932  74.795 117.184  0.00  0.00    -0.276 OA
ATOM     17  H   LIG d   1       0.936  76.717 119.692  0.00  0.00     0.149 HD
ENDBRANCH   6  13
BRANCH   5  18
ATOM     18  N   LIG d   1       3.436  76.939 116.975  0.00  0.00     0.381 N 
ATOM     19  H   LIG d   1       4.212  76.741 117.573  0.00  0.00    -0.090 HD
ATOM     20  H   LIG d   1       3.792  77.256 116.090  0.00  0.00    -0.090 HD
ATOM     21  H   LIG d   1       2.888  76.117 116.845  0.00  0.00    -0.090 HD
ENDBRANCH   5  18
BRANCH   3  22
ATOM     22  C   LIG d   1       2.202  81.559 116.707  0.00  0.00     0.382 C 
ATOM     23  O   LIG d   1       3.333  81.783 116.211  0.00  0.00    -0.241 OA
ATOM     24  O   LIG d   1       1.442  82.514 116.957  0.00  0.00    -0.241 OA
ENDBRANCH   3  22
TORSDOF 7
ENDMDL
MODEL 9
REMARK VINA RESULT:      -3.8      3.034      4.758
REMARK  7 active torsions:
REMARK  status: ('A' for Active; 'I' for Inactive)
REMARK    1  A    between atoms: C_2  and  C_3 
REMARK    2  A    between atoms: C_3  and  O_6 
REMARK    3  A    between atoms: C_3  and  C_4 
REMARK    4  A    between atoms: C_7  and  O_6 
REMARK    5  A    between atoms: C_9  and  C_10 
REMARK    6  A    between atoms: N_15  and  C_14 
REMARK    7  A    between atoms: N_20  and  C_19 
REMARK       I    between atoms: C_22  and  N_20 
ROOT
ATOM      1  C   LIG d   1       0.198  79.784 113.317  0.00  0.00     0.161 C 
ATOM      2  C   LIG d   1      -0.898  79.258 112.612  0.00  0.00     0.016 C 
ATOM      3  C   LIG d   1      -1.887  78.442 113.208  0.00  0.00     0.038 C 
ATOM      4  C   LIG d   1      -1.929  78.218 114.592  0.00  0.00     0.028 C 
ATOM      5  C   LIG d   1      -0.562  78.312 115.262  0.00  0.00    -0.047 C 
ATOM      6  C   LIG d   1       0.109  79.642 114.850  0.00  0.00     0.091 C 
ENDROOT
BRANCH   1   7
ATOM      7  O   LIG d   1       0.397  81.164 112.951  0.00  0.00    -0.368 OA
BRANCH   7   8
ATOM      8  C   LIG d   1       0.720  81.415 111.562  0.00  0.00     0.119 C 
BRANCH   8   9
ATOM      9  C   LIG d   1       2.032  80.669 111.249  0.00  0.00     0.028 C 
ATOM     10  C   LIG d   1       1.922  79.792 109.990  0.00  0.00     0.006 C 
ENDBRANCH   8   9
BRANCH   8  11
ATOM     11  C   LIG d   1       1.029  82.896 111.320  0.00  0.00     0.028 C 
ATOM     12  C   LIG d   1      -0.086  83.618 110.547  0.00  0.00     0.006 C 
ENDBRANCH   8  11
ENDBRANCH   7   8
ENDBRANCH   1   7
BRANCH   6  13
ATOM     13  N   LIG d   1       1.485  79.776 115.395  0.00  0.00    -0.311 N 
ATOM     14  C   LIG d   1       1.761  80.377 116.551  0.00  0.00     0.210 C 
ATOM     15  C   LIG d   1       3.247  80.422 116.918  0.00  0.00     0.109 C 
ATOM     16  O   LIG d   1       0.912  80.848 117.324  0.00  0.00    -0.276 OA
ATOM     17  H   LIG d   1       2.231  79.393 114.848  0.00  0.00     0.149 HD
ENDBRANCH   6  13
BRANCH   5  18
ATOM     18  N   LIG d   1      -0.771  78.196 116.718  0.00  0.00     0.381 N 
ATOM     19  H   LIG d   1      -0.346  78.972 117.184  0.00  0.00    -0.090 HD
ATOM     20  H   LIG d   1      -0.330  77.353 117.043  0.00  0.00    -0.090 HD
ATOM     21  H   LIG d   1      -1.746  78.169 116.921  0.00  0.00    -0.090 HD
ENDBRANCH   5  18
BRANCH   3  22
ATOM     22  C   LIG d   1      -2.826  77.806 112.409  0.00  0.00     0.382 C 
ATOM     23  O   LIG d   1      -3.094  78.264 111.272  0.00  0.00    -0.241 OA
ATOM     24  O   LIG d   1      -3.440  76.807 112.829  0.00  0.00    -0.241 OA
ENDBRANCH   3  22
TORSDOF 7
ENDMDL
