MODEL 1
REMARK VINA RESULT:      -5.5      0.000      0.000
REMARK  7 active torsions:
REMARK  status: ('A' for Active; 'I' for Inactive)
REMARK    1  A    between atoms: C_2  and  C_3 
REMARK    2  A    between atoms: C_3  and  O_6 
REMARK    3  A    between atoms: C_3  and  C_4 
REMARK    4  A    between atoms: C_7  and  O_6 
REMARK    5  A    between atoms: C_9  and  C_10 
REMARK    6  A    between atoms: N_15  and  C_14 
REMARK    7  A    between atoms: N_20  and  C_19 
REMARK       I    between atoms: C_22  and  N_20 
ROOT
ATOM      1  C   LIG d   1       0.453  83.613 112.137  0.00  0.00     0.161 C 
ATOM      2  C   LIG d   1      -0.761  83.117 112.642  0.00  0.00     0.016 C 
ATOM      3  C   LIG d   1      -1.196  81.785 112.454  0.00  0.00     0.038 C 
ATOM      4  C   LIG d   1      -0.371  80.811 111.874  0.00  0.00     0.028 C 
ATOM      5  C   LIG d   1       0.654  81.385 110.901  0.00  0.00    -0.047 C 
ATOM      6  C   LIG d   1       1.417  82.536 111.598  0.00  0.00     0.091 C 
ENDROOT
BRANCH   1   7
ATOM      7  O   LIG d   1       1.108  84.414 113.140  0.00  0.00    -0.368 OA
BRANCH   7   8
ATOM      8  C   LIG d   1       1.364  83.764 114.409  0.00  0.00     0.119 C 
BRANCH   8   9
ATOM      9  C   LIG d   1       0.674  84.598 115.505  0.00  0.00     0.028 C 
ATOM     10  C   LIG d   1      -0.525  83.867 116.132  0.00  0.00     0.006 C 
ENDBRANCH   8   9
BRANCH   8  11
ATOM     11  C   LIG d   1       2.855  83.790 114.757  0.00  0.00     0.028 C 
ATOM     12  C   LIG d   1       3.674  84.679 113.807  0.00  0.00     0.006 C 
ENDBRANCH   8  11
ENDBRANCH   7   8
ENDBRANCH   1   7
BRANCH   6  13
ATOM     13  N   LIG d   1       2.380  83.209 110.688  0.00  0.00    -0.311 N 
ATOM     14  C   LIG d   1       3.618  82.766 110.473  0.00  0.00     0.210 C 
ATOM     15  C   LIG d   1       4.453  83.620 109.515  0.00  0.00     0.109 C 
ATOM     16  O   LIG d   1       4.092  81.729 110.960  0.00  0.00    -0.276 OA
ATOM     17  H   LIG d   1       2.067  84.041 110.227  0.00  0.00     0.149 HD
ENDBRANCH   6  13
BRANCH   5  18
ATOM     18  N   LIG d   1       1.535  80.281 110.477  0.00  0.00     0.381 N 
ATOM     19  H   LIG d   1       2.230  80.625 109.846  0.00  0.00    -0.090 HD
ATOM     20  H   LIG d   1       0.984  79.593 109.995  0.00  0.00    -0.090 HD
ATOM     21  H   LIG d   1       1.972  79.869 111.272  0.00  0.00    -0.090 HD
ENDBRANCH   5  18
BRANCH   3  22
ATOM     22  C   LIG d   1      -2.486  81.426 112.813  0.00  0.00     0.382 C 
ATOM     23  O   LIG d   1      -2.694  80.841 113.903  0.00  0.00    -0.241 OA
ATOM     24  O   LIG d   1      -3.440  81.641 112.041  0.00  0.00    -0.241 OA
ENDBRANCH   3  22
TORSDOF 7
ENDMDL
MODEL 2
REMARK VINA RESULT:      -5.3      1.918      4.875
REMARK  7 active torsions:
REMARK  status: ('A' for Active; 'I' for Inactive)
REMARK    1  A    between atoms: C_2  and  C_3 
REMARK    2  A    between atoms: C_3  and  O_6 
REMARK    3  A    between atoms: C_3  and  C_4 
REMARK    4  A    between atoms: C_7  and  O_6 
REMARK    5  A    between atoms: C_9  and  C_10 
REMARK    6  A    between atoms: N_15  and  C_14 
REMARK    7  A    between atoms: N_20  and  C_19 
REMARK       I    between atoms: C_22  and  N_20 
ROOT
ATOM      1  C   LIG d   1       0.633  81.870 112.753  0.00  0.00     0.161 C 
ATOM      2  C   LIG d   1       1.590  82.758 112.234  0.00  0.00     0.016 C 
ATOM      3  C   LIG d   1       2.030  82.731 110.891  0.00  0.00     0.038 C 
ATOM      4  C   LIG d   1       1.428  81.906 109.930  0.00  0.00     0.028 C 
ATOM      5  C   LIG d   1       0.810  80.642 110.519  0.00  0.00    -0.047 C 
ATOM      6  C   LIG d   1      -0.116  81.036 111.692  0.00  0.00     0.091 C 
ENDROOT
BRANCH   1   7
ATOM      7  O   LIG d   1      -0.304  82.590 113.578  0.00  0.00    -0.368 OA
BRANCH   7   8
ATOM      8  C   LIG d   1      -0.107  82.481 115.009  0.00  0.00     0.119 C 
BRANCH   8   9
ATOM      9  C   LIG d   1      -1.342  81.768 115.594  0.00  0.00     0.028 C 
ATOM     10  C   LIG d   1      -2.639  82.566 115.374  0.00  0.00     0.006 C 
ENDBRANCH   8   9
BRANCH   8  11
ATOM     11  C   LIG d   1      -0.082  83.860 115.675  0.00  0.00     0.028 C 
ATOM     12  C   LIG d   1       0.523  83.830 117.087  0.00  0.00     0.006 C 
ENDBRANCH   8  11
ENDBRANCH   7   8
ENDBRANCH   1   7
BRANCH   6  13
ATOM     13  N   LIG d   1      -0.696  79.853 112.379  0.00  0.00    -0.311 N 
ATOM     14  C   LIG d   1      -1.993  79.729 112.657  0.00  0.00     0.210 C 
ATOM     15  C   LIG d   1      -2.377  78.439 113.388  0.00  0.00     0.109 C 
ATOM     16  O   LIG d   1      -2.866  80.551 112.340  0.00  0.00    -0.276 OA
ATOM     17  H   LIG d   1      -0.063  79.123 112.644  0.00  0.00     0.149 HD
ENDBRANCH   6  13
BRANCH   5  18
ATOM     18  N   LIG d   1       0.099  79.945 109.431  0.00  0.00     0.381 N 
ATOM     19  H   LIG d   1       0.625  79.145 109.141  0.00  0.00    -0.090 HD
ATOM     20  H   LIG d   1       0.014  80.567 108.647  0.00  0.00    -0.090 HD
ATOM     21  H   LIG d   1      -0.805  79.663 109.740  0.00  0.00    -0.090 HD
ENDBRANCH   5  18
BRANCH   3  22
ATOM     22  C   LIG d   1       3.112  83.508 110.506  0.00  0.00     0.382 C 
ATOM     23  O   LIG d   1       2.958  84.423 109.661  0.00  0.00    -0.241 OA
ATOM     24  O   LIG d   1       4.249  83.278 110.961  0.00  0.00    -0.241 OA
ENDBRANCH   3  22
TORSDOF 7
ENDMDL
MODEL 3
REMARK VINA RESULT:      -4.9      2.145      5.110
REMARK  7 active torsions:
REMARK  status: ('A' for Active; 'I' for Inactive)
REMARK    1  A    between atoms: C_2  and  C_3 
REMARK    2  A    between atoms: C_3  and  O_6 
REMARK    3  A    between atoms: C_3  and  C_4 
REMARK    4  A    between atoms: C_7  and  O_6 
REMARK    5  A    between atoms: C_9  and  C_10 
REMARK    6  A    between atoms: N_15  and  C_14 
REMARK    7  A    between atoms: N_20  and  C_19 
REMARK       I    between atoms: C_22  and  N_20 
ROOT
ATOM      1  C   LIG d   1       1.024  81.775 114.313  0.00  0.00     0.161 C 
ATOM      2  C   LIG d   1       1.893  82.711 113.728  0.00  0.00     0.016 C 
ATOM      3  C   LIG d   1       1.969  82.938 112.334  0.00  0.00     0.038 C 
ATOM      4  C   LIG d   1       1.067  82.347 111.437  0.00  0.00     0.028 C 
ATOM      5  C   LIG d   1       0.507  81.017 111.928  0.00  0.00    -0.047 C 
ATOM      6  C   LIG d   1      -0.046  81.203 113.359  0.00  0.00     0.091 C 
ENDROOT
BRANCH   1   7
ATOM      7  O   LIG d   1       0.400  82.350 115.478  0.00  0.00    -0.368 OA
BRANCH   7   8
ATOM      8  C   LIG d   1      -0.614  83.355 115.228  0.00  0.00     0.119 C 
BRANCH   8   9
ATOM      9  C   LIG d   1      -0.135  84.667 115.878  0.00  0.00     0.028 C 
ATOM     10  C   LIG d   1       0.933  84.431 116.960  0.00  0.00     0.006 C 
ENDBRANCH   8   9
BRANCH   8  11
ATOM     11  C   LIG d   1      -1.928  83.008 115.935  0.00  0.00     0.028 C 
ATOM     12  C   LIG d   1      -1.775  81.860 116.946  0.00  0.00     0.006 C 
ENDBRANCH   8  11
ENDBRANCH   7   8
ENDBRANCH   1   7
BRANCH   6  13
ATOM     13  N   LIG d   1      -0.537  79.929 113.947  0.00  0.00    -0.311 N 
ATOM     14  C   LIG d   1      -1.820  79.573 113.958  0.00  0.00     0.210 C 
ATOM     15  C   LIG d   1      -2.113  78.229 114.632  0.00  0.00     0.109 C 
ATOM     16  O   LIG d   1      -2.740  80.228 113.446  0.00  0.00    -0.276 OA
ATOM     17  H   LIG d   1       0.147  79.323 114.358  0.00  0.00     0.149 HD
ENDBRANCH   6  13
BRANCH   5  18
ATOM     18  N   LIG d   1      -0.520  80.582 110.963  0.00  0.00     0.381 N 
ATOM     19  H   LIG d   1      -0.082  80.173 110.162  0.00  0.00    -0.090 HD
ATOM     20  H   LIG d   1      -1.043  81.385 110.660  0.00  0.00    -0.090 HD
ATOM     21  H   LIG d   1      -1.131  79.921 111.390  0.00  0.00    -0.090 HD
ENDBRANCH   5  18
BRANCH   3  22
ATOM     22  C   LIG d   1       2.983  83.733 111.822  0.00  0.00     0.382 C 
ATOM     23  O   LIG d   1       3.007  84.006 110.597  0.00  0.00    -0.241 OA
ATOM     24  O   LIG d   1       3.898  84.143 112.560  0.00  0.00    -0.241 OA
ENDBRANCH   3  22
TORSDOF 7
ENDMDL
MODEL 4
REMARK VINA RESULT:      -4.9      2.075      4.930
REMARK  7 active torsions:
REMARK  status: ('A' for Active; 'I' for Inactive)
REMARK    1  A    between atoms: C_2  and  C_3 
REMARK    2  A    between atoms: C_3  and  O_6 
REMARK    3  A    between atoms: C_3  and  C_4 
REMARK    4  A    between atoms: C_7  and  O_6 
REMARK    5  A    between atoms: C_9  and  C_10 
REMARK    6  A    between atoms: N_15  and  C_14 
REMARK    7  A    between atoms: N_20  and  C_19 
REMARK       I    between atoms: C_22  and  N_20 
ROOT
ATOM      1  C   LIG d   1       0.757  81.298 113.843  0.00  0.00     0.161 C 
ATOM      2  C   LIG d   1       1.704  82.324 113.999  0.00  0.00     0.016 C 
ATOM      3  C   LIG d   1       2.040  83.236 112.972  0.00  0.00     0.038 C 
ATOM      4  C   LIG d   1       1.336  83.279 111.759  0.00  0.00     0.028 C 
ATOM      5  C   LIG d   1       0.718  81.940 111.370  0.00  0.00    -0.047 C 
ATOM      6  C   LIG d   1      -0.100  81.399 112.565  0.00  0.00     0.091 C 
ENDROOT
BRANCH   1   7
ATOM      7  O   LIG d   1      -0.087  81.232 115.009  0.00  0.00    -0.368 OA
BRANCH   7   8
ATOM      8  C   LIG d   1       0.090  82.288 115.986  0.00  0.00     0.119 C 
BRANCH   8   9
ATOM      9  C   LIG d   1       0.297  81.618 117.358  0.00  0.00     0.028 C 
ATOM     10  C   LIG d   1      -0.680  82.146 118.422  0.00  0.00     0.006 C 
ENDBRANCH   8   9
BRANCH   8  11
ATOM     11  C   LIG d   1      -1.180  83.130 116.133  0.00  0.00     0.028 C 
ATOM     12  C   LIG d   1      -1.146  84.413 115.288  0.00  0.00     0.006 C 
ENDBRANCH   8  11
ENDBRANCH   7   8
ENDBRANCH   1   7
BRANCH   6  13
ATOM     13  N   LIG d   1      -0.670  80.052 112.298  0.00  0.00    -0.311 N 
ATOM     14  C   LIG d   1      -1.962  79.762 112.438  0.00  0.00     0.210 C 
ATOM     15  C   LIG d   1      -2.335  78.308 112.131  0.00  0.00     0.109 C 
ATOM     16  O   LIG d   1      -2.840  80.578 112.756  0.00  0.00    -0.276 OA
ATOM     17  H   LIG d   1      -0.033  79.337 112.005  0.00  0.00     0.149 HD
ENDBRANCH   6  13
BRANCH   5  18
ATOM     18  N   LIG d   1      -0.098  82.160 110.162  0.00  0.00     0.381 N 
ATOM     19  H   LIG d   1       0.258  82.942 109.650  0.00  0.00    -0.090 HD
ATOM     20  H   LIG d   1      -1.041  82.368 110.440  0.00  0.00    -0.090 HD
ATOM     21  H   LIG d   1      -0.086  81.345 109.589  0.00  0.00    -0.090 HD
ENDBRANCH   5  18
BRANCH   3  22
ATOM     22  C   LIG d   1       3.117  84.093 113.139  0.00  0.00     0.382 C 
ATOM     23  O   LIG d   1       3.288  84.680 114.235  0.00  0.00    -0.241 OA
ATOM     24  O   LIG d   1       3.895  84.321 112.193  0.00  0.00    -0.241 OA
ENDBRANCH   3  22
TORSDOF 7
ENDMDL
MODEL 5
REMARK VINA RESULT:      -4.9      2.603      3.709
REMARK  7 active torsions:
REMARK  status: ('A' for Active; 'I' for Inactive)
REMARK    1  A    between atoms: C_2  and  C_3 
REMARK    2  A    between atoms: C_3  and  O_6 
REMARK    3  A    between atoms: C_3  and  C_4 
REMARK    4  A    between atoms: C_7  and  O_6 
REMARK    5  A    between atoms: C_9  and  C_10 
REMARK    6  A    between atoms: N_15  and  C_14 
REMARK    7  A    between atoms: N_20  and  C_19 
REMARK       I    between atoms: C_22  and  N_20 
ROOT
ATOM      1  C   LIG d   1      -1.706  81.218 113.885  0.00  0.00     0.161 C 
ATOM      2  C   LIG d   1      -2.177  80.065 114.535  0.00  0.00     0.016 C 
ATOM      3  C   LIG d   1      -2.110  78.771 113.968  0.00  0.00     0.038 C 
ATOM      4  C   LIG d   1      -1.426  78.521 112.769  0.00  0.00     0.028 C 
ATOM      5  C   LIG d   1      -1.378  79.726 111.837  0.00  0.00    -0.047 C 
ATOM      6  C   LIG d   1      -0.857  80.950 112.625  0.00  0.00     0.091 C 
ENDROOT
BRANCH   1   7
ATOM      7  O   LIG d   1      -0.975  82.040 114.817  0.00  0.00    -0.368 OA
BRANCH   7   8
ATOM      8  C   LIG d   1      -1.772  82.878 115.689  0.00  0.00     0.119 C 
BRANCH   8   9
ATOM      9  C   LIG d   1      -1.189  84.303 115.621  0.00  0.00     0.028 C 
ATOM     10  C   LIG d   1      -0.360  84.538 114.347  0.00  0.00     0.006 C 
ENDBRANCH   8   9
BRANCH   8  11
ATOM     11  C   LIG d   1      -1.631  82.451 117.153  0.00  0.00     0.028 C 
ATOM     12  C   LIG d   1      -0.291  82.881 117.772  0.00  0.00     0.006 C 
ENDBRANCH   8  11
ENDBRANCH   7   8
ENDBRANCH   1   7
BRANCH   6  13
ATOM     13  N   LIG d   1      -0.858  82.192 111.809  0.00  0.00    -0.311 N 
ATOM     14  C   LIG d   1       0.193  82.609 111.106  0.00  0.00     0.210 C 
ATOM     15  C   LIG d   1      -0.014  83.925 110.351  0.00  0.00     0.109 C 
ATOM     16  O   LIG d   1       1.267  81.996 111.010  0.00  0.00    -0.276 OA
ATOM     17  H   LIG d   1      -1.700  82.734 111.805  0.00  0.00     0.149 HD
ENDBRANCH   6  13
BRANCH   5  18
ATOM     18  N   LIG d   1      -0.520  79.369 110.691  0.00  0.00     0.381 N 
ATOM     19  H   LIG d   1       0.362  79.834 110.770  0.00  0.00    -0.090 HD
ATOM     20  H   LIG d   1      -0.964  79.678 109.844  0.00  0.00    -0.090 HD
ATOM     21  H   LIG d   1      -0.382  78.383 110.662  0.00  0.00    -0.090 HD
ENDBRANCH   5  18
BRANCH   3  22
ATOM     22  C   LIG d   1      -2.766  77.716 114.585  0.00  0.00     0.382 C 
ATOM     23  O   LIG d   1      -2.648  77.541 115.821  0.00  0.00    -0.241 OA
ATOM     24  O   LIG d   1      -3.439  76.912 113.912  0.00  0.00    -0.241 OA
ENDBRANCH   3  22
TORSDOF 7
ENDMDL
MODEL 6
REMARK VINA RESULT:      -4.7      1.785      2.158
REMARK  7 active torsions:
REMARK  status: ('A' for Active; 'I' for Inactive)
REMARK    1  A    between atoms: C_2  and  C_3 
REMARK    2  A    between atoms: C_3  and  O_6 
REMARK    3  A    between atoms: C_3  and  C_4 
REMARK    4  A    between atoms: C_7  and  O_6 
REMARK    5  A    between atoms: C_9  and  C_10 
REMARK    6  A    between atoms: N_15  and  C_14 
REMARK    7  A    between atoms: N_20  and  C_19 
REMARK       I    between atoms: C_22  and  N_20 
ROOT
ATOM      1  C   LIG d   1       1.435  82.235 113.205  0.00  0.00     0.161 C 
ATOM      2  C   LIG d   1       0.203  81.934 113.810  0.00  0.00     0.016 C 
ATOM      3  C   LIG d   1      -0.924  81.471 113.092  0.00  0.00     0.038 C 
ATOM      4  C   LIG d   1      -0.849  81.133 111.733  0.00  0.00     0.028 C 
ATOM      5  C   LIG d   1       0.231  81.898 110.976  0.00  0.00    -0.047 C 
ATOM      6  C   LIG d   1       1.568  81.766 111.741  0.00  0.00     0.091 C 
ENDROOT
BRANCH   1   7
ATOM      7  O   LIG d   1       2.513  81.705 114.001  0.00  0.00    -0.368 OA
BRANCH   7   8
ATOM      8  C   LIG d   1       2.500  82.056 115.407  0.00  0.00     0.119 C 
BRANCH   8   9
ATOM      9  C   LIG d   1       3.037  83.495 115.529  0.00  0.00     0.028 C 
ATOM     10  C   LIG d   1       2.101  84.405 116.342  0.00  0.00     0.006 C 
ENDBRANCH   8   9
BRANCH   8  11
ATOM     11  C   LIG d   1       3.477  81.190 116.207  0.00  0.00     0.028 C 
ATOM     12  C   LIG d   1       2.822  80.530 117.431  0.00  0.00     0.006 C 
ENDBRANCH   8  11
ENDBRANCH   7   8
ENDBRANCH   1   7
BRANCH   6  13
ATOM     13  N   LIG d   1       2.660  82.556 111.114  0.00  0.00    -0.311 N 
ATOM     14  C   LIG d   1       3.539  82.039 110.256  0.00  0.00     0.210 C 
ATOM     15  C   LIG d   1       4.596  83.022 109.743  0.00  0.00     0.109 C 
ATOM     16  O   LIG d   1       3.524  80.868 109.847  0.00  0.00    -0.276 OA
ATOM     17  H   LIG d   1       2.727  83.522 111.366  0.00  0.00     0.149 HD
ENDBRANCH   6  13
BRANCH   5  18
ATOM     18  N   LIG d   1       0.291  81.349 109.608  0.00  0.00     0.381 N 
ATOM     19  H   LIG d   1       0.146  82.082 108.943  0.00  0.00    -0.090 HD
ATOM     20  H   LIG d   1      -0.443  80.672 109.497  0.00  0.00    -0.090 HD
ATOM     21  H   LIG d   1       1.176  80.919 109.452  0.00  0.00    -0.090 HD
ENDBRANCH   5  18
BRANCH   3  22
ATOM     22  C   LIG d   1      -2.153  81.381 113.727  0.00  0.00     0.382 C 
ATOM     23  O   LIG d   1      -2.665  80.257 113.947  0.00  0.00    -0.241 OA
ATOM     24  O   LIG d   1      -2.778  82.411 114.043  0.00  0.00    -0.241 OA
ENDBRANCH   3  22
TORSDOF 7
ENDMDL
MODEL 7
REMARK VINA RESULT:      -4.5      2.346      5.107
REMARK  7 active torsions:
REMARK  status: ('A' for Active; 'I' for Inactive)
REMARK    1  A    between atoms: C_2  and  C_3 
REMARK    2  A    between atoms: C_3  and  O_6 
REMARK    3  A    between atoms: C_3  and  C_4 
REMARK    4  A    between atoms: C_7  and  O_6 
REMARK    5  A    between atoms: C_9  and  C_10 
REMARK    6  A    between atoms: N_15  and  C_14 
REMARK    7  A    between atoms: N_20  and  C_19 
REMARK       I    between atoms: C_22  and  N_20 
ROOT
ATOM      1  C   LIG d   1       0.838  82.105 114.015  0.00  0.00     0.161 C 
ATOM      2  C   LIG d   1       1.797  82.005 112.993  0.00  0.00     0.016 C 
ATOM      3  C   LIG d   1       1.544  81.389 111.746  0.00  0.00     0.038 C 
ATOM      4  C   LIG d   1       0.259  80.963 111.377  0.00  0.00     0.028 C 
ATOM      5  C   LIG d   1      -0.619  80.588 112.565  0.00  0.00    -0.047 C 
ATOM      6  C   LIG d   1      -0.600  81.746 113.589  0.00  0.00     0.091 C 
ENDROOT
BRANCH   1   7
ATOM      7  O   LIG d   1       0.875  83.426 114.591  0.00  0.00    -0.368 OA
BRANCH   7   8
ATOM      8  C   LIG d   1       1.472  83.531 115.907  0.00  0.00     0.119 C 
BRANCH   8   9
ATOM      9  C   LIG d   1       1.817  82.103 116.374  0.00  0.00     0.028 C 
ATOM     10  C   LIG d   1       3.312  81.936 116.692  0.00  0.00     0.006 C 
ENDBRANCH   8   9
BRANCH   8  11
ATOM     11  C   LIG d   1       0.466  84.061 116.934  0.00  0.00     0.028 C 
ATOM     12  C   LIG d   1      -0.068  82.963 117.867  0.00  0.00     0.006 C 
ENDBRANCH   8  11
ENDBRANCH   7   8
ENDBRANCH   1   7
BRANCH   6  13
ATOM     13  N   LIG d   1      -1.368  81.427 114.821  0.00  0.00    -0.311 N 
ATOM     14  C   LIG d   1      -2.529  82.001 115.131  0.00  0.00     0.210 C 
ATOM     15  C   LIG d   1      -3.143  81.542 116.457  0.00  0.00     0.109 C 
ATOM     16  O   LIG d   1      -3.124  82.823 114.418  0.00  0.00    -0.276 OA
ATOM     17  H   LIG d   1      -0.973  80.747 115.441  0.00  0.00     0.149 HD
ENDBRANCH   6  13
BRANCH   5  18
ATOM     18  N   LIG d   1      -1.969  80.296 112.047  0.00  0.00     0.381 N 
ATOM     19  H   LIG d   1      -2.643  80.401 112.779  0.00  0.00    -0.090 HD
ATOM     20  H   LIG d   1      -1.996  79.344 111.727  0.00  0.00    -0.090 HD
ATOM     21  H   LIG d   1      -2.186  80.913 111.295  0.00  0.00    -0.090 HD
ENDBRANCH   5  18
BRANCH   3  22
ATOM     22  C   LIG d   1       2.592  81.157 110.868  0.00  0.00     0.382 C 
ATOM     23  O   LIG d   1       2.435  80.382 109.895  0.00  0.00    -0.241 OA
ATOM     24  O   LIG d   1       3.706  81.680 111.063  0.00  0.00    -0.241 OA
ENDBRANCH   3  22
TORSDOF 7
ENDMDL
MODEL 8
REMARK VINA RESULT:      -4.1      1.884      2.230
REMARK  7 active torsions:
REMARK  status: ('A' for Active; 'I' for Inactive)
REMARK    1  A    between atoms: C_2  and  C_3 
REMARK    2  A    between atoms: C_3  and  O_6 
REMARK    3  A    between atoms: C_3  and  C_4 
REMARK    4  A    between atoms: C_7  and  O_6 
REMARK    5  A    between atoms: C_9  and  C_10 
REMARK    6  A    between atoms: N_15  and  C_14 
REMARK    7  A    between atoms: N_20  and  C_19 
REMARK       I    between atoms: C_22  and  N_20 
ROOT
ATOM      1  C   LIG d   1       1.086  82.328 113.804  0.00  0.00     0.161 C 
ATOM      2  C   LIG d   1      -0.068  81.669 114.260  0.00  0.00     0.016 C 
ATOM      3  C   LIG d   1      -1.177  81.380 113.432  0.00  0.00     0.038 C 
ATOM      4  C   LIG d   1      -1.144  81.597 112.046  0.00  0.00     0.028 C 
ATOM      5  C   LIG d   1      -0.200  82.720 111.631  0.00  0.00    -0.047 C 
ATOM      6  C   LIG d   1       1.185  82.473 112.271  0.00  0.00     0.091 C 
ENDROOT
BRANCH   1   7
ATOM      7  O   LIG d   1       2.260  81.672 114.323  0.00  0.00    -0.368 OA
BRANCH   7   8
ATOM      8  C   LIG d   1       2.975  82.377 115.367  0.00  0.00     0.119 C 
BRANCH   8   9
ATOM      9  C   LIG d   1       3.157  81.400 116.544  0.00  0.00     0.028 C 
ATOM     10  C   LIG d   1       1.866  81.217 117.360  0.00  0.00     0.006 C 
ENDBRANCH   8   9
BRANCH   8  11
ATOM     11  C   LIG d   1       2.145  83.536 115.926  0.00  0.00     0.028 C 
ATOM     12  C   LIG d   1       3.012  84.659 116.518  0.00  0.00     0.006 C 
ENDBRANCH   8  11
ENDBRANCH   7   8
ENDBRANCH   1   7
BRANCH   6  13
ATOM     13  N   LIG d   1       2.146  83.570 111.985  0.00  0.00    -0.311 N 
ATOM     14  C   LIG d   1       3.312  83.382 111.369  0.00  0.00     0.210 C 
ATOM     15  C   LIG d   1       4.160  84.645 111.190  0.00  0.00     0.109 C 
ATOM     16  O   LIG d   1       3.709  82.294 110.925  0.00  0.00    -0.276 OA
ATOM     17  H   LIG d   1       1.889  84.491 112.283  0.00  0.00     0.149 HD
ENDBRANCH   6  13
BRANCH   5  18
ATOM     18  N   LIG d   1      -0.159  82.746 110.157  0.00  0.00     0.381 N 
ATOM     19  H   LIG d   1      -0.329  83.677 109.830  0.00  0.00    -0.090 HD
ATOM     20  H   LIG d   1      -0.885  82.150 109.801  0.00  0.00    -0.090 HD
ATOM     21  H   LIG d   1       0.729  82.430 109.835  0.00  0.00    -0.090 HD
ENDBRANCH   5  18
BRANCH   3  22
ATOM     22  C   LIG d   1      -2.351  80.904 113.996  0.00  0.00     0.382 C 
ATOM     23  O   LIG d   1      -2.953  81.586 114.860  0.00  0.00    -0.241 OA
ATOM     24  O   LIG d   1      -2.791  79.781 113.685  0.00  0.00    -0.241 OA
ENDBRANCH   3  22
TORSDOF 7
ENDMDL
MODEL 9
REMARK VINA RESULT:      -4.1      4.479      6.947
REMARK  7 active torsions:
REMARK  status: ('A' for Active; 'I' for Inactive)
REMARK    1  A    between atoms: C_2  and  C_3 
REMARK    2  A    between atoms: C_3  and  O_6 
REMARK    3  A    between atoms: C_3  and  C_4 
REMARK    4  A    between atoms: C_7  and  O_6 
REMARK    5  A    between atoms: C_9  and  C_10 
REMARK    6  A    between atoms: N_15  and  C_14 
REMARK    7  A    between atoms: N_20  and  C_19 
REMARK       I    between atoms: C_22  and  N_20 
ROOT
ATOM      1  C   LIG d   1      -2.158  80.042 115.991  0.00  0.00     0.161 C 
ATOM      2  C   LIG d   1      -2.468  80.667 114.771  0.00  0.00     0.016 C 
ATOM      3  C   LIG d   1      -1.509  81.330 113.971  0.00  0.00     0.038 C 
ATOM      4  C   LIG d   1      -0.138  81.282 114.265  0.00  0.00     0.028 C 
ATOM      5  C   LIG d   1       0.158  81.094 115.749  0.00  0.00    -0.047 C 
ATOM      6  C   LIG d   1      -0.649  79.884 116.272  0.00  0.00     0.091 C 
ENDROOT
BRANCH   1   7
ATOM      7  O   LIG d   1      -2.819  78.763 116.066  0.00  0.00    -0.368 OA
BRANCH   7   8
ATOM      8  C   LIG d   1      -2.086  77.635 115.528  0.00  0.00     0.119 C 
BRANCH   8   9
ATOM      9  C   LIG d   1      -2.795  77.197 114.232  0.00  0.00     0.028 C 
ATOM     10  C   LIG d   1      -2.084  77.716 112.971  0.00  0.00     0.006 C 
ENDBRANCH   8   9
BRANCH   8  11
ATOM     11  C   LIG d   1      -2.164  76.423 116.462  0.00  0.00     0.028 C 
ATOM     12  C   LIG d   1      -2.554  75.130 115.729  0.00  0.00     0.006 C 
ENDBRANCH   8  11
ENDBRANCH   7   8
ENDBRANCH   1   7
BRANCH   6  13
ATOM     13  N   LIG d   1      -0.483  79.681 117.735  0.00  0.00    -0.311 N 
ATOM     14  C   LIG d   1       0.369  78.803 118.261  0.00  0.00     0.210 C 
ATOM     15  C   LIG d   1       0.369  78.739 119.791  0.00  0.00     0.109 C 
ATOM     16  O   LIG d   1       1.148  78.094 117.606  0.00  0.00    -0.276 OA
ATOM     17  H   LIG d   1      -1.054  80.238 118.340  0.00  0.00     0.149 HD
ENDBRANCH   6  13
BRANCH   5  18
ATOM     18  N   LIG d   1       1.615  80.924 115.895  0.00  0.00     0.381 N 
ATOM     19  H   LIG d   1       1.881  80.006 115.597  0.00  0.00    -0.090 HD
ATOM     20  H   LIG d   1       1.859  81.024 116.864  0.00  0.00    -0.090 HD
ATOM     21  H   LIG d   1       2.095  81.608 115.352  0.00  0.00    -0.090 HD
ENDBRANCH   5  18
BRANCH   3  22
ATOM     22  C   LIG d   1      -1.924  82.084 112.885  0.00  0.00     0.382 C 
ATOM     23  O   LIG d   1      -3.008  81.816 112.312  0.00  0.00    -0.241 OA
ATOM     24  O   LIG d   1      -1.208  83.002 112.442  0.00  0.00    -0.241 OA
ENDBRANCH   3  22
TORSDOF 7
ENDMDL
