MODEL 1
REMARK VINA RESULT:      -4.9      0.000      0.000
REMARK  7 active torsions:
REMARK  status: ('A' for Active; 'I' for Inactive)
REMARK    1  A    between atoms: C_2  and  C_3 
REMARK    2  A    between atoms: C_3  and  O_6 
REMARK    3  A    between atoms: C_3  and  C_4 
REMARK    4  A    between atoms: C_7  and  O_6 
REMARK    5  A    between atoms: C_9  and  C_10 
REMARK    6  A    between atoms: N_15  and  C_14 
REMARK    7  A    between atoms: N_20  and  C_19 
REMARK       I    between atoms: C_22  and  N_20 
ROOT
ATOM      1  C   LIG d   1       1.261  80.926 112.406  0.00  0.00     0.161 C 
ATOM      2  C   LIG d   1       2.482  80.921 111.712  0.00  0.00     0.016 C 
ATOM      3  C   LIG d   1       2.731  81.716 110.570  0.00  0.00     0.038 C 
ATOM      4  C   LIG d   1       1.821  82.689 110.131  0.00  0.00     0.028 C 
ATOM      5  C   LIG d   1       0.374  82.374 110.496  0.00  0.00    -0.047 C 
ATOM      6  C   LIG d   1       0.295  82.062 112.008  0.00  0.00     0.091 C 
ENDROOT
BRANCH   1   7
ATOM      7  O   LIG d   1       1.506  80.951 113.826  0.00  0.00    -0.368 OA
BRANCH   7   8
ATOM      8  C   LIG d   1       2.845  81.324 114.235  0.00  0.00     0.119 C 
BRANCH   8   9
ATOM      9  C   LIG d   1       3.344  80.248 115.219  0.00  0.00     0.028 C 
ATOM     10  C   LIG d   1       4.372  80.801 116.222  0.00  0.00     0.006 C 
ENDBRANCH   8   9
BRANCH   8  11
ATOM     11  C   LIG d   1       2.840  82.632 115.032  0.00  0.00     0.028 C 
ATOM     12  C   LIG d   1       2.760  83.876 114.134  0.00  0.00     0.006 C 
ENDBRANCH   8  11
ENDBRANCH   7   8
ENDBRANCH   1   7
BRANCH   6  13
ATOM     13  N   LIG d   1      -1.071  81.661 112.434  0.00  0.00    -0.311 N 
ATOM     14  C   LIG d   1      -1.648  80.518 112.065  0.00  0.00     0.210 C 
ATOM     15  C   LIG d   1      -3.068  80.309 112.599  0.00  0.00     0.109 C 
ATOM     16  O   LIG d   1      -1.106  79.644 111.373  0.00  0.00    -0.276 OA
ATOM     17  H   LIG d   1      -1.571  82.298 113.023  0.00  0.00     0.149 HD
ENDBRANCH   6  13
BRANCH   5  18
ATOM     18  N   LIG d   1      -0.448  83.533 110.101  0.00  0.00     0.381 N 
ATOM     19  H   LIG d   1      -0.948  83.880 110.895  0.00  0.00    -0.090 HD
ATOM     20  H   LIG d   1      -1.117  83.237 109.412  0.00  0.00    -0.090 HD
ATOM     21  H   LIG d   1       0.132  84.250 109.725  0.00  0.00    -0.090 HD
ENDBRANCH   5  18
BRANCH   3  22
ATOM     22  C   LIG d   1       3.886  81.513 109.830  0.00  0.00     0.382 C 
ATOM     23  O   LIG d   1       4.612  82.489 109.520  0.00  0.00    -0.241 OA
ATOM     24  O   LIG d   1       4.188  80.373 109.430  0.00  0.00    -0.241 OA
ENDBRANCH   3  22
TORSDOF 7
ENDMDL
MODEL 2
REMARK VINA RESULT:      -4.4      2.888      5.447
REMARK  7 active torsions:
REMARK  status: ('A' for Active; 'I' for Inactive)
REMARK    1  A    between atoms: C_2  and  C_3 
REMARK    2  A    between atoms: C_3  and  O_6 
REMARK    3  A    between atoms: C_3  and  C_4 
REMARK    4  A    between atoms: C_7  and  O_6 
REMARK    5  A    between atoms: C_9  and  C_10 
REMARK    6  A    between atoms: N_15  and  C_14 
REMARK    7  A    between atoms: N_20  and  C_19 
REMARK       I    between atoms: C_22  and  N_20 
ROOT
ATOM      1  C   LIG d   1      -0.788  79.804 113.464  0.00  0.00     0.161 C 
ATOM      2  C   LIG d   1      -1.617  78.744 113.062  0.00  0.00     0.016 C 
ATOM      3  C   LIG d   1      -1.718  78.299 111.724  0.00  0.00     0.038 C 
ATOM      4  C   LIG d   1      -0.877  78.789 110.714  0.00  0.00     0.028 C 
ATOM      5  C   LIG d   1      -0.382  80.208 110.974  0.00  0.00    -0.047 C 
ATOM      6  C   LIG d   1       0.220  80.277 112.396  0.00  0.00     0.091 C 
ENDROOT
BRANCH   1   7
ATOM      7  O   LIG d   1      -0.100  79.452 114.681  0.00  0.00    -0.368 OA
BRANCH   7   8
ATOM      8  C   LIG d   1      -0.705  78.402 115.474  0.00  0.00     0.119 C 
BRANCH   8   9
ATOM      9  C   LIG d   1      -1.521  79.079 116.593  0.00  0.00     0.028 C 
ATOM     10  C   LIG d   1      -3.013  78.708 116.537  0.00  0.00     0.006 C 
ENDBRANCH   8   9
BRANCH   8  11
ATOM     11  C   LIG d   1       0.357  77.567 116.196  0.00  0.00     0.028 C 
ATOM     12  C   LIG d   1       1.381  78.429 116.951  0.00  0.00     0.006 C 
ENDBRANCH   8  11
ENDBRANCH   7   8
ENDBRANCH   1   7
BRANCH   6  13
ATOM     13  N   LIG d   1       0.652  81.652 112.762  0.00  0.00    -0.311 N 
ATOM     14  C   LIG d   1       1.893  82.101 112.587  0.00  0.00     0.210 C 
ATOM     15  C   LIG d   1       2.130  83.542 113.051  0.00  0.00     0.109 C 
ATOM     16  O   LIG d   1       2.812  81.455 112.061  0.00  0.00    -0.276 OA
ATOM     17  H   LIG d   1      -0.039  82.254 113.167  0.00  0.00     0.149 HD
ENDBRANCH   6  13
BRANCH   5  18
ATOM     18  N   LIG d   1       0.591  80.541 109.917  0.00  0.00     0.381 N 
ATOM     19  H   LIG d   1       1.496  80.198 110.169  0.00  0.00    -0.090 HD
ATOM     20  H   LIG d   1       0.646  81.541 109.829  0.00  0.00    -0.090 HD
ATOM     21  H   LIG d   1       0.305  80.140 109.051  0.00  0.00    -0.090 HD
ENDBRANCH   5  18
BRANCH   3  22
ATOM     22  C   LIG d   1      -2.698  77.381 111.377  0.00  0.00     0.382 C 
ATOM     23  O   LIG d   1      -2.871  77.073 110.173  0.00  0.00    -0.241 OA
ATOM     24  O   LIG d   1      -3.440  76.889 112.249  0.00  0.00    -0.241 OA
ENDBRANCH   3  22
TORSDOF 7
ENDMDL
MODEL 3
REMARK VINA RESULT:      -4.2      4.411      7.797
REMARK  7 active torsions:
REMARK  status: ('A' for Active; 'I' for Inactive)
REMARK    1  A    between atoms: C_2  and  C_3 
REMARK    2  A    between atoms: C_3  and  O_6 
REMARK    3  A    between atoms: C_3  and  C_4 
REMARK    4  A    between atoms: C_7  and  O_6 
REMARK    5  A    between atoms: C_9  and  C_10 
REMARK    6  A    between atoms: N_15  and  C_14 
REMARK    7  A    between atoms: N_20  and  C_19 
REMARK       I    between atoms: C_22  and  N_20 
ROOT
ATOM      1  C   LIG d   1      -1.398  78.065 114.566  0.00  0.00     0.161 C 
ATOM      2  C   LIG d   1      -2.306  77.036 114.866  0.00  0.00     0.016 C 
ATOM      3  C   LIG d   1      -2.119  76.118 115.925  0.00  0.00     0.038 C 
ATOM      4  C   LIG d   1      -1.079  76.262 116.856  0.00  0.00     0.028 C 
ATOM      5  C   LIG d   1       0.141  76.983 116.295  0.00  0.00    -0.047 C 
ATOM      6  C   LIG d   1      -0.316  78.306 115.639  0.00  0.00     0.091 C 
ENDROOT
BRANCH   1   7
ATOM      7  O   LIG d   1      -2.116  79.285 114.295  0.00  0.00    -0.368 OA
BRANCH   7   8
ATOM      8  C   LIG d   1      -2.632  79.436 112.950  0.00  0.00     0.119 C 
BRANCH   8   9
ATOM      9  C   LIG d   1      -1.659  78.715 111.997  0.00  0.00     0.028 C 
ATOM     10  C   LIG d   1      -2.357  77.633 111.155  0.00  0.00     0.006 C 
ENDBRANCH   8   9
BRANCH   8  11
ATOM     11  C   LIG d   1      -2.618  80.903 112.509  0.00  0.00     0.028 C 
ATOM     12  C   LIG d   1      -1.214  81.396 112.124  0.00  0.00     0.006 C 
ENDBRANCH   8  11
ENDBRANCH   7   8
ENDBRANCH   1   7
BRANCH   6  13
ATOM     13  N   LIG d   1       0.806  79.034 114.990  0.00  0.00    -0.311 N 
ATOM     14  C   LIG d   1       1.512  79.985 115.598  0.00  0.00     0.210 C 
ATOM     15  C   LIG d   1       2.612  80.622 114.743  0.00  0.00     0.109 C 
ATOM     16  O   LIG d   1       1.354  80.339 116.776  0.00  0.00    -0.276 OA
ATOM     17  H   LIG d   1       1.023  78.787 114.044  0.00  0.00     0.149 HD
ENDBRANCH   6  13
BRANCH   5  18
ATOM     18  N   LIG d   1       1.090  77.186 117.406  0.00  0.00     0.381 N 
ATOM     19  H   LIG d   1       0.616  77.077 118.280  0.00  0.00    -0.090 HD
ATOM     20  H   LIG d   1       1.451  78.122 117.358  0.00  0.00    -0.090 HD
ATOM     21  H   LIG d   1       1.837  76.530 117.341  0.00  0.00    -0.090 HD
ENDBRANCH   5  18
BRANCH   3  22
ATOM     22  C   LIG d   1      -2.955  75.018 116.037  0.00  0.00     0.382 C 
ATOM     23  O   LIG d   1      -3.440  74.491 115.007  0.00  0.00    -0.241 OA
ATOM     24  O   LIG d   1      -3.267  74.572 117.158  0.00  0.00    -0.241 OA
ENDBRANCH   3  22
TORSDOF 7
ENDMDL
MODEL 4
REMARK VINA RESULT:      -4.1      6.210      7.853
REMARK  7 active torsions:
REMARK  status: ('A' for Active; 'I' for Inactive)
REMARK    1  A    between atoms: C_2  and  C_3 
REMARK    2  A    between atoms: C_3  and  O_6 
REMARK    3  A    between atoms: C_3  and  C_4 
REMARK    4  A    between atoms: C_7  and  O_6 
REMARK    5  A    between atoms: C_9  and  C_10 
REMARK    6  A    between atoms: N_15  and  C_14 
REMARK    7  A    between atoms: N_20  and  C_19 
REMARK       I    between atoms: C_22  and  N_20 
ROOT
ATOM      1  C   LIG d   1      -0.161  77.987 115.966  0.00  0.00     0.161 C 
ATOM      2  C   LIG d   1      -1.232  78.299 115.113  0.00  0.00     0.016 C 
ATOM      3  C   LIG d   1      -1.923  77.333 114.346  0.00  0.00     0.038 C 
ATOM      4  C   LIG d   1      -1.687  75.959 114.497  0.00  0.00     0.028 C 
ATOM      5  C   LIG d   1      -0.273  75.636 114.971  0.00  0.00    -0.047 C 
ATOM      6  C   LIG d   1       0.039  76.479 116.228  0.00  0.00     0.091 C 
ENDROOT
BRANCH   1   7
ATOM      7  O   LIG d   1      -0.306  78.697 117.212  0.00  0.00    -0.368 OA
BRANCH   7   8
ATOM      8  C   LIG d   1      -1.664  78.945 117.650  0.00  0.00     0.119 C 
BRANCH   8   9
ATOM      9  C   LIG d   1      -1.653  80.242 118.481  0.00  0.00     0.028 C 
ATOM     10  C   LIG d   1      -0.289  80.952 118.442  0.00  0.00     0.006 C 
ENDBRANCH   8   9
BRANCH   8  11
ATOM     11  C   LIG d   1      -2.149  77.853 118.609  0.00  0.00     0.028 C 
ATOM     12  C   LIG d   1      -3.235  76.958 117.992  0.00  0.00     0.006 C 
ENDBRANCH   8  11
ENDBRANCH   7   8
ENDBRANCH   1   7
BRANCH   6  13
ATOM     13  N   LIG d   1       1.432  76.287 116.708  0.00  0.00    -0.311 N 
ATOM     14  C   LIG d   1       1.761  75.449 117.689  0.00  0.00     0.210 C 
ATOM     15  C   LIG d   1       3.251  75.418 118.042  0.00  0.00     0.109 C 
ATOM     16  O   LIG d   1       0.964  74.704 118.280  0.00  0.00    -0.276 OA
ATOM     17  H   LIG d   1       2.147  76.829 116.262  0.00  0.00     0.149 HD
ENDBRANCH   6  13
BRANCH   5  18
ATOM     18  N   LIG d   1      -0.207  74.183 115.218  0.00  0.00     0.381 N 
ATOM     19  H   LIG d   1      -0.499  73.985 116.154  0.00  0.00    -0.090 HD
ATOM     20  H   LIG d   1       0.745  73.879 115.113  0.00  0.00    -0.090 HD
ATOM     21  H   LIG d   1      -0.791  73.700 114.571  0.00  0.00    -0.090 HD
ENDBRANCH   5  18
BRANCH   3  22
ATOM     22  C   LIG d   1      -2.837  77.742 113.386  0.00  0.00     0.382 C 
ATOM     23  O   LIG d   1      -3.303  76.912 112.570  0.00  0.00    -0.241 OA
ATOM     24  O   LIG d   1      -3.167  78.940 113.298  0.00  0.00    -0.241 OA
ENDBRANCH   3  22
TORSDOF 7
ENDMDL
MODEL 5
REMARK VINA RESULT:      -4.1      5.519      7.312
REMARK  7 active torsions:
REMARK  status: ('A' for Active; 'I' for Inactive)
REMARK    1  A    between atoms: C_2  and  C_3 
REMARK    2  A    between atoms: C_3  and  O_6 
REMARK    3  A    between atoms: C_3  and  C_4 
REMARK    4  A    between atoms: C_7  and  O_6 
REMARK    5  A    between atoms: C_9  and  C_10 
REMARK    6  A    between atoms: N_15  and  C_14 
REMARK    7  A    between atoms: N_20  and  C_19 
REMARK       I    between atoms: C_22  and  N_20 
ROOT
ATOM      1  C   LIG d   1       0.053  78.030 115.865  0.00  0.00     0.161 C 
ATOM      2  C   LIG d   1      -1.052  78.321 115.048  0.00  0.00     0.016 C 
ATOM      3  C   LIG d   1      -1.854  77.328 114.440  0.00  0.00     0.038 C 
ATOM      4  C   LIG d   1      -1.695  75.965 114.733  0.00  0.00     0.028 C 
ATOM      5  C   LIG d   1      -0.276  75.598 115.154  0.00  0.00    -0.047 C 
ATOM      6  C   LIG d   1       0.174  76.551 116.285  0.00  0.00     0.091 C 
ENDROOT
BRANCH   1   7
ATOM      7  O   LIG d   1       0.039  78.882 117.028  0.00  0.00    -0.368 OA
BRANCH   7   8
ATOM      8  C   LIG d   1       1.126  79.833 117.134  0.00  0.00     0.119 C 
BRANCH   8   9
ATOM      9  C   LIG d   1       1.942  79.751 115.829  0.00  0.00     0.028 C 
ATOM     10  C   LIG d   1       3.457  79.698 116.088  0.00  0.00     0.006 C 
ENDBRANCH   8   9
BRANCH   8  11
ATOM     11  C   LIG d   1       2.102  79.443 118.248  0.00  0.00     0.028 C 
ATOM     12  C   LIG d   1       1.397  78.833 119.470  0.00  0.00     0.006 C 
ENDBRANCH   8  11
ENDBRANCH   7   8
ENDBRANCH   1   7
BRANCH   6  13
ATOM     13  N   LIG d   1       1.582  76.314 116.698  0.00  0.00    -0.311 N 
ATOM     14  C   LIG d   1       1.923  75.577 117.753  0.00  0.00     0.210 C 
ATOM     15  C   LIG d   1       3.429  75.478 118.014  0.00  0.00     0.109 C 
ATOM     16  O   LIG d   1       1.122  74.968 118.479  0.00  0.00    -0.276 OA
ATOM     17  H   LIG d   1       2.298  76.746 116.146  0.00  0.00     0.149 HD
ENDBRANCH   6  13
BRANCH   5  18
ATOM     18  N   LIG d   1      -0.285  74.180 115.562  0.00  0.00     0.381 N 
ATOM     19  H   LIG d   1       0.654  73.838 115.617  0.00  0.00    -0.090 HD
ATOM     20  H   LIG d   1      -0.775  73.645 114.867  0.00  0.00    -0.090 HD
ATOM     21  H   LIG d   1      -0.735  74.082 116.445  0.00  0.00    -0.090 HD
ENDBRANCH   5  18
BRANCH   3  22
ATOM     22  C   LIG d   1      -2.803  77.692 113.498  0.00  0.00     0.382 C 
ATOM     23  O   LIG d   1      -3.211  78.878 113.444  0.00  0.00    -0.241 OA
ATOM     24  O   LIG d   1      -3.290  76.841 112.729  0.00  0.00    -0.241 OA
ENDBRANCH   3  22
TORSDOF 7
ENDMDL
MODEL 6
REMARK VINA RESULT:      -4.0      4.554      6.524
REMARK  7 active torsions:
REMARK  status: ('A' for Active; 'I' for Inactive)
REMARK    1  A    between atoms: C_2  and  C_3 
REMARK    2  A    between atoms: C_3  and  O_6 
REMARK    3  A    between atoms: C_3  and  C_4 
REMARK    4  A    between atoms: C_7  and  O_6 
REMARK    5  A    between atoms: C_9  and  C_10 
REMARK    6  A    between atoms: N_15  and  C_14 
REMARK    7  A    between atoms: N_20  and  C_19 
REMARK       I    between atoms: C_22  and  N_20 
ROOT
ATOM      1  C   LIG d   1      -0.228  78.179 115.351  0.00  0.00     0.161 C 
ATOM      2  C   LIG d   1      -0.848  79.043 114.432  0.00  0.00     0.016 C 
ATOM      3  C   LIG d   1      -2.088  78.761 113.815  0.00  0.00     0.038 C 
ATOM      4  C   LIG d   1      -2.870  77.659 114.191  0.00  0.00     0.028 C 
ATOM      5  C   LIG d   1      -2.053  76.497 114.745  0.00  0.00    -0.047 C 
ATOM      6  C   LIG d   1      -1.119  77.026 115.857  0.00  0.00     0.091 C 
ENDROOT
BRANCH   1   7
ATOM      7  O   LIG d   1       0.289  78.938 116.462  0.00  0.00    -0.368 OA
BRANCH   7   8
ATOM      8  C   LIG d   1       1.732  78.989 116.583  0.00  0.00     0.119 C 
BRANCH   8   9
ATOM      9  C   LIG d   1       2.082  78.745 118.064  0.00  0.00     0.028 C 
ATOM     10  C   LIG d   1       2.651  77.338 118.309  0.00  0.00     0.006 C 
ENDBRANCH   8   9
BRANCH   8  11
ATOM     11  C   LIG d   1       2.269  80.387 116.264  0.00  0.00     0.028 C 
ATOM     12  C   LIG d   1       2.750  80.523 114.810  0.00  0.00     0.006 C 
ENDBRANCH   8  11
ENDBRANCH   7   8
ENDBRANCH   1   7
BRANCH   6  13
ATOM     13  N   LIG d   1      -0.223  75.969 116.395  0.00  0.00    -0.311 N 
ATOM     14  C   LIG d   1      -0.511  75.245 117.476  0.00  0.00     0.210 C 
ATOM     15  C   LIG d   1       0.559  74.222 117.871  0.00  0.00     0.109 C 
ATOM     16  O   LIG d   1      -1.564  75.330 118.125  0.00  0.00    -0.276 OA
ATOM     17  H   LIG d   1       0.639  75.811 115.911  0.00  0.00     0.149 HD
ENDBRANCH   6  13
BRANCH   5  18
ATOM     18  N   LIG d   1      -3.001  75.474 115.224  0.00  0.00     0.381 N 
ATOM     19  H   LIG d   1      -2.513  74.781 115.756  0.00  0.00    -0.090 HD
ATOM     20  H   LIG d   1      -3.422  75.023 114.431  0.00  0.00    -0.090 HD
ATOM     21  H   LIG d   1      -3.706  75.898 115.786  0.00  0.00    -0.090 HD
ENDBRANCH   5  18
BRANCH   3  22
ATOM     22  C   LIG d   1      -2.539  79.566 112.780  0.00  0.00     0.382 C 
ATOM     23  O   LIG d   1      -2.023  79.470 111.640  0.00  0.00    -0.241 OA
ATOM     24  O   LIG d   1      -3.424  80.419 112.982  0.00  0.00    -0.241 OA
ENDBRANCH   3  22
TORSDOF 7
ENDMDL
MODEL 7
REMARK VINA RESULT:      -3.9      5.114      7.245
REMARK  7 active torsions:
REMARK  status: ('A' for Active; 'I' for Inactive)
REMARK    1  A    between atoms: C_2  and  C_3 
REMARK    2  A    between atoms: C_3  and  O_6 
REMARK    3  A    between atoms: C_3  and  C_4 
REMARK    4  A    between atoms: C_7  and  O_6 
REMARK    5  A    between atoms: C_9  and  C_10 
REMARK    6  A    between atoms: N_15  and  C_14 
REMARK    7  A    between atoms: N_20  and  C_19 
REMARK       I    between atoms: C_22  and  N_20 
ROOT
ATOM      1  C   LIG d   1      -1.289  78.191 116.653  0.00  0.00     0.161 C 
ATOM      2  C   LIG d   1      -0.786  77.441 117.728  0.00  0.00     0.016 C 
ATOM      3  C   LIG d   1      -0.153  76.186 117.573  0.00  0.00     0.038 C 
ATOM      4  C   LIG d   1       0.158  75.664 116.309  0.00  0.00     0.028 C 
ATOM      5  C   LIG d   1      -0.779  76.147 115.207  0.00  0.00    -0.047 C 
ATOM      6  C   LIG d   1      -0.860  77.690 115.258  0.00  0.00     0.091 C 
ENDROOT
BRANCH   1   7
ATOM      7  O   LIG d   1      -0.934  79.579 116.817  0.00  0.00    -0.368 OA
BRANCH   7   8
ATOM      8  C   LIG d   1      -0.245  79.919 118.046  0.00  0.00     0.119 C 
BRANCH   8   9
ATOM      9  C   LIG d   1      -1.096  80.977 118.775  0.00  0.00     0.028 C 
ATOM     10  C   LIG d   1      -0.379  82.333 118.884  0.00  0.00     0.006 C 
ENDBRANCH   8   9
BRANCH   8  11
ATOM     11  C   LIG d   1       1.096  80.602 117.762  0.00  0.00     0.028 C 
ATOM     12  C   LIG d   1       1.918  79.876 116.686  0.00  0.00     0.006 C 
ENDBRANCH   8  11
ENDBRANCH   7   8
ENDBRANCH   1   7
BRANCH   6  13
ATOM     13  N   LIG d   1      -1.821  78.240 114.267  0.00  0.00    -0.311 N 
ATOM     14  C   LIG d   1      -1.542  79.270 113.469  0.00  0.00     0.210 C 
ATOM     15  C   LIG d   1      -2.681  79.690 112.535  0.00  0.00     0.109 C 
ATOM     16  O   LIG d   1      -0.449  79.853 113.422  0.00  0.00    -0.276 OA
ATOM     17  H   LIG d   1      -2.722  77.806 114.215  0.00  0.00     0.149 HD
ENDBRANCH   6  13
BRANCH   5  18
ATOM     18  N   LIG d   1      -0.258  75.638 113.924  0.00  0.00     0.381 N 
ATOM     19  H   LIG d   1      -0.403  76.318 113.205  0.00  0.00    -0.090 HD
ATOM     20  H   LIG d   1      -0.763  74.805 113.676  0.00  0.00    -0.090 HD
ATOM     21  H   LIG d   1       0.714  75.434 114.007  0.00  0.00    -0.090 HD
ENDBRANCH   5  18
BRANCH   3  22
ATOM     22  C   LIG d   1       0.141  75.421 118.692  0.00  0.00     0.382 C 
ATOM     23  O   LIG d   1       0.998  74.508 118.619  0.00  0.00    -0.241 OA
ATOM     24  O   LIG d   1      -0.472  75.604 119.760  0.00  0.00    -0.241 OA
ENDBRANCH   3  22
TORSDOF 7
ENDMDL
MODEL 8
REMARK VINA RESULT:      -3.9      3.710      6.079
REMARK  7 active torsions:
REMARK  status: ('A' for Active; 'I' for Inactive)
REMARK    1  A    between atoms: C_2  and  C_3 
REMARK    2  A    between atoms: C_3  and  O_6 
REMARK    3  A    between atoms: C_3  and  C_4 
REMARK    4  A    between atoms: C_7  and  O_6 
REMARK    5  A    between atoms: C_9  and  C_10 
REMARK    6  A    between atoms: N_15  and  C_14 
REMARK    7  A    between atoms: N_20  and  C_19 
REMARK       I    between atoms: C_22  and  N_20 
ROOT
ATOM      1  C   LIG d   1      -1.019  79.000 114.776  0.00  0.00     0.161 C 
ATOM      2  C   LIG d   1      -1.380  77.748 115.299  0.00  0.00     0.016 C 
ATOM      3  C   LIG d   1      -1.874  76.686 114.507  0.00  0.00     0.038 C 
ATOM      4  C   LIG d   1      -1.899  76.756 113.106  0.00  0.00     0.028 C 
ATOM      5  C   LIG d   1      -2.019  78.180 112.572  0.00  0.00    -0.047 C 
ATOM      6  C   LIG d   1      -0.934  79.058 113.236  0.00  0.00     0.091 C 
ENDROOT
BRANCH   1   7
ATOM      7  O   LIG d   1       0.223  79.436 115.363  0.00  0.00    -0.368 OA
BRANCH   7   8
ATOM      8  C   LIG d   1       0.485  78.980 116.713  0.00  0.00     0.119 C 
BRANCH   8   9
ATOM      9  C   LIG d   1       0.215  80.163 117.662  0.00  0.00     0.028 C 
ATOM     10  C   LIG d   1      -1.146  80.051 118.368  0.00  0.00     0.006 C 
ENDBRANCH   8   9
BRANCH   8  11
ATOM     11  C   LIG d   1       1.964  78.633 116.907  0.00  0.00     0.028 C 
ATOM     12  C   LIG d   1       2.906  79.649 116.243  0.00  0.00     0.006 C 
ENDBRANCH   8  11
ENDBRANCH   7   8
ENDBRANCH   1   7
BRANCH   6  13
ATOM     13  N   LIG d   1      -1.035  80.485 112.833  0.00  0.00    -0.311 N 
ATOM     14  C   LIG d   1      -0.385  81.000 111.791  0.00  0.00     0.210 C 
ATOM     15  C   LIG d   1      -0.613  82.497 111.563  0.00  0.00     0.109 C 
ATOM     16  O   LIG d   1       0.334  80.352 111.015  0.00  0.00    -0.276 OA
ATOM     17  H   LIG d   1      -1.622  81.075 113.389  0.00  0.00     0.149 HD
ENDBRANCH   6  13
BRANCH   5  18
ATOM     18  N   LIG d   1      -1.894  78.117 111.104  0.00  0.00     0.381 N 
ATOM     19  H   LIG d   1      -2.123  77.198 110.783  0.00  0.00    -0.090 HD
ATOM     20  H   LIG d   1      -0.942  78.313 110.850  0.00  0.00    -0.090 HD
ATOM     21  H   LIG d   1      -2.502  78.784 110.681  0.00  0.00    -0.090 HD
ENDBRANCH   5  18
BRANCH   3  22
ATOM     22  C   LIG d   1      -2.388  75.553 115.119  0.00  0.00     0.382 C 
ATOM     23  O   LIG d   1      -3.440  75.027 114.682  0.00  0.00    -0.241 OA
ATOM     24  O   LIG d   1      -1.837  75.076 116.129  0.00  0.00    -0.241 OA
ENDBRANCH   3  22
TORSDOF 7
ENDMDL
MODEL 9
REMARK VINA RESULT:      -3.8      4.048      6.960
REMARK  7 active torsions:
REMARK  status: ('A' for Active; 'I' for Inactive)
REMARK    1  A    between atoms: C_2  and  C_3 
REMARK    2  A    between atoms: C_3  and  O_6 
REMARK    3  A    between atoms: C_3  and  C_4 
REMARK    4  A    between atoms: C_7  and  O_6 
REMARK    5  A    between atoms: C_9  and  C_10 
REMARK    6  A    between atoms: N_15  and  C_14 
REMARK    7  A    between atoms: N_20  and  C_19 
REMARK       I    between atoms: C_22  and  N_20 
ROOT
ATOM      1  C   LIG d   1       2.752  79.305 117.492  0.00  0.00     0.161 C 
ATOM      2  C   LIG d   1       2.350  78.116 118.123  0.00  0.00     0.016 C 
ATOM      3  C   LIG d   1       1.273  77.319 117.670  0.00  0.00     0.038 C 
ATOM      4  C   LIG d   1       0.617  77.580 116.458  0.00  0.00     0.028 C 
ATOM      5  C   LIG d   1       0.656  79.050 116.052  0.00  0.00    -0.047 C 
ATOM      6  C   LIG d   1       2.119  79.546 116.105  0.00  0.00     0.091 C 
ENDROOT
BRANCH   1   7
ATOM      7  O   LIG d   1       4.189  79.348 117.401  0.00  0.00    -0.368 OA
BRANCH   7   8
ATOM      8  C   LIG d   1       4.794  78.451 116.437  0.00  0.00     0.119 C 
BRANCH   8   9
ATOM      9  C   LIG d   1       5.895  77.659 117.169  0.00  0.00     0.028 C 
ATOM     10  C   LIG d   1       5.436  76.245 117.563  0.00  0.00     0.006 C 
ENDBRANCH   8   9
BRANCH   8  11
ATOM     11  C   LIG d   1       5.519  79.227 115.333  0.00  0.00     0.028 C 
ATOM     12  C   LIG d   1       6.696  78.443 114.729  0.00  0.00     0.006 C 
ENDBRANCH   8  11
ENDBRANCH   7   8
ENDBRANCH   1   7
BRANCH   6  13
ATOM     13  N   LIG d   1       2.236  80.997 115.804  0.00  0.00    -0.311 N 
ATOM     14  C   LIG d   1       2.591  81.471 114.611  0.00  0.00     0.210 C 
ATOM     15  C   LIG d   1       2.671  82.998 114.520  0.00  0.00     0.109 C 
ATOM     16  O   LIG d   1       2.816  80.773 113.610  0.00  0.00    -0.276 OA
ATOM     17  H   LIG d   1       2.041  81.635 116.550  0.00  0.00     0.149 HD
ENDBRANCH   6  13
BRANCH   5  18
ATOM     18  N   LIG d   1       0.057  79.157 114.708  0.00  0.00     0.381 N 
ATOM     19  H   LIG d   1       0.659  79.688 114.111  0.00  0.00    -0.090 HD
ATOM     20  H   LIG d   1      -0.820  79.640 114.781  0.00  0.00    -0.090 HD
ATOM     21  H   LIG d   1      -0.086  78.249 114.325  0.00  0.00    -0.090 HD
ENDBRANCH   5  18
BRANCH   3  22
ATOM     22  C   LIG d   1       0.817  76.270 118.453  0.00  0.00     0.382 C 
ATOM     23  O   LIG d   1      -0.413  76.036 118.533  0.00  0.00    -0.241 OA
ATOM     24  O   LIG d   1       1.617  75.583 119.117  0.00  0.00    -0.241 OA
ENDBRANCH   3  22
TORSDOF 7
ENDMDL
