MODEL 1
REMARK VINA RESULT:      -4.4      0.000      0.000
REMARK  7 active torsions:
REMARK  status: ('A' for Active; 'I' for Inactive)
REMARK    1  A    between atoms: C_2  and  C_3 
REMARK    2  A    between atoms: C_3  and  O_6 
REMARK    3  A    between atoms: C_3  and  C_4 
REMARK    4  A    between atoms: C_7  and  O_6 
REMARK    5  A    between atoms: C_9  and  C_10 
REMARK    6  A    between atoms: N_15  and  C_14 
REMARK    7  A    between atoms: N_20  and  C_19 
REMARK       I    between atoms: C_22  and  N_20 
ROOT
ATOM      1  C   LIG d   1      -0.369  77.978 116.238  0.00  0.00     0.161 C 
ATOM      2  C   LIG d   1      -1.207  78.350 115.174  0.00  0.00     0.016 C 
ATOM      3  C   LIG d   1      -1.653  77.446 114.182  0.00  0.00     0.038 C 
ATOM      4  C   LIG d   1      -1.412  76.068 114.273  0.00  0.00     0.028 C 
ATOM      5  C   LIG d   1      -0.149  75.724 115.055  0.00  0.00    -0.047 C 
ATOM      6  C   LIG d   1      -0.187  76.456 116.416  0.00  0.00     0.091 C 
ENDROOT
BRANCH   1   7
ATOM      7  O   LIG d   1      -0.842  78.572 117.463  0.00  0.00    -0.368 OA
BRANCH   7   8
ATOM      8  C   LIG d   1      -0.206  79.813 117.857  0.00  0.00     0.119 C 
BRANCH   8   9
ATOM      9  C   LIG d   1       0.939  79.459 118.825  0.00  0.00     0.028 C 
ATOM     10  C   LIG d   1       2.323  79.571 118.163  0.00  0.00     0.006 C 
ENDBRANCH   8   9
BRANCH   8  11
ATOM     11  C   LIG d   1      -1.161  80.697 118.665  0.00  0.00     0.028 C 
ATOM     12  C   LIG d   1      -0.568  82.079 118.983  0.00  0.00     0.006 C 
ENDBRANCH   8  11
ENDBRANCH   7   8
ENDBRANCH   1   7
BRANCH   6  13
ATOM     13  N   LIG d   1       1.051  76.241 117.210  0.00  0.00    -0.311 N 
ATOM     14  C   LIG d   1       1.047  75.835 118.478  0.00  0.00     0.210 C 
ATOM     15  C   LIG d   1       2.433  75.696 119.117  0.00  0.00     0.109 C 
ATOM     16  O   LIG d   1       0.030  75.545 119.125  0.00  0.00    -0.276 OA
ATOM     17  H   LIG d   1       1.923  76.423 116.753  0.00  0.00     0.149 HD
ENDBRANCH   6  13
BRANCH   5  18
ATOM     18  N   LIG d   1      -0.094  74.256 115.190  0.00  0.00     0.381 N 
ATOM     19  H   LIG d   1       0.268  74.012 116.090  0.00  0.00    -0.090 HD
ATOM     20  H   LIG d   1       0.527  73.888 114.490  0.00  0.00    -0.090 HD
ATOM     21  H   LIG d   1      -1.004  73.868 115.074  0.00  0.00    -0.090 HD
ENDBRANCH   5  18
BRANCH   3  22
ATOM     22  C   LIG d   1      -2.315  77.927 113.062  0.00  0.00     0.382 C 
ATOM     23  O   LIG d   1      -3.301  77.302 112.601  0.00  0.00    -0.241 OA
ATOM     24  O   LIG d   1      -1.912  78.953 112.482  0.00  0.00    -0.241 OA
ENDBRANCH   3  22
TORSDOF 7
ENDMDL
MODEL 2
REMARK VINA RESULT:      -4.3      1.870      2.326
REMARK  7 active torsions:
REMARK  status: ('A' for Active; 'I' for Inactive)
REMARK    1  A    between atoms: C_2  and  C_3 
REMARK    2  A    between atoms: C_3  and  O_6 
REMARK    3  A    between atoms: C_3  and  C_4 
REMARK    4  A    between atoms: C_7  and  O_6 
REMARK    5  A    between atoms: C_9  and  C_10 
REMARK    6  A    between atoms: N_15  and  C_14 
REMARK    7  A    between atoms: N_20  and  C_19 
REMARK       I    between atoms: C_22  and  N_20 
ROOT
ATOM      1  C   LIG d   1      -1.486  78.239 116.328  0.00  0.00     0.161 C 
ATOM      2  C   LIG d   1      -1.925  79.084 115.295  0.00  0.00     0.016 C 
ATOM      3  C   LIG d   1      -2.115  78.651 113.963  0.00  0.00     0.038 C 
ATOM      4  C   LIG d   1      -2.024  77.298 113.603  0.00  0.00     0.028 C 
ATOM      5  C   LIG d   1      -1.093  76.493 114.504  0.00  0.00    -0.047 C 
ATOM      6  C   LIG d   1      -1.488  76.736 115.978  0.00  0.00     0.091 C 
ENDROOT
BRANCH   1   7
ATOM      7  O   LIG d   1      -2.263  78.478 117.518  0.00  0.00    -0.368 OA
BRANCH   7   8
ATOM      8  C   LIG d   1      -1.520  78.886 118.693  0.00  0.00     0.119 C 
BRANCH   8   9
ATOM      9  C   LIG d   1      -1.936  77.958 119.850  0.00  0.00     0.028 C 
ATOM     10  C   LIG d   1      -3.163  77.099 119.500  0.00  0.00     0.006 C 
ENDBRANCH   8   9
BRANCH   8  11
ATOM     11  C   LIG d   1      -1.917  80.296 119.141  0.00  0.00     0.028 C 
ATOM     12  C   LIG d   1      -0.822  81.339 118.866  0.00  0.00     0.006 C 
ENDBRANCH   8  11
ENDBRANCH   7   8
ENDBRANCH   1   7
BRANCH   6  13
ATOM     13  N   LIG d   1      -0.575  76.052 116.930  0.00  0.00    -0.311 N 
ATOM     14  C   LIG d   1      -0.872  74.903 117.534  0.00  0.00     0.210 C 
ATOM     15  C   LIG d   1       0.202  74.379 118.493  0.00  0.00     0.109 C 
ATOM     16  O   LIG d   1      -1.910  74.252 117.343  0.00  0.00    -0.276 OA
ATOM     17  H   LIG d   1       0.303  76.496 117.119  0.00  0.00     0.149 HD
ENDBRANCH   6  13
BRANCH   5  18
ATOM     18  N   LIG d   1      -1.199  75.078 114.102  0.00  0.00     0.381 N 
ATOM     19  H   LIG d   1      -1.225  75.010 113.105  0.00  0.00    -0.090 HD
ATOM     20  H   LIG d   1      -2.056  74.700 114.467  0.00  0.00    -0.090 HD
ATOM     21  H   LIG d   1      -0.423  74.564 114.458  0.00  0.00    -0.090 HD
ENDBRANCH   5  18
BRANCH   3  22
ATOM     22  C   LIG d   1      -2.362  79.583 112.966  0.00  0.00     0.382 C 
ATOM     23  O   LIG d   1      -1.845  79.439 111.832  0.00  0.00    -0.241 OA
ATOM     24  O   LIG d   1      -3.060  80.588 113.199  0.00  0.00    -0.241 OA
ENDBRANCH   3  22
TORSDOF 7
ENDMDL
MODEL 3
REMARK VINA RESULT:      -4.3      1.546      2.001
REMARK  7 active torsions:
REMARK  status: ('A' for Active; 'I' for Inactive)
REMARK    1  A    between atoms: C_2  and  C_3 
REMARK    2  A    between atoms: C_3  and  O_6 
REMARK    3  A    between atoms: C_3  and  C_4 
REMARK    4  A    between atoms: C_7  and  O_6 
REMARK    5  A    between atoms: C_9  and  C_10 
REMARK    6  A    between atoms: N_15  and  C_14 
REMARK    7  A    between atoms: N_20  and  C_19 
REMARK       I    between atoms: C_22  and  N_20 
ROOT
ATOM      1  C   LIG d   1      -1.683  77.953 116.387  0.00  0.00     0.161 C 
ATOM      2  C   LIG d   1      -2.188  78.402 115.155  0.00  0.00     0.016 C 
ATOM      3  C   LIG d   1      -2.024  77.695 113.942  0.00  0.00     0.038 C 
ATOM      4  C   LIG d   1      -1.470  76.406 113.905  0.00  0.00     0.028 C 
ATOM      5  C   LIG d   1      -0.495  76.133 115.044  0.00  0.00    -0.047 C 
ATOM      6  C   LIG d   1      -1.174  76.497 116.384  0.00  0.00     0.091 C 
ENDROOT
BRANCH   1   7
ATOM      7  O   LIG d   1      -2.675  78.135 117.417  0.00  0.00    -0.368 OA
BRANCH   7   8
ATOM      8  C   LIG d   1      -2.364  79.119 118.434  0.00  0.00     0.119 C 
BRANCH   8   9
ATOM      9  C   LIG d   1      -0.998  79.737 118.078  0.00  0.00     0.028 C 
ATOM     10  C   LIG d   1      -0.777  81.100 118.754  0.00  0.00     0.006 C 
ENDBRANCH   8   9
BRANCH   8  11
ATOM     11  C   LIG d   1      -2.167  78.461 119.803  0.00  0.00     0.028 C 
ATOM     12  C   LIG d   1      -2.901  77.117 119.930  0.00  0.00     0.006 C 
ENDBRANCH   8  11
ENDBRANCH   7   8
ENDBRANCH   1   7
BRANCH   6  13
ATOM     13  N   LIG d   1      -0.259  76.339 117.545  0.00  0.00    -0.311 N 
ATOM     14  C   LIG d   1      -0.175  75.222 118.266  0.00  0.00     0.210 C 
ATOM     15  C   LIG d   1       0.817  75.278 119.431  0.00  0.00     0.109 C 
ATOM     16  O   LIG d   1      -0.806  74.180 118.031  0.00  0.00    -0.276 OA
ATOM     17  H   LIG d   1       0.312  77.125 117.786  0.00  0.00     0.149 HD
ENDBRANCH   6  13
BRANCH   5  18
ATOM     18  N   LIG d   1      -0.100  74.714 114.962  0.00  0.00     0.381 N 
ATOM     19  H   LIG d   1       0.579  74.510 115.668  0.00  0.00    -0.090 HD
ATOM     20  H   LIG d   1       0.317  74.544 114.064  0.00  0.00    -0.090 HD
ATOM     21  H   LIG d   1      -0.899  74.131 115.081  0.00  0.00    -0.090 HD
ENDBRANCH   5  18
BRANCH   3  22
ATOM     22  C   LIG d   1      -2.381  78.294 112.743  0.00  0.00     0.382 C 
ATOM     23  O   LIG d   1      -3.339  77.837 112.075  0.00  0.00    -0.241 OA
ATOM     24  O   LIG d   1      -1.728  79.257 112.300  0.00  0.00    -0.241 OA
ENDBRANCH   3  22
TORSDOF 7
ENDMDL
MODEL 4
REMARK VINA RESULT:      -4.2      1.687      2.017
REMARK  7 active torsions:
REMARK  status: ('A' for Active; 'I' for Inactive)
REMARK    1  A    between atoms: C_2  and  C_3 
REMARK    2  A    between atoms: C_3  and  O_6 
REMARK    3  A    between atoms: C_3  and  C_4 
REMARK    4  A    between atoms: C_7  and  O_6 
REMARK    5  A    between atoms: C_9  and  C_10 
REMARK    6  A    between atoms: N_15  and  C_14 
REMARK    7  A    between atoms: N_20  and  C_19 
REMARK       I    between atoms: C_22  and  N_20 
ROOT
ATOM      1  C   LIG d   1      -1.158  78.110 115.688  0.00  0.00     0.161 C 
ATOM      2  C   LIG d   1      -1.531  79.013 114.679  0.00  0.00     0.016 C 
ATOM      3  C   LIG d   1      -2.221  78.629 113.506  0.00  0.00     0.038 C 
ATOM      4  C   LIG d   1      -2.720  77.330 113.331  0.00  0.00     0.028 C 
ATOM      5  C   LIG d   1      -1.930  76.270 114.091  0.00  0.00    -0.047 C 
ATOM      6  C   LIG d   1      -1.793  76.708 115.567  0.00  0.00     0.091 C 
ENDROOT
BRANCH   1   7
ATOM      7  O   LIG d   1      -1.441  78.678 116.982  0.00  0.00    -0.368 OA
BRANCH   7   8
ATOM      8  C   LIG d   1      -0.335  79.338 117.643  0.00  0.00     0.119 C 
BRANCH   8   9
ATOM      9  C   LIG d   1       0.228  78.360 118.692  0.00  0.00     0.028 C 
ATOM     10  C   LIG d   1       1.537  77.696 118.233  0.00  0.00     0.006 C 
ENDBRANCH   8   9
BRANCH   8  11
ATOM     11  C   LIG d   1      -0.809  80.558 118.440  0.00  0.00     0.028 C 
ATOM     12  C   LIG d   1       0.336  81.517 118.800  0.00  0.00     0.006 C 
ENDBRANCH   8  11
ENDBRANCH   7   8
ENDBRANCH   1   7
BRANCH   6  13
ATOM     13  N   LIG d   1      -0.960  75.768 116.362  0.00  0.00    -0.311 N 
ATOM     14  C   LIG d   1      -1.425  75.078 117.403  0.00  0.00     0.210 C 
ATOM     15  C   LIG d   1      -0.394  74.181 118.095  0.00  0.00     0.109 C 
ATOM     16  O   LIG d   1      -2.600  75.100 117.798  0.00  0.00    -0.276 OA
ATOM     17  H   LIG d   1      -0.002  75.665 116.090  0.00  0.00     0.149 HD
ENDBRANCH   6  13
BRANCH   5  18
ATOM     18  N   LIG d   1      -2.639  74.987 113.932  0.00  0.00     0.381 N 
ATOM     19  H   LIG d   1      -3.367  74.915 114.615  0.00  0.00    -0.090 HD
ATOM     20  H   LIG d   1      -1.990  74.235 114.084  0.00  0.00    -0.090 HD
ATOM     21  H   LIG d   1      -3.025  74.921 113.016  0.00  0.00    -0.090 HD
ENDBRANCH   5  18
BRANCH   3  22
ATOM     22  C   LIG d   1      -2.381  79.541 112.473  0.00  0.00     0.382 C 
ATOM     23  O   LIG d   1      -1.634  79.487 111.467  0.00  0.00    -0.241 OA
ATOM     24  O   LIG d   1      -3.235  80.444 112.555  0.00  0.00    -0.241 OA
ENDBRANCH   3  22
TORSDOF 7
ENDMDL
MODEL 5
REMARK VINA RESULT:      -4.1      2.829      4.741
REMARK  7 active torsions:
REMARK  status: ('A' for Active; 'I' for Inactive)
REMARK    1  A    between atoms: C_2  and  C_3 
REMARK    2  A    between atoms: C_3  and  O_6 
REMARK    3  A    between atoms: C_3  and  C_4 
REMARK    4  A    between atoms: C_7  and  O_6 
REMARK    5  A    between atoms: C_9  and  C_10 
REMARK    6  A    between atoms: N_15  and  C_14 
REMARK    7  A    between atoms: N_20  and  C_19 
REMARK       I    between atoms: C_22  and  N_20 
ROOT
ATOM      1  C   LIG d   1       0.542  78.059 117.948  0.00  0.00     0.161 C 
ATOM      2  C   LIG d   1      -0.084  76.805 117.855  0.00  0.00     0.016 C 
ATOM      3  C   LIG d   1      -0.851  76.398 116.739  0.00  0.00     0.038 C 
ATOM      4  C   LIG d   1      -0.919  77.166 115.567  0.00  0.00     0.028 C 
ATOM      5  C   LIG d   1      -0.720  78.659 115.809  0.00  0.00    -0.047 C 
ATOM      6  C   LIG d   1       0.571  78.866 116.633  0.00  0.00     0.091 C 
ENDROOT
BRANCH   1   7
ATOM      7  O   LIG d   1       1.876  77.902 118.469  0.00  0.00    -0.368 OA
BRANCH   7   8
ATOM      8  C   LIG d   1       2.595  76.722 118.035  0.00  0.00     0.119 C 
BRANCH   8   9
ATOM      9  C   LIG d   1       3.238  76.086 119.283  0.00  0.00     0.028 C 
ATOM     10  C   LIG d   1       2.602  74.734 119.647  0.00  0.00     0.006 C 
ENDBRANCH   8   9
BRANCH   8  11
ATOM     11  C   LIG d   1       3.766  77.088 117.118  0.00  0.00     0.028 C 
ATOM     12  C   LIG d   1       4.885  77.843 117.852  0.00  0.00     0.006 C 
ENDBRANCH   8  11
ENDBRANCH   7   8
ENDBRANCH   1   7
BRANCH   6  13
ATOM     13  N   LIG d   1       0.795  80.292 116.986  0.00  0.00    -0.311 N 
ATOM     14  C   LIG d   1       1.948  80.926 116.778  0.00  0.00     0.210 C 
ATOM     15  C   LIG d   1       1.972  82.389 117.233  0.00  0.00     0.109 C 
ATOM     16  O   LIG d   1       2.941  80.426 116.230  0.00  0.00    -0.276 OA
ATOM     17  H   LIG d   1       0.031  80.784 117.406  0.00  0.00     0.149 HD
ENDBRANCH   6  13
BRANCH   5  18
ATOM     18  N   LIG d   1      -0.678  79.321 114.491  0.00  0.00     0.381 N 
ATOM     19  H   LIG d   1      -1.352  78.905 113.881  0.00  0.00    -0.090 HD
ATOM     20  H   LIG d   1       0.234  79.190 114.091  0.00  0.00    -0.090 HD
ATOM     21  H   LIG d   1      -0.868  80.294 114.593  0.00  0.00    -0.090 HD
ENDBRANCH   5  18
BRANCH   3  22
ATOM     22  C   LIG d   1      -1.592  75.228 116.804  0.00  0.00     0.382 C 
ATOM     23  O   LIG d   1      -1.072  74.180 117.257  0.00  0.00    -0.241 OA
ATOM     24  O   LIG d   1      -2.761  75.197 116.375  0.00  0.00    -0.241 OA
ENDBRANCH   3  22
TORSDOF 7
ENDMDL
MODEL 6
REMARK VINA RESULT:      -4.1      2.249      4.943
REMARK  7 active torsions:
REMARK  status: ('A' for Active; 'I' for Inactive)
REMARK    1  A    between atoms: C_2  and  C_3 
REMARK    2  A    between atoms: C_3  and  O_6 
REMARK    3  A    between atoms: C_3  and  C_4 
REMARK    4  A    between atoms: C_7  and  O_6 
REMARK    5  A    between atoms: C_9  and  C_10 
REMARK    6  A    between atoms: N_15  and  C_14 
REMARK    7  A    between atoms: N_20  and  C_19 
REMARK       I    between atoms: C_22  and  N_20 
ROOT
ATOM      1  C   LIG d   1      -1.366  78.527 116.190  0.00  0.00     0.161 C 
ATOM      2  C   LIG d   1      -1.219  77.372 116.976  0.00  0.00     0.016 C 
ATOM      3  C   LIG d   1      -1.644  76.089 116.561  0.00  0.00     0.038 C 
ATOM      4  C   LIG d   1      -2.110  75.847 115.261  0.00  0.00     0.028 C 
ATOM      5  C   LIG d   1      -2.746  77.071 114.608  0.00  0.00    -0.047 C 
ATOM      6  C   LIG d   1      -1.771  78.265 114.725  0.00  0.00     0.091 C 
ENDROOT
BRANCH   1   7
ATOM      7  O   LIG d   1      -0.157  79.311 116.243  0.00  0.00    -0.368 OA
BRANCH   7   8
ATOM      8  C   LIG d   1       0.458  79.447 117.548  0.00  0.00     0.119 C 
BRANCH   8   9
ATOM      9  C   LIG d   1       0.172  80.876 118.048  0.00  0.00     0.028 C 
ATOM     10  C   LIG d   1      -1.028  80.933 119.008  0.00  0.00     0.006 C 
ENDBRANCH   8   9
BRANCH   8  11
ATOM     11  C   LIG d   1       1.983  79.346 117.458  0.00  0.00     0.028 C 
ATOM     12  C   LIG d   1       2.510  77.945 117.809  0.00  0.00     0.006 C 
ENDBRANCH   8  11
ENDBRANCH   7   8
ENDBRANCH   1   7
BRANCH   6  13
ATOM     13  N   LIG d   1      -2.349  79.523 114.186  0.00  0.00    -0.311 N 
ATOM     14  C   LIG d   1      -2.225  79.901 112.915  0.00  0.00     0.210 C 
ATOM     15  C   LIG d   1      -2.880  81.243 112.573  0.00  0.00     0.109 C 
ATOM     16  O   LIG d   1      -1.663  79.238 112.031  0.00  0.00    -0.276 OA
ATOM     17  H   LIG d   1      -2.849  80.107 114.827  0.00  0.00     0.149 HD
ENDBRANCH   6  13
BRANCH   5  18
ATOM     18  N   LIG d   1      -3.062  76.717 113.211  0.00  0.00     0.381 N 
ATOM     19  H   LIG d   1      -2.848  77.487 112.610  0.00  0.00    -0.090 HD
ATOM     20  H   LIG d   1      -4.046  76.525 113.139  0.00  0.00    -0.090 HD
ATOM     21  H   LIG d   1      -2.538  75.915 112.936  0.00  0.00    -0.090 HD
ENDBRANCH   5  18
BRANCH   3  22
ATOM     22  C   LIG d   1      -1.641  75.038 117.466  0.00  0.00     0.382 C 
ATOM     23  O   LIG d   1      -0.721  74.185 117.433  0.00  0.00    -0.241 OA
ATOM     24  O   LIG d   1      -2.570  74.908 118.285  0.00  0.00    -0.241 OA
ENDBRANCH   3  22
TORSDOF 7
ENDMDL
MODEL 7
REMARK VINA RESULT:      -3.9      1.553      2.252
REMARK  7 active torsions:
REMARK  status: ('A' for Active; 'I' for Inactive)
REMARK    1  A    between atoms: C_2  and  C_3 
REMARK    2  A    between atoms: C_3  and  O_6 
REMARK    3  A    between atoms: C_3  and  C_4 
REMARK    4  A    between atoms: C_7  and  O_6 
REMARK    5  A    between atoms: C_9  and  C_10 
REMARK    6  A    between atoms: N_15  and  C_14 
REMARK    7  A    between atoms: N_20  and  C_19 
REMARK       I    between atoms: C_22  and  N_20 
ROOT
ATOM      1  C   LIG d   1      -0.925  78.229 116.028  0.00  0.00     0.161 C 
ATOM      2  C   LIG d   1      -1.263  79.078 114.961  0.00  0.00     0.016 C 
ATOM      3  C   LIG d   1      -1.711  78.609 113.705  0.00  0.00     0.038 C 
ATOM      4  C   LIG d   1      -1.997  77.254 113.479  0.00  0.00     0.028 C 
ATOM      5  C   LIG d   1      -1.191  76.309 114.363  0.00  0.00    -0.047 C 
ATOM      6  C   LIG d   1      -1.336  76.754 115.836  0.00  0.00     0.091 C 
ENDROOT
BRANCH   1   7
ATOM      7  O   LIG d   1      -1.472  78.747 117.257  0.00  0.00    -0.368 OA
BRANCH   7   8
ATOM      8  C   LIG d   1      -0.511  79.200 118.242  0.00  0.00     0.119 C 
BRANCH   8   9
ATOM      9  C   LIG d   1      -0.763  80.701 118.478  0.00  0.00     0.028 C 
ATOM     10  C   LIG d   1      -1.791  80.955 119.594  0.00  0.00     0.006 C 
ENDBRANCH   8   9
BRANCH   8  11
ATOM     11  C   LIG d   1       0.921  79.109 117.706  0.00  0.00     0.028 C 
ATOM     12  C   LIG d   1       1.562  80.487 117.482  0.00  0.00     0.006 C 
ENDBRANCH   8  11
ENDBRANCH   7   8
ENDBRANCH   1   7
BRANCH   6  13
ATOM     13  N   LIG d   1      -0.511  75.933 116.761  0.00  0.00    -0.311 N 
ATOM     14  C   LIG d   1      -0.981  74.874 117.417  0.00  0.00     0.210 C 
ATOM     15  C   LIG d   1       0.032  74.181 118.335  0.00  0.00     0.109 C 
ATOM     16  O   LIG d   1      -2.130  74.423 117.302  0.00  0.00    -0.276 OA
ATOM     17  H   LIG d   1       0.442  76.210 116.889  0.00  0.00     0.149 HD
ENDBRANCH   6  13
BRANCH   5  18
ATOM     18  N   LIG d   1      -1.687  74.941 114.121  0.00  0.00     0.381 N 
ATOM     19  H   LIG d   1      -1.080  74.468 113.483  0.00  0.00    -0.090 HD
ATOM     20  H   LIG d   1      -2.601  74.995 113.706  0.00  0.00    -0.090 HD
ATOM     21  H   LIG d   1      -1.734  74.438 114.980  0.00  0.00    -0.090 HD
ENDBRANCH   5  18
BRANCH   3  22
ATOM     22  C   LIG d   1      -1.839  79.495 112.646  0.00  0.00     0.382 C 
ATOM     23  O   LIG d   1      -1.715  80.728 112.842  0.00  0.00    -0.241 OA
ATOM     24  O   LIG d   1      -2.121  79.080 111.506  0.00  0.00    -0.241 OA
ENDBRANCH   3  22
TORSDOF 7
ENDMDL
MODEL 8
REMARK VINA RESULT:      -3.7      2.524      6.169
REMARK  7 active torsions:
REMARK  status: ('A' for Active; 'I' for Inactive)
REMARK    1  A    between atoms: C_2  and  C_3 
REMARK    2  A    between atoms: C_3  and  O_6 
REMARK    3  A    between atoms: C_3  and  C_4 
REMARK    4  A    between atoms: C_7  and  O_6 
REMARK    5  A    between atoms: C_9  and  C_10 
REMARK    6  A    between atoms: N_15  and  C_14 
REMARK    7  A    between atoms: N_20  and  C_19 
REMARK       I    between atoms: C_22  and  N_20 
ROOT
ATOM      1  C   LIG d   1       0.731  77.274 117.160  0.00  0.00     0.161 C 
ATOM      2  C   LIG d   1       1.806  77.024 118.029  0.00  0.00     0.016 C 
ATOM      3  C   LIG d   1       2.598  78.045 118.601  0.00  0.00     0.038 C 
ATOM      4  C   LIG d   1       2.272  79.403 118.461  0.00  0.00     0.028 C 
ATOM      5  C   LIG d   1       1.499  79.711 117.183  0.00  0.00    -0.047 C 
ATOM      6  C   LIG d   1       0.291  78.751 117.084  0.00  0.00     0.091 C 
ENDROOT
BRANCH   1   7
ATOM      7  O   LIG d   1      -0.388  76.436 117.513  0.00  0.00    -0.368 OA
BRANCH   7   8
ATOM      8  C   LIG d   1      -0.659  75.326 116.621  0.00  0.00     0.119 C 
BRANCH   8   9
ATOM      9  C   LIG d   1       0.021  75.639 115.273  0.00  0.00     0.028 C 
ATOM     10  C   LIG d   1      -0.970  75.613 114.097  0.00  0.00     0.006 C 
ENDBRANCH   8   9
BRANCH   8  11
ATOM     11  C   LIG d   1      -2.153  75.217 116.306  0.00  0.00     0.028 C 
ATOM     12  C   LIG d   1      -3.033  75.271 117.565  0.00  0.00     0.006 C 
ENDBRANCH   8  11
ENDBRANCH   7   8
ENDBRANCH   1   7
BRANCH   6  13
ATOM     13  N   LIG d   1      -0.471  78.928 115.821  0.00  0.00    -0.311 N 
ATOM     14  C   LIG d   1      -1.801  78.904 115.758  0.00  0.00     0.210 C 
ATOM     15  C   LIG d   1      -2.386  79.087 114.354  0.00  0.00     0.109 C 
ATOM     16  O   LIG d   1      -2.554  78.779 116.736  0.00  0.00    -0.276 OA
ATOM     17  H   LIG d   1       0.059  79.066 114.983  0.00  0.00     0.149 HD
ENDBRANCH   6  13
BRANCH   5  18
ATOM     18  N   LIG d   1       1.106  81.132 117.232  0.00  0.00     0.381 N 
ATOM     19  H   LIG d   1       1.901  81.696 117.455  0.00  0.00    -0.090 HD
ATOM     20  H   LIG d   1       0.419  81.254 117.955  0.00  0.00    -0.090 HD
ATOM     21  H   LIG d   1       0.727  81.411 116.354  0.00  0.00    -0.090 HD
ENDBRANCH   5  18
BRANCH   3  22
ATOM     22  C   LIG d   1       3.755  77.714 119.291  0.00  0.00     0.382 C 
ATOM     23  O   LIG d   1       4.153  76.524 119.312  0.00  0.00    -0.241 OA
ATOM     24  O   LIG d   1       4.381  78.581 119.929  0.00  0.00    -0.241 OA
ENDBRANCH   3  22
TORSDOF 7
ENDMDL
MODEL 9
REMARK VINA RESULT:      -3.6      2.334      4.855
REMARK  7 active torsions:
REMARK  status: ('A' for Active; 'I' for Inactive)
REMARK    1  A    between atoms: C_2  and  C_3 
REMARK    2  A    between atoms: C_3  and  O_6 
REMARK    3  A    between atoms: C_3  and  C_4 
REMARK    4  A    between atoms: C_7  and  O_6 
REMARK    5  A    between atoms: C_9  and  C_10 
REMARK    6  A    between atoms: N_15  and  C_14 
REMARK    7  A    between atoms: N_20  and  C_19 
REMARK       I    between atoms: C_22  and  N_20 
ROOT
ATOM      1  C   LIG d   1      -0.264  78.217 117.676  0.00  0.00     0.161 C 
ATOM      2  C   LIG d   1       0.395  79.342 117.153  0.00  0.00     0.016 C 
ATOM      3  C   LIG d   1       1.803  79.476 117.125  0.00  0.00     0.038 C 
ATOM      4  C   LIG d   1       2.655  78.421 117.484  0.00  0.00     0.028 C 
ATOM      5  C   LIG d   1       2.036  77.457 118.490  0.00  0.00    -0.047 C 
ATOM      6  C   LIG d   1       0.651  77.010 117.970  0.00  0.00     0.091 C 
ENDROOT
BRANCH   1   7
ATOM      7  O   LIG d   1      -1.340  77.829 116.799  0.00  0.00    -0.368 OA
BRANCH   7   8
ATOM      8  C   LIG d   1      -1.056  77.888 115.379  0.00  0.00     0.119 C 
BRANCH   8   9
ATOM      9  C   LIG d   1      -2.181  78.706 114.716  0.00  0.00     0.028 C 
ATOM     10  C   LIG d   1      -1.788  79.222 113.322  0.00  0.00     0.006 C 
ENDBRANCH   8   9
BRANCH   8  11
ATOM     11  C   LIG d   1      -1.133  76.499 114.738  0.00  0.00     0.028 C 
ATOM     12  C   LIG d   1      -2.423  75.746 115.100  0.00  0.00     0.006 C 
ENDBRANCH   8  11
ENDBRANCH   7   8
ENDBRANCH   1   7
BRANCH   6  13
ATOM     13  N   LIG d   1      -0.060  76.131 118.934  0.00  0.00    -0.311 N 
ATOM     14  C   LIG d   1      -0.496  74.909 118.630  0.00  0.00     0.210 C 
ATOM     15  C   LIG d   1      -1.222  74.180 119.765  0.00  0.00     0.109 C 
ATOM     16  O   LIG d   1      -0.322  74.348 117.538  0.00  0.00    -0.276 OA
ATOM     17  H   LIG d   1      -0.217  76.495 119.854  0.00  0.00     0.149 HD
ENDBRANCH   6  13
BRANCH   5  18
ATOM     18  N   LIG d   1       2.976  76.335 118.669  0.00  0.00     0.381 N 
ATOM     19  H   LIG d   1       3.200  75.935 117.780  0.00  0.00    -0.090 HD
ATOM     20  H   LIG d   1       2.536  75.628 119.231  0.00  0.00    -0.090 HD
ATOM     21  H   LIG d   1       3.807  76.654 119.117  0.00  0.00    -0.090 HD
ENDBRANCH   5  18
BRANCH   3  22
ATOM     22  C   LIG d   1       2.370  80.691 116.772  0.00  0.00     0.382 C 
ATOM     23  O   LIG d   1       3.332  81.149 117.435  0.00  0.00    -0.241 OA
ATOM     24  O   LIG d   1       1.904  81.355 115.828  0.00  0.00    -0.241 OA
ENDBRANCH   3  22
TORSDOF 7
ENDMDL
