MODEL 1
REMARK VINA RESULT:      -5.6      0.000      0.000
REMARK  7 active torsions:
REMARK  status: ('A' for Active; 'I' for Inactive)
REMARK    1  A    between atoms: C_2  and  C_3 
REMARK    2  A    between atoms: C_3  and  O_6 
REMARK    3  A    between atoms: C_3  and  C_4 
REMARK    4  A    between atoms: C_7  and  O_6 
REMARK    5  A    between atoms: C_9  and  C_10 
REMARK    6  A    between atoms: N_15  and  C_14 
REMARK    7  A    between atoms: N_20  and  C_19 
REMARK       I    between atoms: C_22  and  N_20 
ROOT
ATOM      1  C   LIG d   1       0.230  81.449 112.981  0.00  0.00     0.161 C 
ATOM      2  C   LIG d   1       1.150  82.402 112.512  0.00  0.00     0.016 C 
ATOM      3  C   LIG d   1       1.500  82.542 111.150  0.00  0.00     0.038 C 
ATOM      4  C   LIG d   1       0.834  81.835 110.137  0.00  0.00     0.028 C 
ATOM      5  C   LIG d   1       0.257  80.504 110.607  0.00  0.00    -0.047 C 
ATOM      6  C   LIG d   1      -0.588  80.744 111.879  0.00  0.00     0.091 C 
ENDROOT
BRANCH   1   7
ATOM      7  O   LIG d   1      -0.650  82.054 113.948  0.00  0.00    -0.368 OA
BRANCH   7   8
ATOM      8  C   LIG d   1      -0.608  81.497 115.285  0.00  0.00     0.119 C 
BRANCH   8   9
ATOM      9  C   LIG d   1      -2.058  81.424 115.802  0.00  0.00     0.028 C 
ATOM     10  C   LIG d   1      -3.008  82.341 115.015  0.00  0.00     0.006 C 
ENDBRANCH   8   9
BRANCH   8  11
ATOM     11  C   LIG d   1       0.123  82.429 116.255  0.00  0.00     0.028 C 
ATOM     12  C   LIG d   1      -0.014  81.990 117.721  0.00  0.00     0.006 C 
ENDBRANCH   8  11
ENDBRANCH   7   8
ENDBRANCH   1   7
BRANCH   6  13
ATOM     13  N   LIG d   1      -1.120  79.481 112.452  0.00  0.00    -0.311 N 
ATOM     14  C   LIG d   1      -2.413  79.276 112.702  0.00  0.00     0.210 C 
ATOM     15  C   LIG d   1      -2.745  77.911 113.312  0.00  0.00     0.109 C 
ATOM     16  O   LIG d   1      -3.319  80.083 112.445  0.00  0.00    -0.276 OA
ATOM     17  H   LIG d   1      -0.458  78.760 112.662  0.00  0.00     0.149 HD
ENDBRANCH   6  13
BRANCH   5  18
ATOM     18  N   LIG d   1      -0.525  79.939 109.491  0.00  0.00     0.381 N 
ATOM     19  H   LIG d   1      -0.187  80.302 108.622  0.00  0.00    -0.090 HD
ATOM     20  H   LIG d   1      -1.486  80.213 109.596  0.00  0.00    -0.090 HD
ATOM     21  H   LIG d   1      -0.453  78.945 109.494  0.00  0.00    -0.090 HD
ENDBRANCH   5  18
BRANCH   3  22
ATOM     22  C   LIG d   1       2.553  83.370 110.792  0.00  0.00     0.382 C 
ATOM     23  O   LIG d   1       3.666  83.248 111.358  0.00  0.00    -0.241 OA
ATOM     24  O   LIG d   1       2.392  84.266 109.941  0.00  0.00    -0.241 OA
ENDBRANCH   3  22
TORSDOF 7
ENDMDL
MODEL 2
REMARK VINA RESULT:      -5.3      0.653      1.604
REMARK  7 active torsions:
REMARK  status: ('A' for Active; 'I' for Inactive)
REMARK    1  A    between atoms: C_2  and  C_3 
REMARK    2  A    between atoms: C_3  and  O_6 
REMARK    3  A    between atoms: C_3  and  C_4 
REMARK    4  A    between atoms: C_7  and  O_6 
REMARK    5  A    between atoms: C_9  and  C_10 
REMARK    6  A    between atoms: N_15  and  C_14 
REMARK    7  A    between atoms: N_20  and  C_19 
REMARK       I    between atoms: C_22  and  N_20 
ROOT
ATOM      1  C   LIG d   1       0.263  81.560 112.853  0.00  0.00     0.161 C 
ATOM      2  C   LIG d   1       1.203  82.474 112.351  0.00  0.00     0.016 C 
ATOM      3  C   LIG d   1       1.569  82.544 110.987  0.00  0.00     0.038 C 
ATOM      4  C   LIG d   1       0.902  81.801 110.001  0.00  0.00     0.028 C 
ATOM      5  C   LIG d   1       0.298  80.503 110.527  0.00  0.00    -0.047 C 
ATOM      6  C   LIG d   1      -0.556  80.817 111.777  0.00  0.00     0.091 C 
ENDROOT
BRANCH   1   7
ATOM      7  O   LIG d   1      -0.617  82.224 113.782  0.00  0.00    -0.368 OA
BRANCH   7   8
ATOM      8  C   LIG d   1      -0.259  82.123 115.182  0.00  0.00     0.119 C 
BRANCH   8   9
ATOM      9  C   LIG d   1       0.552  80.825 115.360  0.00  0.00     0.028 C 
ATOM     10  C   LIG d   1       1.783  81.022 116.262  0.00  0.00     0.006 C 
ENDBRANCH   8   9
BRANCH   8  11
ATOM     11  C   LIG d   1      -1.500  81.950 116.063  0.00  0.00     0.028 C 
ATOM     12  C   LIG d   1      -2.813  82.136 115.287  0.00  0.00     0.006 C 
ENDBRANCH   8  11
ENDBRANCH   7   8
ENDBRANCH   1   7
BRANCH   6  13
ATOM     13  N   LIG d   1      -1.116  79.591 112.403  0.00  0.00    -0.311 N 
ATOM     14  C   LIG d   1      -2.408  79.438 112.688  0.00  0.00     0.210 C 
ATOM     15  C   LIG d   1      -2.770  78.105 113.350  0.00  0.00     0.109 C 
ATOM     16  O   LIG d   1      -3.293  80.266 112.426  0.00  0.00    -0.276 OA
ATOM     17  H   LIG d   1      -0.472  78.856 112.621  0.00  0.00     0.149 HD
ENDBRANCH   6  13
BRANCH   5  18
ATOM     18  N   LIG d   1      -0.483  79.899 109.430  0.00  0.00     0.381 N 
ATOM     19  H   LIG d   1      -0.352  78.907 109.429  0.00  0.00    -0.090 HD
ATOM     20  H   LIG d   1      -0.149  80.263 108.555  0.00  0.00    -0.090 HD
ATOM     21  H   LIG d   1      -1.449  80.114 109.541  0.00  0.00    -0.090 HD
ENDBRANCH   5  18
BRANCH   3  22
ATOM     22  C   LIG d   1       2.639  83.337 110.602  0.00  0.00     0.382 C 
ATOM     23  O   LIG d   1       3.656  83.415 111.333  0.00  0.00    -0.241 OA
ATOM     24  O   LIG d   1       2.584  84.010 109.555  0.00  0.00    -0.241 OA
ENDBRANCH   3  22
TORSDOF 7
ENDMDL
MODEL 3
REMARK VINA RESULT:      -5.3      3.418      4.683
REMARK  7 active torsions:
REMARK  status: ('A' for Active; 'I' for Inactive)
REMARK    1  A    between atoms: C_2  and  C_3 
REMARK    2  A    between atoms: C_3  and  O_6 
REMARK    3  A    between atoms: C_3  and  C_4 
REMARK    4  A    between atoms: C_7  and  O_6 
REMARK    5  A    between atoms: C_9  and  C_10 
REMARK    6  A    between atoms: N_15  and  C_14 
REMARK    7  A    between atoms: N_20  and  C_19 
REMARK       I    between atoms: C_22  and  N_20 
ROOT
ATOM      1  C   LIG d   1      -1.668  79.297 115.453  0.00  0.00     0.161 C 
ATOM      2  C   LIG d   1      -2.055  80.634 115.260  0.00  0.00     0.016 C 
ATOM      3  C   LIG d   1      -2.370  81.178 113.994  0.00  0.00     0.038 C 
ATOM      4  C   LIG d   1      -2.466  80.377 112.846  0.00  0.00     0.028 C 
ATOM      5  C   LIG d   1      -1.594  79.127 112.904  0.00  0.00    -0.047 C 
ATOM      6  C   LIG d   1      -1.875  78.381 114.229  0.00  0.00     0.091 C 
ENDROOT
BRANCH   1   7
ATOM      7  O   LIG d   1      -2.343  78.754 116.605  0.00  0.00    -0.368 OA
BRANCH   7   8
ATOM      8  C   LIG d   1      -1.529  78.556 117.786  0.00  0.00     0.119 C 
BRANCH   8   9
ATOM      9  C   LIG d   1      -1.541  77.049 118.109  0.00  0.00     0.028 C 
ATOM     10  C   LIG d   1      -2.913  76.404 117.851  0.00  0.00     0.006 C 
ENDBRANCH   8   9
BRANCH   8  11
ATOM     11  C   LIG d   1      -2.147  79.238 119.010  0.00  0.00     0.028 C 
ATOM     12  C   LIG d   1      -2.028  80.769 118.962  0.00  0.00     0.006 C 
ENDBRANCH   8  11
ENDBRANCH   7   8
ENDBRANCH   1   7
BRANCH   6  13
ATOM     13  N   LIG d   1      -1.002  77.191 114.405  0.00  0.00    -0.311 N 
ATOM     14  C   LIG d   1      -1.465  75.942 114.447  0.00  0.00     0.210 C 
ATOM     15  C   LIG d   1      -0.397  74.864 114.656  0.00  0.00     0.109 C 
ATOM     16  O   LIG d   1      -2.654  75.623 114.300  0.00  0.00    -0.276 OA
ATOM     17  H   LIG d   1      -0.019  77.356 114.501  0.00  0.00     0.149 HD
ENDBRANCH   6  13
BRANCH   5  18
ATOM     18  N   LIG d   1      -1.896  78.317 111.709  0.00  0.00     0.381 N 
ATOM     19  H   LIG d   1      -1.661  77.360 111.881  0.00  0.00    -0.090 HD
ATOM     20  H   LIG d   1      -1.335  78.646 110.943  0.00  0.00    -0.090 HD
ATOM     21  H   LIG d   1      -2.862  78.394 111.480  0.00  0.00    -0.090 HD
ENDBRANCH   5  18
BRANCH   3  22
ATOM     22  C   LIG d   1      -2.553  82.545 113.860  0.00  0.00     0.382 C 
ATOM     23  O   LIG d   1      -1.993  83.164 112.923  0.00  0.00    -0.241 OA
ATOM     24  O   LIG d   1      -3.236  83.175 114.689  0.00  0.00    -0.241 OA
ENDBRANCH   3  22
TORSDOF 7
ENDMDL
MODEL 4
REMARK VINA RESULT:      -4.8      2.202      5.383
REMARK  7 active torsions:
REMARK  status: ('A' for Active; 'I' for Inactive)
REMARK    1  A    between atoms: C_2  and  C_3 
REMARK    2  A    between atoms: C_3  and  O_6 
REMARK    3  A    between atoms: C_3  and  C_4 
REMARK    4  A    between atoms: C_7  and  O_6 
REMARK    5  A    between atoms: C_9  and  C_10 
REMARK    6  A    between atoms: N_15  and  C_14 
REMARK    7  A    between atoms: N_20  and  C_19 
REMARK       I    between atoms: C_22  and  N_20 
ROOT
ATOM      1  C   LIG d   1      -1.700  80.033 114.685  0.00  0.00     0.161 C 
ATOM      2  C   LIG d   1      -2.178  78.785 115.118  0.00  0.00     0.016 C 
ATOM      3  C   LIG d   1      -2.421  77.699 114.245  0.00  0.00     0.038 C 
ATOM      4  C   LIG d   1      -2.056  77.741 112.891  0.00  0.00     0.028 C 
ATOM      5  C   LIG d   1      -2.039  79.151 112.311  0.00  0.00    -0.047 C 
ATOM      6  C   LIG d   1      -1.191  80.061 113.229  0.00  0.00     0.091 C 
ENDROOT
BRANCH   1   7
ATOM      7  O   LIG d   1      -0.675  80.502 115.583  0.00  0.00    -0.368 OA
BRANCH   7   8
ATOM      8  C   LIG d   1      -0.999  81.680 116.361  0.00  0.00     0.119 C 
BRANCH   8   9
ATOM      9  C   LIG d   1       0.305  82.478 116.558  0.00  0.00     0.028 C 
ATOM     10  C   LIG d   1       0.596  83.426 115.383  0.00  0.00     0.006 C 
ENDBRANCH   8   9
BRANCH   8  11
ATOM     11  C   LIG d   1      -1.463  81.306 117.772  0.00  0.00     0.028 C 
ATOM     12  C   LIG d   1      -0.438  81.679 118.855  0.00  0.00     0.006 C 
ENDBRANCH   8  11
ENDBRANCH   7   8
ENDBRANCH   1   7
BRANCH   6  13
ATOM     13  N   LIG d   1      -1.192  81.478 112.779  0.00  0.00    -0.311 N 
ATOM     14  C   LIG d   1      -0.263  81.993 111.976  0.00  0.00     0.210 C 
ATOM     15  C   LIG d   1      -0.440  83.479 111.652  0.00  0.00     0.109 C 
ATOM     16  O   LIG d   1       0.674  81.352 111.476  0.00  0.00    -0.276 OA
ATOM     17  H   LIG d   1      -1.934  82.062 113.113  0.00  0.00     0.149 HD
ENDBRANCH   6  13
BRANCH   5  18
ATOM     18  N   LIG d   1      -1.510  79.062 110.937  0.00  0.00     0.381 N 
ATOM     19  H   LIG d   1      -1.844  79.833 110.394  0.00  0.00    -0.090 HD
ATOM     20  H   LIG d   1      -1.842  78.212 110.515  0.00  0.00    -0.090 HD
ATOM     21  H   LIG d   1      -0.514  79.065 110.954  0.00  0.00    -0.090 HD
ENDBRANCH   5  18
BRANCH   3  22
ATOM     22  C   LIG d   1      -3.072  76.570 114.717  0.00  0.00     0.382 C 
ATOM     23  O   LIG d   1      -3.257  76.422 115.949  0.00  0.00    -0.241 OA
ATOM     24  O   LIG d   1      -3.437  75.676 113.930  0.00  0.00    -0.241 OA
ENDBRANCH   3  22
TORSDOF 7
ENDMDL
MODEL 5
REMARK VINA RESULT:      -4.8      3.101      5.011
REMARK  7 active torsions:
REMARK  status: ('A' for Active; 'I' for Inactive)
REMARK    1  A    between atoms: C_2  and  C_3 
REMARK    2  A    between atoms: C_3  and  O_6 
REMARK    3  A    between atoms: C_3  and  C_4 
REMARK    4  A    between atoms: C_7  and  O_6 
REMARK    5  A    between atoms: C_9  and  C_10 
REMARK    6  A    between atoms: N_15  and  C_14 
REMARK    7  A    between atoms: N_20  and  C_19 
REMARK       I    between atoms: C_22  and  N_20 
ROOT
ATOM      1  C   LIG d   1      -2.541  80.329 114.964  0.00  0.00     0.161 C 
ATOM      2  C   LIG d   1      -2.492  81.244 113.899  0.00  0.00     0.016 C 
ATOM      3  C   LIG d   1      -1.310  81.906 113.496  0.00  0.00     0.038 C 
ATOM      4  C   LIG d   1      -0.057  81.582 114.038  0.00  0.00     0.028 C 
ATOM      5  C   LIG d   1      -0.135  81.033 115.459  0.00  0.00    -0.047 C 
ATOM      6  C   LIG d   1      -1.164  79.880 115.495  0.00  0.00     0.091 C 
ENDROOT
BRANCH   1   7
ATOM      7  O   LIG d   1      -3.331  79.183 114.588  0.00  0.00    -0.368 OA
BRANCH   7   8
ATOM      8  C   LIG d   1      -2.616  78.099 113.947  0.00  0.00     0.119 C 
BRANCH   8   9
ATOM      9  C   LIG d   1      -3.029  78.085 112.463  0.00  0.00     0.028 C 
ATOM     10  C   LIG d   1      -1.984  78.755 111.556  0.00  0.00     0.006 C 
ENDBRANCH   8   9
BRANCH   8  11
ATOM     11  C   LIG d   1      -3.051  76.739 114.502  0.00  0.00     0.028 C 
ATOM     12  C   LIG d   1      -1.867  75.798 114.770  0.00  0.00     0.006 C 
ENDBRANCH   8  11
ENDBRANCH   7   8
ENDBRANCH   1   7
BRANCH   6  13
ATOM     13  N   LIG d   1      -1.364  79.341 116.866  0.00  0.00    -0.311 N 
ATOM     14  C   LIG d   1      -0.677  78.311 117.356  0.00  0.00     0.210 C 
ATOM     15  C   LIG d   1      -1.054  77.903 118.784  0.00  0.00     0.109 C 
ATOM     16  O   LIG d   1       0.231  77.716 116.755  0.00  0.00    -0.276 OA
ATOM     17  H   LIG d   1      -2.059  79.785 117.433  0.00  0.00     0.149 HD
ENDBRANCH   6  13
BRANCH   5  18
ATOM     18  N   LIG d   1       1.223  80.609 115.848  0.00  0.00     0.381 N 
ATOM     19  H   LIG d   1       1.651  80.109 115.095  0.00  0.00    -0.090 HD
ATOM     20  H   LIG d   1       1.157  79.992 116.639  0.00  0.00    -0.090 HD
ATOM     21  H   LIG d   1       1.774  81.405 116.084  0.00  0.00    -0.090 HD
ENDBRANCH   5  18
BRANCH   3  22
ATOM     22  C   LIG d   1      -1.380  82.934 112.568  0.00  0.00     0.382 C 
ATOM     23  O   LIG d   1      -1.640  84.102 112.945  0.00  0.00    -0.241 OA
ATOM     24  O   LIG d   1      -1.230  82.700 111.354  0.00  0.00    -0.241 OA
ENDBRANCH   3  22
TORSDOF 7
ENDMDL
MODEL 6
REMARK VINA RESULT:      -4.4      2.127      4.706
REMARK  7 active torsions:
REMARK  status: ('A' for Active; 'I' for Inactive)
REMARK    1  A    between atoms: C_2  and  C_3 
REMARK    2  A    between atoms: C_3  and  O_6 
REMARK    3  A    between atoms: C_3  and  C_4 
REMARK    4  A    between atoms: C_7  and  O_6 
REMARK    5  A    between atoms: C_9  and  C_10 
REMARK    6  A    between atoms: N_15  and  C_14 
REMARK    7  A    between atoms: N_20  and  C_19 
REMARK       I    between atoms: C_22  and  N_20 
ROOT
ATOM      1  C   LIG d   1      -0.624  81.220 113.488  0.00  0.00     0.161 C 
ATOM      2  C   LIG d   1      -1.525  80.175 113.752  0.00  0.00     0.016 C 
ATOM      3  C   LIG d   1      -1.909  79.216 112.787  0.00  0.00     0.038 C 
ATOM      4  C   LIG d   1      -1.297  79.147 111.526  0.00  0.00     0.028 C 
ATOM      5  C   LIG d   1      -0.752  80.487 111.044  0.00  0.00    -0.047 C 
ATOM      6  C   LIG d   1       0.137  81.095 112.152  0.00  0.00     0.091 C 
ENDROOT
BRANCH   1   7
ATOM      7  O   LIG d   1       0.303  81.354 114.583  0.00  0.00    -0.368 OA
BRANCH   7   8
ATOM      8  C   LIG d   1      -0.026  82.354 115.579  0.00  0.00     0.119 C 
BRANCH   8   9
ATOM      9  C   LIG d   1       1.273  83.106 115.926  0.00  0.00     0.028 C 
ATOM     10  C   LIG d   1       1.685  84.103 114.830  0.00  0.00     0.006 C 
ENDBRANCH   8   9
BRANCH   8  11
ATOM     11  C   LIG d   1      -0.482  81.705 116.890  0.00  0.00     0.028 C 
ATOM     12  C   LIG d   1       0.337  82.174 118.103  0.00  0.00     0.006 C 
ENDBRANCH   8  11
ENDBRANCH   7   8
ENDBRANCH   1   7
BRANCH   6  13
ATOM     13  N   LIG d   1       0.643  82.447 111.795  0.00  0.00    -0.311 N 
ATOM     14  C   LIG d   1      -0.089  83.359 111.158  0.00  0.00     0.210 C 
ATOM     15  C   LIG d   1       0.632  84.680 110.870  0.00  0.00     0.109 C 
ATOM     16  O   LIG d   1      -1.277  83.212 110.834  0.00  0.00    -0.276 OA
ATOM     17  H   LIG d   1       1.588  82.662 112.049  0.00  0.00     0.149 HD
ENDBRANCH   6  13
BRANCH   5  18
ATOM     18  N   LIG d   1      -0.022  80.244 109.785  0.00  0.00     0.381 N 
ATOM     19  H   LIG d   1       0.514  81.053 109.543  0.00  0.00    -0.090 HD
ATOM     20  H   LIG d   1      -0.687  80.075 109.051  0.00  0.00    -0.090 HD
ATOM     21  H   LIG d   1       0.579  79.456 109.886  0.00  0.00    -0.090 HD
ENDBRANCH   5  18
BRANCH   3  22
ATOM     22  C   LIG d   1      -2.943  78.336 113.065  0.00  0.00     0.382 C 
ATOM     23  O   LIG d   1      -3.356  78.206 114.243  0.00  0.00    -0.241 OA
ATOM     24  O   LIG d   1      -3.440  77.638 112.161  0.00  0.00    -0.241 OA
ENDBRANCH   3  22
TORSDOF 7
ENDMDL
MODEL 7
REMARK VINA RESULT:      -4.4      2.570      5.251
REMARK  7 active torsions:
REMARK  status: ('A' for Active; 'I' for Inactive)
REMARK    1  A    between atoms: C_2  and  C_3 
REMARK    2  A    between atoms: C_3  and  O_6 
REMARK    3  A    between atoms: C_3  and  C_4 
REMARK    4  A    between atoms: C_7  and  O_6 
REMARK    5  A    between atoms: C_9  and  C_10 
REMARK    6  A    between atoms: N_15  and  C_14 
REMARK    7  A    between atoms: N_20  and  C_19 
REMARK       I    between atoms: C_22  and  N_20 
ROOT
ATOM      1  C   LIG d   1      -1.398  80.470 115.034  0.00  0.00     0.161 C 
ATOM      2  C   LIG d   1      -2.021  79.305 114.554  0.00  0.00     0.016 C 
ATOM      3  C   LIG d   1      -2.176  79.015 113.179  0.00  0.00     0.038 C 
ATOM      4  C   LIG d   1      -1.580  79.803 112.184  0.00  0.00     0.028 C 
ATOM      5  C   LIG d   1      -1.375  81.255 112.602  0.00  0.00    -0.047 C 
ATOM      6  C   LIG d   1      -0.644  81.287 113.964  0.00  0.00     0.091 C 
ENDROOT
BRANCH   1   7
ATOM      7  O   LIG d   1      -0.517  80.139 116.125  0.00  0.00    -0.368 OA
BRANCH   7   8
ATOM      8  C   LIG d   1      -0.860  80.702 117.415  0.00  0.00     0.119 C 
BRANCH   8   9
ATOM      9  C   LIG d   1       0.347  81.533 117.893  0.00  0.00     0.028 C 
ATOM     10  C   LIG d   1       0.181  82.029 119.339  0.00  0.00     0.006 C 
ENDBRANCH   8   9
BRANCH   8  11
ATOM     11  C   LIG d   1      -1.043  79.607 118.470  0.00  0.00     0.028 C 
ATOM     12  C   LIG d   1      -0.691  78.207 117.943  0.00  0.00     0.006 C 
ENDBRANCH   8  11
ENDBRANCH   7   8
ENDBRANCH   1   7
BRANCH   6  13
ATOM     13  N   LIG d   1      -0.479  82.668 114.487  0.00  0.00    -0.311 N 
ATOM     14  C   LIG d   1       0.705  83.261 114.629  0.00  0.00     0.210 C 
ATOM     15  C   LIG d   1       0.653  84.680 115.204  0.00  0.00     0.109 C 
ATOM     16  O   LIG d   1       1.792  82.759 114.303  0.00  0.00    -0.276 OA
ATOM     17  H   LIG d   1      -1.311  83.160 114.746  0.00  0.00     0.149 HD
ENDBRANCH   6  13
BRANCH   5  18
ATOM     18  N   LIG d   1      -0.623  81.928 111.526  0.00  0.00     0.381 N 
ATOM     19  H   LIG d   1      -1.063  81.753 110.645  0.00  0.00    -0.090 HD
ATOM     20  H   LIG d   1       0.308  81.549 111.495  0.00  0.00    -0.090 HD
ATOM     21  H   LIG d   1      -0.585  82.908 111.698  0.00  0.00    -0.090 HD
ENDBRANCH   5  18
BRANCH   3  22
ATOM     22  C   LIG d   1      -2.968  77.947 112.787  0.00  0.00     0.382 C 
ATOM     23  O   LIG d   1      -3.177  76.997 113.580  0.00  0.00    -0.241 OA
ATOM     24  O   LIG d   1      -3.440  77.899 111.636  0.00  0.00    -0.241 OA
ENDBRANCH   3  22
TORSDOF 7
ENDMDL
MODEL 8
REMARK VINA RESULT:      -4.3      2.252      3.065
REMARK  7 active torsions:
REMARK  status: ('A' for Active; 'I' for Inactive)
REMARK    1  A    between atoms: C_2  and  C_3 
REMARK    2  A    between atoms: C_3  and  O_6 
REMARK    3  A    between atoms: C_3  and  C_4 
REMARK    4  A    between atoms: C_7  and  O_6 
REMARK    5  A    between atoms: C_9  and  C_10 
REMARK    6  A    between atoms: N_15  and  C_14 
REMARK    7  A    between atoms: N_20  and  C_19 
REMARK       I    between atoms: C_22  and  N_20 
ROOT
ATOM      1  C   LIG d   1      -0.240  80.909 115.099  0.00  0.00     0.161 C 
ATOM      2  C   LIG d   1       0.611  81.947 115.513  0.00  0.00     0.016 C 
ATOM      3  C   LIG d   1       0.991  83.023 114.677  0.00  0.00     0.038 C 
ATOM      4  C   LIG d   1       0.419  83.214 113.411  0.00  0.00     0.028 C 
ATOM      5  C   LIG d   1      -0.059  81.921 112.760  0.00  0.00    -0.047 C 
ATOM      6  C   LIG d   1      -0.961  81.160 113.758  0.00  0.00     0.091 C 
ENDROOT
BRANCH   1   7
ATOM      7  O   LIG d   1      -1.198  80.620 116.136  0.00  0.00    -0.368 OA
BRANCH   7   8
ATOM      8  C   LIG d   1      -0.790  79.645 117.127  0.00  0.00     0.119 C 
BRANCH   8   9
ATOM      9  C   LIG d   1      -1.453  78.304 116.758  0.00  0.00     0.028 C 
ATOM     10  C   LIG d   1      -2.901  78.479 116.271  0.00  0.00     0.006 C 
ENDBRANCH   8   9
BRANCH   8  11
ATOM     11  C   LIG d   1      -1.335  79.998 118.514  0.00  0.00     0.028 C 
ATOM     12  C   LIG d   1      -1.008  81.440 118.933  0.00  0.00     0.006 C 
ENDBRANCH   8  11
ENDBRANCH   7   8
ENDBRANCH   1   7
BRANCH   6  13
ATOM     13  N   LIG d   1      -1.404  79.843 113.232  0.00  0.00    -0.311 N 
ATOM     14  C   LIG d   1      -2.592  79.642 112.664  0.00  0.00     0.210 C 
ATOM     15  C   LIG d   1      -2.856  78.204 112.208  0.00  0.00     0.109 C 
ATOM     16  O   LIG d   1      -3.440  80.526 112.466  0.00  0.00    -0.276 OA
ATOM     17  H   LIG d   1      -0.766  79.077 113.323  0.00  0.00     0.149 HD
ENDBRANCH   6  13
BRANCH   5  18
ATOM     18  N   LIG d   1      -0.755  82.282 111.510  0.00  0.00     0.381 N 
ATOM     19  H   LIG d   1      -0.132  82.181 110.734  0.00  0.00    -0.090 HD
ATOM     20  H   LIG d   1      -1.040  83.244 111.563  0.00  0.00    -0.090 HD
ATOM     21  H   LIG d   1      -1.553  81.699 111.383  0.00  0.00    -0.090 HD
ENDBRANCH   5  18
BRANCH   3  22
ATOM     22  C   LIG d   1       1.982  83.899 115.092  0.00  0.00     0.382 C 
ATOM     23  O   LIG d   1       1.823  84.577 116.136  0.00  0.00    -0.241 OA
ATOM     24  O   LIG d   1       3.015  84.052 114.413  0.00  0.00    -0.241 OA
ENDBRANCH   3  22
TORSDOF 7
ENDMDL
MODEL 9
REMARK VINA RESULT:      -4.2      3.561      6.388
REMARK  7 active torsions:
REMARK  status: ('A' for Active; 'I' for Inactive)
REMARK    1  A    between atoms: C_2  and  C_3 
REMARK    2  A    between atoms: C_3  and  O_6 
REMARK    3  A    between atoms: C_3  and  C_4 
REMARK    4  A    between atoms: C_7  and  O_6 
REMARK    5  A    between atoms: C_9  and  C_10 
REMARK    6  A    between atoms: N_15  and  C_14 
REMARK    7  A    between atoms: N_20  and  C_19 
REMARK       I    between atoms: C_22  and  N_20 
ROOT
ATOM      1  C   LIG d   1      -1.508  78.681 116.692  0.00  0.00     0.161 C 
ATOM      2  C   LIG d   1      -1.365  77.339 117.082  0.00  0.00     0.016 C 
ATOM      3  C   LIG d   1      -1.343  76.261 116.168  0.00  0.00     0.038 C 
ATOM      4  C   LIG d   1      -1.311  76.466 114.781  0.00  0.00     0.028 C 
ATOM      5  C   LIG d   1      -1.962  77.775 114.347  0.00  0.00    -0.047 C 
ATOM      6  C   LIG d   1      -1.363  78.933 115.177  0.00  0.00     0.091 C 
ENDROOT
BRANCH   1   7
ATOM      7  O   LIG d   1      -0.582  79.505 117.428  0.00  0.00    -0.368 OA
BRANCH   7   8
ATOM      8  C   LIG d   1      -1.094  80.114 118.639  0.00  0.00     0.119 C 
BRANCH   8   9
ATOM      9  C   LIG d   1      -0.803  81.625 118.557  0.00  0.00     0.028 C 
ATOM     10  C   LIG d   1       0.008  81.999 117.305  0.00  0.00     0.006 C 
ENDBRANCH   8   9
BRANCH   8  11
ATOM     11  C   LIG d   1      -0.335  79.621 119.875  0.00  0.00     0.028 C 
ATOM     12  C   LIG d   1       1.047  79.042 119.533  0.00  0.00     0.006 C 
ENDBRANCH   8  11
ENDBRANCH   7   8
ENDBRANCH   1   7
BRANCH   6  13
ATOM     13  N   LIG d   1      -2.005  80.239 114.874  0.00  0.00    -0.311 N 
ATOM     14  C   LIG d   1      -1.513  81.112 113.997  0.00  0.00     0.210 C 
ATOM     15  C   LIG d   1      -2.320  82.406 113.850  0.00  0.00     0.109 C 
ATOM     16  O   LIG d   1      -0.503  80.923 113.302  0.00  0.00    -0.276 OA
ATOM     17  H   LIG d   1      -2.846  80.460 115.371  0.00  0.00     0.149 HD
ENDBRANCH   6  13
BRANCH   5  18
ATOM     18  N   LIG d   1      -1.736  77.926 112.897  0.00  0.00     0.381 N 
ATOM     19  H   LIG d   1      -0.765  77.804 112.691  0.00  0.00    -0.090 HD
ATOM     20  H   LIG d   1      -2.003  78.855 112.621  0.00  0.00    -0.090 HD
ATOM     21  H   LIG d   1      -2.276  77.255 112.396  0.00  0.00    -0.090 HD
ENDBRANCH   5  18
BRANCH   3  22
ATOM     22  C   LIG d   1      -1.394  74.958 116.640  0.00  0.00     0.382 C 
ATOM     23  O   LIG d   1      -2.386  74.570 117.303  0.00  0.00    -0.241 OA
ATOM     24  O   LIG d   1      -0.440  74.180 116.450  0.00  0.00    -0.241 OA
ENDBRANCH   3  22
TORSDOF 7
ENDMDL
