MODEL 1
REMARK VINA RESULT:      -5.2      0.000      0.000
REMARK  7 active torsions:
REMARK  status: ('A' for Active; 'I' for Inactive)
REMARK    1  A    between atoms: C_2  and  C_3 
REMARK    2  A    between atoms: C_3  and  O_6 
REMARK    3  A    between atoms: C_3  and  C_4 
REMARK    4  A    between atoms: C_7  and  O_6 
REMARK    5  A    between atoms: C_9  and  C_10 
REMARK    6  A    between atoms: N_15  and  C_14 
REMARK    7  A    between atoms: N_20  and  C_19 
REMARK       I    between atoms: C_22  and  N_20 
ROOT
ATOM      1  C   LIG d   1       0.358  83.324 111.927  0.00  0.00     0.161 C 
ATOM      2  C   LIG d   1      -0.869  82.946 112.498  0.00  0.00     0.016 C 
ATOM      3  C   LIG d   1      -1.428  81.655 112.354  0.00  0.00     0.038 C 
ATOM      4  C   LIG d   1      -0.722  80.603 111.753  0.00  0.00     0.028 C 
ATOM      5  C   LIG d   1       0.301  81.071 110.724  0.00  0.00    -0.047 C 
ATOM      6  C   LIG d   1       1.196  82.158 111.362  0.00  0.00     0.091 C 
ENDROOT
BRANCH   1   7
ATOM      7  O   LIG d   1       1.129  84.078 112.884  0.00  0.00    -0.368 OA
BRANCH   7   8
ATOM      8  C   LIG d   1       1.287  83.476 114.192  0.00  0.00     0.119 C 
BRANCH   8   9
ATOM      9  C   LIG d   1       0.929  84.546 115.240  0.00  0.00     0.028 C 
ATOM     10  C   LIG d   1      -0.450  84.305 115.878  0.00  0.00     0.006 C 
ENDBRANCH   8   9
BRANCH   8  11
ATOM     11  C   LIG d   1       2.749  83.113 114.466  0.00  0.00     0.028 C 
ATOM     12  C   LIG d   1       3.724  84.237 114.082  0.00  0.00     0.006 C 
ENDBRANCH   8  11
ENDBRANCH   7   8
ENDBRANCH   1   7
BRANCH   6  13
ATOM     13  N   LIG d   1       2.170  82.730 110.397  0.00  0.00    -0.311 N 
ATOM     14  C   LIG d   1       3.489  82.606 110.526  0.00  0.00     0.210 C 
ATOM     15  C   LIG d   1       4.314  83.288 109.430  0.00  0.00     0.109 C 
ATOM     16  O   LIG d   1       4.055  81.967 111.427  0.00  0.00    -0.276 OA
ATOM     17  H   LIG d   1       1.796  83.237 109.619  0.00  0.00     0.149 HD
ENDBRANCH   6  13
BRANCH   5  18
ATOM     18  N   LIG d   1       1.059  79.886 110.279  0.00  0.00     0.381 N 
ATOM     19  H   LIG d   1       2.029  80.003 110.497  0.00  0.00    -0.090 HD
ATOM     20  H   LIG d   1       0.969  79.798 109.282  0.00  0.00    -0.090 HD
ATOM     21  H   LIG d   1       0.707  79.068 110.725  0.00  0.00    -0.090 HD
ENDBRANCH   5  18
BRANCH   3  22
ATOM     22  C   LIG d   1      -2.726  81.418 112.781  0.00  0.00     0.382 C 
ATOM     23  O   LIG d   1      -3.440  82.370 113.178  0.00  0.00    -0.241 OA
ATOM     24  O   LIG d   1      -3.178  80.257 112.815  0.00  0.00    -0.241 OA
ENDBRANCH   3  22
TORSDOF 7
ENDMDL
MODEL 2
REMARK VINA RESULT:      -4.8      1.958      4.863
REMARK  7 active torsions:
REMARK  status: ('A' for Active; 'I' for Inactive)
REMARK    1  A    between atoms: C_2  and  C_3 
REMARK    2  A    between atoms: C_3  and  O_6 
REMARK    3  A    between atoms: C_3  and  C_4 
REMARK    4  A    between atoms: C_7  and  O_6 
REMARK    5  A    between atoms: C_9  and  C_10 
REMARK    6  A    between atoms: N_15  and  C_14 
REMARK    7  A    between atoms: N_20  and  C_19 
REMARK       I    between atoms: C_22  and  N_20 
ROOT
ATOM      1  C   LIG d   1       0.318  82.087 113.111  0.00  0.00     0.161 C 
ATOM      2  C   LIG d   1       1.181  83.012 112.500  0.00  0.00     0.016 C 
ATOM      3  C   LIG d   1       1.617  82.901 111.159  0.00  0.00     0.038 C 
ATOM      4  C   LIG d   1       1.095  81.934 110.288  0.00  0.00     0.028 C 
ATOM      5  C   LIG d   1       0.606  80.677 111.000  0.00  0.00    -0.047 C 
ATOM      6  C   LIG d   1      -0.349  81.088 112.144  0.00  0.00     0.091 C 
ENDROOT
BRANCH   1   7
ATOM      7  O   LIG d   1      -0.682  82.786 113.878  0.00  0.00    -0.368 OA
BRANCH   7   8
ATOM      8  C   LIG d   1      -0.588  82.656 115.318  0.00  0.00     0.119 C 
BRANCH   8   9
ATOM      9  C   LIG d   1      -1.996  82.322 115.846  0.00  0.00     0.028 C 
ATOM     10  C   LIG d   1      -3.101  83.085 115.096  0.00  0.00     0.006 C 
ENDBRANCH   8   9
BRANCH   8  11
ATOM     11  C   LIG d   1      -0.214  83.988 115.975  0.00  0.00     0.028 C 
ATOM     12  C   LIG d   1      -0.297  83.940 117.509  0.00  0.00     0.006 C 
ENDBRANCH   8  11
ENDBRANCH   7   8
ENDBRANCH   1   7
BRANCH   6  13
ATOM     13  N   LIG d   1      -0.808  79.923 112.946  0.00  0.00    -0.311 N 
ATOM     14  C   LIG d   1      -2.089  79.678 113.216  0.00  0.00     0.210 C 
ATOM     15  C   LIG d   1      -2.341  78.436 114.076  0.00  0.00     0.109 C 
ATOM     16  O   LIG d   1      -3.041  80.353 112.799  0.00  0.00    -0.276 OA
ATOM     17  H   LIG d   1      -0.102  79.306 113.297  0.00  0.00     0.149 HD
ENDBRANCH   6  13
BRANCH   5  18
ATOM     18  N   LIG d   1      -0.037  79.814 109.991  0.00  0.00     0.381 N 
ATOM     19  H   LIG d   1       0.448  78.941 109.933  0.00  0.00    -0.090 HD
ATOM     20  H   LIG d   1       0.018  80.266 109.095  0.00  0.00    -0.090 HD
ATOM     21  H   LIG d   1      -0.990  79.657 110.235  0.00  0.00    -0.090 HD
ENDBRANCH   5  18
BRANCH   3  22
ATOM     22  C   LIG d   1       2.616  83.740 110.690  0.00  0.00     0.382 C 
ATOM     23  O   LIG d   1       2.431  84.411 109.645  0.00  0.00    -0.241 OA
ATOM     24  O   LIG d   1       3.715  83.802 111.272  0.00  0.00    -0.241 OA
ENDBRANCH   3  22
TORSDOF 7
ENDMDL
MODEL 3
REMARK VINA RESULT:      -4.7      2.482      4.295
REMARK  7 active torsions:
REMARK  status: ('A' for Active; 'I' for Inactive)
REMARK    1  A    between atoms: C_2  and  C_3 
REMARK    2  A    between atoms: C_3  and  O_6 
REMARK    3  A    between atoms: C_3  and  C_4 
REMARK    4  A    between atoms: C_7  and  O_6 
REMARK    5  A    between atoms: C_9  and  C_10 
REMARK    6  A    between atoms: N_15  and  C_14 
REMARK    7  A    between atoms: N_20  and  C_19 
REMARK       I    between atoms: C_22  and  N_20 
ROOT
ATOM      1  C   LIG d   1      -0.460  81.318 111.787  0.00  0.00     0.161 C 
ATOM      2  C   LIG d   1      -1.018  80.029 111.813  0.00  0.00     0.016 C 
ATOM      3  C   LIG d   1      -2.041  79.642 112.709  0.00  0.00     0.038 C 
ATOM      4  C   LIG d   1      -2.686  80.568 113.543  0.00  0.00     0.028 C 
ATOM      5  C   LIG d   1      -1.813  81.764 113.908  0.00  0.00    -0.047 C 
ATOM      6  C   LIG d   1      -1.227  82.371 112.613  0.00  0.00     0.091 C 
ENDROOT
BRANCH   1   7
ATOM      7  O   LIG d   1      -0.316  81.759 110.422  0.00  0.00    -0.368 OA
BRANCH   7   8
ATOM      8  C   LIG d   1       1.034  81.769 109.895  0.00  0.00     0.119 C 
BRANCH   8   9
ATOM      9  C   LIG d   1       1.961  81.200 110.986  0.00  0.00     0.028 C 
ATOM     10  C   LIG d   1       3.222  82.056 111.191  0.00  0.00     0.006 C 
ENDBRANCH   8   9
BRANCH   8  11
ATOM     11  C   LIG d   1       1.526  83.199 109.651  0.00  0.00     0.028 C 
ATOM     12  C   LIG d   1       0.376  84.209 109.510  0.00  0.00     0.006 C 
ENDBRANCH   8  11
ENDBRANCH   7   8
ENDBRANCH   1   7
BRANCH   6  13
ATOM     13  N   LIG d   1      -0.294  83.495 112.886  0.00  0.00    -0.311 N 
ATOM     14  C   LIG d   1       0.763  83.392 113.689  0.00  0.00     0.210 C 
ATOM     15  C   LIG d   1       1.583  84.676 113.848  0.00  0.00     0.109 C 
ATOM     16  O   LIG d   1       1.119  82.350 114.259  0.00  0.00    -0.276 OA
ATOM     17  H   LIG d   1      -0.490  84.370 112.439  0.00  0.00     0.149 HD
ENDBRANCH   6  13
BRANCH   5  18
ATOM     18  N   LIG d   1      -2.652  82.713 114.664  0.00  0.00     0.381 N 
ATOM     19  H   LIG d   1      -2.589  83.623 114.252  0.00  0.00    -0.090 HD
ATOM     20  H   LIG d   1      -2.310  82.770 115.607  0.00  0.00    -0.090 HD
ATOM     21  H   LIG d   1      -3.599  82.405 114.665  0.00  0.00    -0.090 HD
ENDBRANCH   5  18
BRANCH   3  22
ATOM     22  C   LIG d   1      -2.402  78.306 112.805  0.00  0.00     0.382 C 
ATOM     23  O   LIG d   1      -3.439  77.894 112.231  0.00  0.00    -0.241 OA
ATOM     24  O   LIG d   1      -1.729  77.518 113.495  0.00  0.00    -0.241 OA
ENDBRANCH   3  22
TORSDOF 7
ENDMDL
MODEL 4
REMARK VINA RESULT:      -4.5      2.484      3.346
REMARK  7 active torsions:
REMARK  status: ('A' for Active; 'I' for Inactive)
REMARK    1  A    between atoms: C_2  and  C_3 
REMARK    2  A    between atoms: C_3  and  O_6 
REMARK    3  A    between atoms: C_3  and  C_4 
REMARK    4  A    between atoms: C_7  and  O_6 
REMARK    5  A    between atoms: C_9  and  C_10 
REMARK    6  A    between atoms: N_15  and  C_14 
REMARK    7  A    between atoms: N_20  and  C_19 
REMARK       I    between atoms: C_22  and  N_20 
ROOT
ATOM      1  C   LIG d   1      -2.231  81.953 113.889  0.00  0.00     0.161 C 
ATOM      2  C   LIG d   1      -2.647  80.876 114.688  0.00  0.00     0.016 C 
ATOM      3  C   LIG d   1      -2.429  79.522 114.344  0.00  0.00     0.038 C 
ATOM      4  C   LIG d   1      -1.641  79.154 113.243  0.00  0.00     0.028 C 
ATOM      5  C   LIG d   1      -1.629  80.198 112.132  0.00  0.00    -0.047 C 
ATOM      6  C   LIG d   1      -1.273  81.574 112.740  0.00  0.00     0.091 C 
ENDROOT
BRANCH   1   7
ATOM      7  O   LIG d   1      -1.641  82.976 114.716  0.00  0.00    -0.368 OA
BRANCH   7   8
ATOM      8  C   LIG d   1      -0.481  82.581 115.488  0.00  0.00     0.119 C 
BRANCH   8   9
ATOM      9  C   LIG d   1      -0.874  82.642 116.977  0.00  0.00     0.028 C 
ATOM     10  C   LIG d   1      -0.309  83.885 117.683  0.00  0.00     0.006 C 
ENDBRANCH   8   9
BRANCH   8  11
ATOM     11  C   LIG d   1       0.663  83.587 115.330  0.00  0.00     0.028 C 
ATOM     12  C   LIG d   1       0.361  84.673 114.285  0.00  0.00     0.006 C 
ENDBRANCH   8  11
ENDBRANCH   7   8
ENDBRANCH   1   7
BRANCH   6  13
ATOM     13  N   LIG d   1      -1.321  82.668 111.735  0.00  0.00    -0.311 N 
ATOM     14  C   LIG d   1      -0.251  83.101 111.071  0.00  0.00     0.210 C 
ATOM     15  C   LIG d   1      -0.517  84.251 110.095  0.00  0.00     0.109 C 
ATOM     16  O   LIG d   1       0.888  82.621 111.175  0.00  0.00    -0.276 OA
ATOM     17  H   LIG d   1      -2.212  83.093 111.566  0.00  0.00     0.149 HD
ENDBRANCH   6  13
BRANCH   5  18
ATOM     18  N   LIG d   1      -0.663  79.750 111.110  0.00  0.00     0.381 N 
ATOM     19  H   LIG d   1      -0.161  78.953 111.446  0.00  0.00    -0.090 HD
ATOM     20  H   LIG d   1      -0.004  80.489 110.940  0.00  0.00    -0.090 HD
ATOM     21  H   LIG d   1      -1.141  79.521 110.267  0.00  0.00    -0.090 HD
ENDBRANCH   5  18
BRANCH   3  22
ATOM     22  C   LIG d   1      -3.036  78.518 115.084  0.00  0.00     0.382 C 
ATOM     23  O   LIG d   1      -3.429  77.471 114.516  0.00  0.00    -0.241 OA
ATOM     24  O   LIG d   1      -3.236  78.666 116.305  0.00  0.00    -0.241 OA
ENDBRANCH   3  22
TORSDOF 7
ENDMDL
MODEL 5
REMARK VINA RESULT:      -4.4      2.926      4.478
REMARK  7 active torsions:
REMARK  status: ('A' for Active; 'I' for Inactive)
REMARK    1  A    between atoms: C_2  and  C_3 
REMARK    2  A    between atoms: C_3  and  O_6 
REMARK    3  A    between atoms: C_3  and  C_4 
REMARK    4  A    between atoms: C_7  and  O_6 
REMARK    5  A    between atoms: C_9  and  C_10 
REMARK    6  A    between atoms: N_15  and  C_14 
REMARK    7  A    between atoms: N_20  and  C_19 
REMARK       I    between atoms: C_22  and  N_20 
ROOT
ATOM      1  C   LIG d   1       1.090  81.308 113.444  0.00  0.00     0.161 C 
ATOM      2  C   LIG d   1      -0.145  81.413 112.784  0.00  0.00     0.016 C 
ATOM      3  C   LIG d   1      -1.391  81.279 113.439  0.00  0.00     0.038 C 
ATOM      4  C   LIG d   1      -1.488  81.182 114.835  0.00  0.00     0.028 C 
ATOM      5  C   LIG d   1      -0.254  80.566 115.486  0.00  0.00    -0.047 C 
ATOM      6  C   LIG d   1       1.004  81.312 114.984  0.00  0.00     0.091 C 
ENDROOT
BRANCH   1   7
ATOM      7  O   LIG d   1       1.977  82.349 112.989  0.00  0.00    -0.368 OA
BRANCH   7   8
ATOM      8  C   LIG d   1       1.995  82.593 111.561  0.00  0.00     0.119 C 
BRANCH   8   9
ATOM      9  C   LIG d   1       2.945  81.558 110.927  0.00  0.00     0.028 C 
ATOM     10  C   LIG d   1       2.233  80.659 109.902  0.00  0.00     0.006 C 
ENDBRANCH   8   9
BRANCH   8  11
ATOM     11  C   LIG d   1       2.608  83.958 111.236  0.00  0.00     0.028 C 
ATOM     12  C   LIG d   1       4.026  83.851 110.653  0.00  0.00     0.006 C 
ENDBRANCH   8  11
ENDBRANCH   7   8
ENDBRANCH   1   7
BRANCH   6  13
ATOM     13  N   LIG d   1       2.262  80.718 115.507  0.00  0.00    -0.311 N 
ATOM     14  C   LIG d   1       3.009  81.294 116.448  0.00  0.00     0.210 C 
ATOM     15  C   LIG d   1       4.276  80.523 116.829  0.00  0.00     0.109 C 
ATOM     16  O   LIG d   1       2.725  82.355 117.025  0.00  0.00    -0.276 OA
ATOM     17  H   LIG d   1       2.550  79.843 115.116  0.00  0.00     0.149 HD
ENDBRANCH   6  13
BRANCH   5  18
ATOM     18  N   LIG d   1      -0.432  80.651 116.948  0.00  0.00     0.381 N 
ATOM     19  H   LIG d   1      -1.382  80.447 117.186  0.00  0.00    -0.090 HD
ATOM     20  H   LIG d   1      -0.225  81.588 117.247  0.00  0.00    -0.090 HD
ATOM     21  H   LIG d   1       0.178  80.007 117.404  0.00  0.00    -0.090 HD
ENDBRANCH   5  18
BRANCH   3  22
ATOM     22  C   LIG d   1      -2.556  81.203 112.692  0.00  0.00     0.382 C 
ATOM     23  O   LIG d   1      -3.318  80.215 112.817  0.00  0.00    -0.241 OA
ATOM     24  O   LIG d   1      -2.833  82.089 111.860  0.00  0.00    -0.241 OA
ENDBRANCH   3  22
TORSDOF 7
ENDMDL
MODEL 6
REMARK VINA RESULT:      -4.3      3.520      5.406
REMARK  7 active torsions:
REMARK  status: ('A' for Active; 'I' for Inactive)
REMARK    1  A    between atoms: C_2  and  C_3 
REMARK    2  A    between atoms: C_3  and  O_6 
REMARK    3  A    between atoms: C_3  and  C_4 
REMARK    4  A    between atoms: C_7  and  O_6 
REMARK    5  A    between atoms: C_9  and  C_10 
REMARK    6  A    between atoms: N_15  and  C_14 
REMARK    7  A    between atoms: N_20  and  C_19 
REMARK       I    between atoms: C_22  and  N_20 
ROOT
ATOM      1  C   LIG d   1      -0.207  80.770 114.689  0.00  0.00     0.161 C 
ATOM      2  C   LIG d   1      -0.334  81.958 113.950  0.00  0.00     0.016 C 
ATOM      3  C   LIG d   1      -1.097  82.059 112.764  0.00  0.00     0.038 C 
ATOM      4  C   LIG d   1      -1.913  81.009 112.316  0.00  0.00     0.028 C 
ATOM      5  C   LIG d   1      -1.422  79.632 112.751  0.00  0.00    -0.047 C 
ATOM      6  C   LIG d   1      -1.179  79.645 114.277  0.00  0.00     0.091 C 
ENDROOT
BRANCH   1   7
ATOM      7  O   LIG d   1      -0.337  81.054 116.096  0.00  0.00    -0.368 OA
BRANCH   7   8
ATOM      8  C   LIG d   1      -1.687  81.075 116.620  0.00  0.00     0.119 C 
BRANCH   8   9
ATOM      9  C   LIG d   1      -2.025  82.538 116.970  0.00  0.00     0.028 C 
ATOM     10  C   LIG d   1      -0.938  83.202 117.831  0.00  0.00     0.006 C 
ENDBRANCH   8   9
BRANCH   8  11
ATOM     11  C   LIG d   1      -1.784  80.310 117.943  0.00  0.00     0.028 C 
ATOM     12  C   LIG d   1      -0.519  79.492 118.252  0.00  0.00     0.006 C 
ENDBRANCH   8  11
ENDBRANCH   7   8
ENDBRANCH   1   7
BRANCH   6  13
ATOM     13  N   LIG d   1      -0.618  78.361 114.772  0.00  0.00    -0.311 N 
ATOM     14  C   LIG d   1      -1.362  77.387 115.292  0.00  0.00     0.210 C 
ATOM     15  C   LIG d   1      -0.581  76.155 115.760  0.00  0.00     0.109 C 
ATOM     16  O   LIG d   1      -2.599  77.413 115.381  0.00  0.00    -0.276 OA
ATOM     17  H   LIG d   1       0.375  78.243 114.709  0.00  0.00     0.149 HD
ENDBRANCH   6  13
BRANCH   5  18
ATOM     18  N   LIG d   1      -2.437  78.646 112.335  0.00  0.00     0.381 N 
ATOM     19  H   LIG d   1      -2.078  78.083 111.590  0.00  0.00    -0.090 HD
ATOM     20  H   LIG d   1      -3.247  79.136 111.997  0.00  0.00    -0.090 HD
ATOM     21  H   LIG d   1      -2.687  78.068 113.107  0.00  0.00    -0.090 HD
ENDBRANCH   5  18
BRANCH   3  22
ATOM     22  C   LIG d   1      -1.017  83.207 111.991  0.00  0.00     0.382 C 
ATOM     23  O   LIG d   1      -1.457  83.203 110.816  0.00  0.00    -0.241 OA
ATOM     24  O   LIG d   1      -0.470  84.233 112.438  0.00  0.00    -0.241 OA
ENDBRANCH   3  22
TORSDOF 7
ENDMDL
MODEL 7
REMARK VINA RESULT:      -4.2      2.124      3.895
REMARK  7 active torsions:
REMARK  status: ('A' for Active; 'I' for Inactive)
REMARK    1  A    between atoms: C_2  and  C_3 
REMARK    2  A    between atoms: C_3  and  O_6 
REMARK    3  A    between atoms: C_3  and  C_4 
REMARK    4  A    between atoms: C_7  and  O_6 
REMARK    5  A    between atoms: C_9  and  C_10 
REMARK    6  A    between atoms: N_15  and  C_14 
REMARK    7  A    between atoms: N_20  and  C_19 
REMARK       I    between atoms: C_22  and  N_20 
ROOT
ATOM      1  C   LIG d   1       0.152  83.171 112.032  0.00  0.00     0.161 C 
ATOM      2  C   LIG d   1      -0.955  82.307 112.028  0.00  0.00     0.016 C 
ATOM      3  C   LIG d   1      -1.837  82.167 113.123  0.00  0.00     0.038 C 
ATOM      4  C   LIG d   1      -1.759  82.999 114.250  0.00  0.00     0.028 C 
ATOM      5  C   LIG d   1      -0.355  83.536 114.510  0.00  0.00    -0.047 C 
ATOM      6  C   LIG d   1       0.189  84.169 113.209  0.00  0.00     0.091 C 
ENDROOT
BRANCH   1   7
ATOM      7  O   LIG d   1       0.228  83.875 110.777  0.00  0.00    -0.368 OA
BRANCH   7   8
ATOM      8  C   LIG d   1       1.302  83.480 109.888  0.00  0.00     0.119 C 
BRANCH   8   9
ATOM      9  C   LIG d   1       1.965  82.227 110.492  0.00  0.00     0.028 C 
ATOM     10  C   LIG d   1       1.656  80.954 109.686  0.00  0.00     0.006 C 
ENDBRANCH   8   9
BRANCH   8  11
ATOM     11  C   LIG d   1       2.406  84.540 109.842  0.00  0.00     0.028 C 
ATOM     12  C   LIG d   1       3.790  83.975 110.197  0.00  0.00     0.006 C 
ENDBRANCH   8  11
ENDBRANCH   7   8
ENDBRANCH   1   7
BRANCH   6  13
ATOM     13  N   LIG d   1       1.590  84.643 113.353  0.00  0.00    -0.311 N 
ATOM     14  C   LIG d   1       2.592  83.861 113.749  0.00  0.00     0.210 C 
ATOM     15  C   LIG d   1       3.954  84.555 113.849  0.00  0.00     0.109 C 
ATOM     16  O   LIG d   1       2.489  82.650 113.996  0.00  0.00    -0.276 OA
ATOM     17  H   LIG d   1       1.770  85.606 113.143  0.00  0.00     0.149 HD
ENDBRANCH   6  13
BRANCH   5  18
ATOM     18  N   LIG d   1      -0.445  84.495 115.626  0.00  0.00     0.381 N 
ATOM     19  H   LIG d   1      -0.648  85.409 115.273  0.00  0.00    -0.090 HD
ATOM     20  H   LIG d   1       0.442  84.530 116.097  0.00  0.00    -0.090 HD
ATOM     21  H   LIG d   1      -1.157  84.212 116.263  0.00  0.00    -0.090 HD
ENDBRANCH   5  18
BRANCH   3  22
ATOM     22  C   LIG d   1      -2.788  81.157 113.116  0.00  0.00     0.382 C 
ATOM     23  O   LIG d   1      -3.440  80.918 112.071  0.00  0.00    -0.241 OA
ATOM     24  O   LIG d   1      -3.033  80.512 114.153  0.00  0.00    -0.241 OA
ENDBRANCH   3  22
TORSDOF 7
ENDMDL
MODEL 8
REMARK VINA RESULT:      -4.2      1.586      2.109
REMARK  7 active torsions:
REMARK  status: ('A' for Active; 'I' for Inactive)
REMARK    1  A    between atoms: C_2  and  C_3 
REMARK    2  A    between atoms: C_3  and  O_6 
REMARK    3  A    between atoms: C_3  and  C_4 
REMARK    4  A    between atoms: C_7  and  O_6 
REMARK    5  A    between atoms: C_9  and  C_10 
REMARK    6  A    between atoms: N_15  and  C_14 
REMARK    7  A    between atoms: N_20  and  C_19 
REMARK       I    between atoms: C_22  and  N_20 
ROOT
ATOM      1  C   LIG d   1       1.073  81.911 112.943  0.00  0.00     0.161 C 
ATOM      2  C   LIG d   1      -0.087  81.428 113.571  0.00  0.00     0.016 C 
ATOM      3  C   LIG d   1      -1.026  80.586 112.932  0.00  0.00     0.038 C 
ATOM      4  C   LIG d   1      -0.789  80.044 111.660  0.00  0.00     0.028 C 
ATOM      5  C   LIG d   1       0.124  80.906 110.794  0.00  0.00    -0.047 C 
ATOM      6  C   LIG d   1       1.404  81.240 111.593  0.00  0.00     0.091 C 
ENDROOT
BRANCH   1   7
ATOM      7  O   LIG d   1       2.195  81.807 113.842  0.00  0.00    -0.368 OA
BRANCH   7   8
ATOM      8  C   LIG d   1       2.138  82.635 115.030  0.00  0.00     0.119 C 
BRANCH   8   9
ATOM      9  C   LIG d   1       3.389  83.535 115.026  0.00  0.00     0.028 C 
ATOM     10  C   LIG d   1       3.834  83.916 113.604  0.00  0.00     0.006 C 
ENDBRANCH   8   9
BRANCH   8  11
ATOM     11  C   LIG d   1       2.250  81.791 116.303  0.00  0.00     0.028 C 
ATOM     12  C   LIG d   1       3.703  81.452 116.668  0.00  0.00     0.006 C 
ENDBRANCH   8  11
ENDBRANCH   7   8
ENDBRANCH   1   7
BRANCH   6  13
ATOM     13  N   LIG d   1       2.314  82.150 110.850  0.00  0.00    -0.311 N 
ATOM     14  C   LIG d   1       3.325  81.721 110.097  0.00  0.00     0.210 C 
ATOM     15  C   LIG d   1       4.152  82.827 109.434  0.00  0.00     0.109 C 
ATOM     16  O   LIG d   1       3.596  80.529 109.889  0.00  0.00    -0.276 OA
ATOM     17  H   LIG d   1       2.147  83.133 110.938  0.00  0.00     0.149 HD
ENDBRANCH   6  13
BRANCH   5  18
ATOM     18  N   LIG d   1       0.396  80.158 109.552  0.00  0.00     0.381 N 
ATOM     19  H   LIG d   1       1.084  80.642 109.009  0.00  0.00    -0.090 HD
ATOM     20  H   LIG d   1      -0.450  80.104 109.013  0.00  0.00    -0.090 HD
ATOM     21  H   LIG d   1       0.719  79.241 109.770  0.00  0.00    -0.090 HD
ENDBRANCH   5  18
BRANCH   3  22
ATOM     22  C   LIG d   1      -2.236  80.311 113.550  0.00  0.00     0.382 C 
ATOM     23  O   LIG d   1      -3.301  80.350 112.889  0.00  0.00    -0.241 OA
ATOM     24  O   LIG d   1      -2.280  80.068 114.771  0.00  0.00    -0.241 OA
ENDBRANCH   3  22
TORSDOF 7
ENDMDL
MODEL 9
REMARK VINA RESULT:      -4.2      2.067      5.027
REMARK  7 active torsions:
REMARK  status: ('A' for Active; 'I' for Inactive)
REMARK    1  A    between atoms: C_2  and  C_3 
REMARK    2  A    between atoms: C_3  and  O_6 
REMARK    3  A    between atoms: C_3  and  C_4 
REMARK    4  A    between atoms: C_7  and  O_6 
REMARK    5  A    between atoms: C_9  and  C_10 
REMARK    6  A    between atoms: N_15  and  C_14 
REMARK    7  A    between atoms: N_20  and  C_19 
REMARK       I    between atoms: C_22  and  N_20 
ROOT
ATOM      1  C   LIG d   1       0.626  81.620 113.837  0.00  0.00     0.161 C 
ATOM      2  C   LIG d   1       1.489  82.563 113.255  0.00  0.00     0.016 C 
ATOM      3  C   LIG d   1       1.720  82.653 111.863  0.00  0.00     0.038 C 
ATOM      4  C   LIG d   1       0.983  81.898 110.939  0.00  0.00     0.028 C 
ATOM      5  C   LIG d   1       0.467  80.580 111.508  0.00  0.00    -0.047 C 
ATOM      6  C   LIG d   1      -0.272  80.862 112.836  0.00  0.00     0.091 C 
ENDROOT
BRANCH   1   7
ATOM      7  O   LIG d   1      -0.179  82.253 114.851  0.00  0.00    -0.368 OA
BRANCH   7   8
ATOM      8  C   LIG d   1       0.527  83.116 115.777  0.00  0.00     0.119 C 
BRANCH   8   9
ATOM      9  C   LIG d   1       1.154  82.217 116.861  0.00  0.00     0.028 C 
ATOM     10  C   LIG d   1       2.682  82.374 116.941  0.00  0.00     0.006 C 
ENDBRANCH   8   9
BRANCH   8  11
ATOM     11  C   LIG d   1      -0.440  84.039 116.526  0.00  0.00     0.028 C 
ATOM     12  C   LIG d   1      -0.902  83.454 117.869  0.00  0.00     0.006 C 
ENDBRANCH   8  11
ENDBRANCH   7   8
ENDBRANCH   1   7
BRANCH   6  13
ATOM     13  N   LIG d   1      -0.736  79.617 113.502  0.00  0.00    -0.311 N 
ATOM     14  C   LIG d   1      -2.020  79.335 113.717  0.00  0.00     0.210 C 
ATOM     15  C   LIG d   1      -2.278  78.008 114.437  0.00  0.00     0.109 C 
ATOM     16  O   LIG d   1      -2.970  80.043 113.352  0.00  0.00    -0.276 OA
ATOM     17  H   LIG d   1      -0.032  78.971 113.803  0.00  0.00     0.149 HD
ENDBRANCH   6  13
BRANCH   5  18
ATOM     18  N   LIG d   1      -0.398  79.962 110.485  0.00  0.00     0.381 N 
ATOM     19  H   LIG d   1      -0.180  80.339 109.584  0.00  0.00    -0.090 HD
ATOM     20  H   LIG d   1      -1.356  80.180 110.695  0.00  0.00    -0.090 HD
ATOM     21  H   LIG d   1      -0.268  78.974 110.481  0.00  0.00    -0.090 HD
ENDBRANCH   5  18
BRANCH   3  22
ATOM     22  C   LIG d   1       2.728  83.477 111.386  0.00  0.00     0.382 C 
ATOM     23  O   LIG d   1       3.888  83.024 111.230  0.00  0.00    -0.241 OA
ATOM     24  O   LIG d   1       2.502  84.679 111.151  0.00  0.00    -0.241 OA
ENDBRANCH   3  22
TORSDOF 7
ENDMDL
