MODEL 1
REMARK VINA RESULT:      -5.5      0.000      0.000
REMARK  7 active torsions:
REMARK  status: ('A' for Active; 'I' for Inactive)
REMARK    1  A    between atoms: C_2  and  C_3 
REMARK    2  A    between atoms: C_3  and  O_6 
REMARK    3  A    between atoms: C_3  and  C_4 
REMARK    4  A    between atoms: C_7  and  O_6 
REMARK    5  A    between atoms: C_9  and  C_10 
REMARK    6  A    between atoms: N_15  and  C_14 
REMARK    7  A    between atoms: N_20  and  C_19 
REMARK       I    between atoms: C_22  and  N_20 
ROOT
ATOM      1  C   LIG d   1       1.580  81.380 112.556  0.00  0.00     0.161 C 
ATOM      2  C   LIG d   1       2.632  81.961 111.829  0.00  0.00     0.016 C 
ATOM      3  C   LIG d   1       2.683  81.984 110.416  0.00  0.00     0.038 C 
ATOM      4  C   LIG d   1       1.604  81.557 109.629  0.00  0.00     0.028 C 
ATOM      5  C   LIG d   1       0.737  80.503 110.308  0.00  0.00    -0.047 C 
ATOM      6  C   LIG d   1       0.341  81.009 111.714  0.00  0.00     0.091 C 
ENDROOT
BRANCH   1   7
ATOM      7  O   LIG d   1       1.204  82.243 113.647  0.00  0.00    -0.368 OA
BRANCH   7   8
ATOM      8  C   LIG d   1       1.861  83.533 113.694  0.00  0.00     0.119 C 
BRANCH   8   9
ATOM      9  C   LIG d   1       2.446  83.704 115.109  0.00  0.00     0.028 C 
ATOM     10  C   LIG d   1       2.847  82.362 115.744  0.00  0.00     0.006 C 
ENDBRANCH   8   9
BRANCH   8  11
ATOM     11  C   LIG d   1       0.856  84.677 113.530  0.00  0.00     0.028 C 
ATOM     12  C   LIG d   1      -0.107  84.460 112.352  0.00  0.00     0.006 C 
ENDBRANCH   8  11
ENDBRANCH   7   8
ENDBRANCH   1   7
BRANCH   6  13
ATOM     13  N   LIG d   1      -0.438  80.002 112.481  0.00  0.00    -0.311 N 
ATOM     14  C   LIG d   1      -1.765  80.030 112.591  0.00  0.00     0.210 C 
ATOM     15  C   LIG d   1      -2.368  78.909 113.444  0.00  0.00     0.109 C 
ATOM     16  O   LIG d   1      -2.503  80.860 112.039  0.00  0.00    -0.276 OA
ATOM     17  H   LIG d   1       0.079  79.275 112.936  0.00  0.00     0.149 HD
ENDBRANCH   6  13
BRANCH   5  18
ATOM     18  N   LIG d   1      -0.425  80.250 109.436  0.00  0.00     0.381 N 
ATOM     19  H   LIG d   1      -0.543  81.014 108.800  0.00  0.00    -0.090 HD
ATOM     20  H   LIG d   1      -1.251  80.183 110.005  0.00  0.00    -0.090 HD
ATOM     21  H   LIG d   1      -0.293  79.403 108.928  0.00  0.00    -0.090 HD
ENDBRANCH   5  18
BRANCH   3  22
ATOM     22  C   LIG d   1       3.841  82.400 109.777  0.00  0.00     0.382 C 
ATOM     23  O   LIG d   1       3.984  83.607 109.464  0.00  0.00    -0.241 OA
ATOM     24  O   LIG d   1       4.724  81.578 109.470  0.00  0.00    -0.241 OA
ENDBRANCH   3  22
TORSDOF 7
ENDMDL
MODEL 2
REMARK VINA RESULT:      -4.9      2.451      5.610
REMARK  7 active torsions:
REMARK  status: ('A' for Active; 'I' for Inactive)
REMARK    1  A    between atoms: C_2  and  C_3 
REMARK    2  A    between atoms: C_3  and  O_6 
REMARK    3  A    between atoms: C_3  and  C_4 
REMARK    4  A    between atoms: C_7  and  O_6 
REMARK    5  A    between atoms: C_9  and  C_10 
REMARK    6  A    between atoms: N_15  and  C_14 
REMARK    7  A    between atoms: N_20  and  C_19 
REMARK       I    between atoms: C_22  and  N_20 
ROOT
ATOM      1  C   LIG d   1      -0.307  80.283 111.541  0.00  0.00     0.161 C 
ATOM      2  C   LIG d   1      -1.312  79.339 111.274  0.00  0.00     0.016 C 
ATOM      3  C   LIG d   1      -1.994  78.622 112.284  0.00  0.00     0.038 C 
ATOM      4  C   LIG d   1      -1.822  78.914 113.646  0.00  0.00     0.028 C 
ATOM      5  C   LIG d   1      -0.454  79.504 113.970  0.00  0.00    -0.047 C 
ATOM      6  C   LIG d   1      -0.184  80.695 113.023  0.00  0.00     0.091 C 
ENDROOT
BRANCH   1   7
ATOM      7  O   LIG d   1      -0.498  81.447 110.712  0.00  0.00    -0.368 OA
BRANCH   7   8
ATOM      8  C   LIG d   1       0.462  81.631 109.642  0.00  0.00     0.119 C 
BRANCH   8   9
ATOM      9  C   LIG d   1       1.606  80.624 109.868  0.00  0.00     0.028 C 
ATOM     10  C   LIG d   1       2.969  81.315 110.046  0.00  0.00     0.006 C 
ENDBRANCH   8   9
BRANCH   8  11
ATOM     11  C   LIG d   1       1.117  83.013 109.713  0.00  0.00     0.028 C 
ATOM     12  C   LIG d   1       0.106  84.139 109.981  0.00  0.00     0.006 C 
ENDBRANCH   8  11
ENDBRANCH   7   8
ENDBRANCH   1   7
BRANCH   6  13
ATOM     13  N   LIG d   1       1.170  81.278 113.217  0.00  0.00    -0.311 N 
ATOM     14  C   LIG d   1       1.395  82.584 113.342  0.00  0.00     0.210 C 
ATOM     15  C   LIG d   1       2.866  82.974 113.513  0.00  0.00     0.109 C 
ATOM     16  O   LIG d   1       0.512  83.455 113.359  0.00  0.00    -0.276 OA
ATOM     17  H   LIG d   1       1.941  80.640 113.246  0.00  0.00     0.149 HD
ENDBRANCH   6  13
BRANCH   5  18
ATOM     18  N   LIG d   1      -0.460  79.887 115.394  0.00  0.00     0.381 N 
ATOM     19  H   LIG d   1      -1.394  80.096 115.685  0.00  0.00    -0.090 HD
ATOM     20  H   LIG d   1       0.099  80.714 115.511  0.00  0.00    -0.090 HD
ATOM     21  H   LIG d   1      -0.090  79.147 115.949  0.00  0.00    -0.090 HD
ENDBRANCH   5  18
BRANCH   3  22
ATOM     22  C   LIG d   1      -2.832  77.573 111.936  0.00  0.00     0.382 C 
ATOM     23  O   LIG d   1      -3.183  76.738 112.804  0.00  0.00    -0.241 OA
ATOM     24  O   LIG d   1      -3.204  77.426 110.757  0.00  0.00    -0.241 OA
ENDBRANCH   3  22
TORSDOF 7
ENDMDL
MODEL 3
REMARK VINA RESULT:      -4.8      1.094      1.941
REMARK  7 active torsions:
REMARK  status: ('A' for Active; 'I' for Inactive)
REMARK    1  A    between atoms: C_2  and  C_3 
REMARK    2  A    between atoms: C_3  and  O_6 
REMARK    3  A    between atoms: C_3  and  C_4 
REMARK    4  A    between atoms: C_7  and  O_6 
REMARK    5  A    between atoms: C_9  and  C_10 
REMARK    6  A    between atoms: N_15  and  C_14 
REMARK    7  A    between atoms: N_20  and  C_19 
REMARK       I    between atoms: C_22  and  N_20 
ROOT
ATOM      1  C   LIG d   1       1.609  81.818 112.718  0.00  0.00     0.161 C 
ATOM      2  C   LIG d   1       2.623  82.387 111.929  0.00  0.00     0.016 C 
ATOM      3  C   LIG d   1       2.650  82.304 110.518  0.00  0.00     0.038 C 
ATOM      4  C   LIG d   1       1.578  81.773 109.786  0.00  0.00     0.028 C 
ATOM      5  C   LIG d   1       0.769  80.737 110.561  0.00  0.00    -0.047 C 
ATOM      6  C   LIG d   1       0.374  81.332 111.932  0.00  0.00     0.091 C 
ENDROOT
BRANCH   1   7
ATOM      7  O   LIG d   1       1.214  82.746 113.748  0.00  0.00    -0.368 OA
BRANCH   7   8
ATOM      8  C   LIG d   1       1.759  82.503 115.068  0.00  0.00     0.119 C 
BRANCH   8   9
ATOM      9  C   LIG d   1       2.392  83.819 115.557  0.00  0.00     0.028 C 
ATOM     10  C   LIG d   1       3.809  84.032 114.998  0.00  0.00     0.006 C 
ENDBRANCH   8   9
BRANCH   8  11
ATOM     11  C   LIG d   1       2.909  81.493 115.019  0.00  0.00     0.028 C 
ATOM     12  C   LIG d   1       3.000  80.630 116.287  0.00  0.00     0.006 C 
ENDBRANCH   8  11
ENDBRANCH   7   8
ENDBRANCH   1   7
BRANCH   6  13
ATOM     13  N   LIG d   1      -0.347  80.354 112.787  0.00  0.00    -0.311 N 
ATOM     14  C   LIG d   1      -1.675  80.275 112.851  0.00  0.00     0.210 C 
ATOM     15  C   LIG d   1      -2.214  79.209 113.811  0.00  0.00     0.109 C 
ATOM     16  O   LIG d   1      -2.458  80.964 112.179  0.00  0.00    -0.276 OA
ATOM     17  H   LIG d   1       0.211  79.734 113.342  0.00  0.00     0.149 HD
ENDBRANCH   6  13
BRANCH   5  18
ATOM     18  N   LIG d   1      -0.394  80.370 109.732  0.00  0.00     0.381 N 
ATOM     19  H   LIG d   1      -1.209  80.847 110.063  0.00  0.00    -0.090 HD
ATOM     20  H   LIG d   1      -0.553  79.381 109.815  0.00  0.00    -0.090 HD
ATOM     21  H   LIG d   1      -0.224  80.608 108.780  0.00  0.00    -0.090 HD
ENDBRANCH   5  18
BRANCH   3  22
ATOM     22  C   LIG d   1       3.778  82.720 109.827  0.00  0.00     0.382 C 
ATOM     23  O   LIG d   1       4.617  81.875 109.431  0.00  0.00    -0.241 OA
ATOM     24  O   LIG d   1       3.988  83.932 109.632  0.00  0.00    -0.241 OA
ENDBRANCH   3  22
TORSDOF 7
ENDMDL
MODEL 4
REMARK VINA RESULT:      -4.6      5.362      7.301
REMARK  7 active torsions:
REMARK  status: ('A' for Active; 'I' for Inactive)
REMARK    1  A    between atoms: C_2  and  C_3 
REMARK    2  A    between atoms: C_3  and  O_6 
REMARK    3  A    between atoms: C_3  and  C_4 
REMARK    4  A    between atoms: C_7  and  O_6 
REMARK    5  A    between atoms: C_9  and  C_10 
REMARK    6  A    between atoms: N_15  and  C_14 
REMARK    7  A    between atoms: N_20  and  C_19 
REMARK       I    between atoms: C_22  and  N_20 
ROOT
ATOM      1  C   LIG d   1      -2.122  78.585 116.328  0.00  0.00     0.161 C 
ATOM      2  C   LIG d   1      -2.601  79.370 115.266  0.00  0.00     0.016 C 
ATOM      3  C   LIG d   1      -2.301  79.110 113.909  0.00  0.00     0.038 C 
ATOM      4  C   LIG d   1      -1.621  77.950 113.509  0.00  0.00     0.028 C 
ATOM      5  C   LIG d   1      -0.686  77.396 114.580  0.00  0.00    -0.047 C 
ATOM      6  C   LIG d   1      -1.470  77.252 115.904  0.00  0.00     0.091 C 
ENDROOT
BRANCH   1   7
ATOM      7  O   LIG d   1      -3.181  78.346 117.275  0.00  0.00    -0.368 OA
BRANCH   7   8
ATOM      8  C   LIG d   1      -3.192  79.199 118.447  0.00  0.00     0.119 C 
BRANCH   8   9
ATOM      9  C   LIG d   1      -1.777  79.788 118.604  0.00  0.00     0.028 C 
ATOM     10  C   LIG d   1      -1.675  80.760 119.792  0.00  0.00     0.006 C 
ENDBRANCH   8   9
BRANCH   8  11
ATOM     11  C   LIG d   1      -3.438  78.388 119.723  0.00  0.00     0.028 C 
ATOM     12  C   LIG d   1      -3.184  76.884 119.532  0.00  0.00     0.006 C 
ENDBRANCH   8  11
ENDBRANCH   7   8
ENDBRANCH   1   7
BRANCH   6  13
ATOM     13  N   LIG d   1      -0.609  76.796 117.026  0.00  0.00    -0.311 N 
ATOM     14  C   LIG d   1      -0.506  75.521 117.400  0.00  0.00     0.210 C 
ATOM     15  C   LIG d   1       0.422  75.271 118.593  0.00  0.00     0.109 C 
ATOM     16  O   LIG d   1      -1.069  74.571 116.836  0.00  0.00    -0.276 OA
ATOM     17  H   LIG d   1      -0.092  77.497 117.519  0.00  0.00     0.149 HD
ENDBRANCH   6  13
BRANCH   5  18
ATOM     18  N   LIG d   1      -0.149  76.115 114.083  0.00  0.00     0.381 N 
ATOM     19  H   LIG d   1      -0.893  75.455 113.974  0.00  0.00    -0.090 HD
ATOM     20  H   LIG d   1       0.499  75.751 114.759  0.00  0.00    -0.090 HD
ATOM     21  H   LIG d   1       0.312  76.254 113.211  0.00  0.00    -0.090 HD
ENDBRANCH   5  18
BRANCH   3  22
ATOM     22  C   LIG d   1      -2.649  80.037 112.938  0.00  0.00     0.382 C 
ATOM     23  O   LIG d   1      -2.165  79.947 111.784  0.00  0.00    -0.241 OA
ATOM     24  O   LIG d   1      -3.405  80.987 113.214  0.00  0.00    -0.241 OA
ENDBRANCH   3  22
TORSDOF 7
ENDMDL
MODEL 5
REMARK VINA RESULT:      -4.5      1.772      2.774
REMARK  7 active torsions:
REMARK  status: ('A' for Active; 'I' for Inactive)
REMARK    1  A    between atoms: C_2  and  C_3 
REMARK    2  A    between atoms: C_3  and  O_6 
REMARK    3  A    between atoms: C_3  and  C_4 
REMARK    4  A    between atoms: C_7  and  O_6 
REMARK    5  A    between atoms: C_9  and  C_10 
REMARK    6  A    between atoms: N_15  and  C_14 
REMARK    7  A    between atoms: N_20  and  C_19 
REMARK       I    between atoms: C_22  and  N_20 
ROOT
ATOM      1  C   LIG d   1       1.706  81.643 113.406  0.00  0.00     0.161 C 
ATOM      2  C   LIG d   1       2.594  82.660 113.017  0.00  0.00     0.016 C 
ATOM      3  C   LIG d   1       2.516  83.325 111.772  0.00  0.00     0.038 C 
ATOM      4  C   LIG d   1       1.446  83.122 110.888  0.00  0.00     0.028 C 
ATOM      5  C   LIG d   1       0.808  81.743 111.016  0.00  0.00    -0.047 C 
ATOM      6  C   LIG d   1       0.466  81.485 112.502  0.00  0.00     0.091 C 
ENDROOT
BRANCH   1   7
ATOM      7  O   LIG d   1       1.305  81.843 114.776  0.00  0.00    -0.368 OA
BRANCH   7   8
ATOM      8  C   LIG d   1       1.904  80.954 115.752  0.00  0.00     0.119 C 
BRANCH   8   9
ATOM      9  C   LIG d   1       0.880  80.756 116.887  0.00  0.00     0.028 C 
ATOM     10  C   LIG d   1       1.205  79.535 117.764  0.00  0.00     0.006 C 
ENDBRANCH   8   9
BRANCH   8  11
ATOM     11  C   LIG d   1       3.126  81.597 116.415  0.00  0.00     0.028 C 
ATOM     12  C   LIG d   1       4.409  80.772 116.227  0.00  0.00     0.006 C 
ENDBRANCH   8  11
ENDBRANCH   7   8
ENDBRANCH   1   7
BRANCH   6  13
ATOM     13  N   LIG d   1      -0.085  80.123 112.728  0.00  0.00    -0.311 N 
ATOM     14  C   LIG d   1      -1.388  79.847 112.705  0.00  0.00     0.210 C 
ATOM     15  C   LIG d   1      -1.743  78.383 112.983  0.00  0.00     0.109 C 
ATOM     16  O   LIG d   1      -2.281  80.668 112.449  0.00  0.00    -0.276 OA
ATOM     17  H   LIG d   1       0.571  79.390 112.912  0.00  0.00     0.149 HD
ENDBRANCH   6  13
BRANCH   5  18
ATOM     18  N   LIG d   1      -0.377  81.716 110.138  0.00  0.00     0.381 N 
ATOM     19  H   LIG d   1      -0.445  80.826 109.687  0.00  0.00    -0.090 HD
ATOM     20  H   LIG d   1      -0.272  82.421 109.429  0.00  0.00    -0.090 HD
ATOM     21  H   LIG d   1      -1.200  81.891 110.670  0.00  0.00    -0.090 HD
ENDBRANCH   5  18
BRANCH   3  22
ATOM     22  C   LIG d   1       3.539  84.177 111.383  0.00  0.00     0.382 C 
ATOM     23  O   LIG d   1       3.533  84.680 110.233  0.00  0.00    -0.241 OA
ATOM     24  O   LIG d   1       4.490  84.415 112.152  0.00  0.00    -0.241 OA
ENDBRANCH   3  22
TORSDOF 7
ENDMDL
MODEL 6
REMARK VINA RESULT:      -4.5      3.613      6.511
REMARK  7 active torsions:
REMARK  status: ('A' for Active; 'I' for Inactive)
REMARK    1  A    between atoms: C_2  and  C_3 
REMARK    2  A    between atoms: C_3  and  O_6 
REMARK    3  A    between atoms: C_3  and  C_4 
REMARK    4  A    between atoms: C_7  and  O_6 
REMARK    5  A    between atoms: C_9  and  C_10 
REMARK    6  A    between atoms: N_15  and  C_14 
REMARK    7  A    between atoms: N_20  and  C_19 
REMARK       I    between atoms: C_22  and  N_20 
ROOT
ATOM      1  C   LIG d   1      -1.390  79.205 114.675  0.00  0.00     0.161 C 
ATOM      2  C   LIG d   1      -1.649  77.902 115.131  0.00  0.00     0.016 C 
ATOM      3  C   LIG d   1      -1.776  76.787 114.270  0.00  0.00     0.038 C 
ATOM      4  C   LIG d   1      -1.501  76.876 112.897  0.00  0.00     0.028 C 
ATOM      5  C   LIG d   1      -1.730  78.269 112.322  0.00  0.00    -0.047 C 
ATOM      6  C   LIG d   1      -0.976  79.301 113.192  0.00  0.00     0.091 C 
ENDROOT
BRANCH   1   7
ATOM      7  O   LIG d   1      -0.396  79.827 115.514  0.00  0.00    -0.368 OA
BRANCH   7   8
ATOM      8  C   LIG d   1      -0.242  79.267 116.841  0.00  0.00     0.119 C 
BRANCH   8   9
ATOM      9  C   LIG d   1      -0.793  80.298 117.845  0.00  0.00     0.028 C 
ATOM     10  C   LIG d   1      -2.016  79.770 118.615  0.00  0.00     0.006 C 
ENDBRANCH   8   9
BRANCH   8  11
ATOM     11  C   LIG d   1       1.236  79.097 117.205  0.00  0.00     0.028 C 
ATOM     12  C   LIG d   1       1.653  77.623 117.331  0.00  0.00     0.006 C 
ENDBRANCH   8  11
ENDBRANCH   7   8
ENDBRANCH   1   7
BRANCH   6  13
ATOM     13  N   LIG d   1      -1.215  80.699 112.748  0.00  0.00    -0.311 N 
ATOM     14  C   LIG d   1      -0.411  81.350 111.909  0.00  0.00     0.210 C 
ATOM     15  C   LIG d   1      -0.831  82.790 111.597  0.00  0.00     0.109 C 
ATOM     16  O   LIG d   1       0.592  80.861 111.368  0.00  0.00    -0.276 OA
ATOM     17  H   LIG d   1      -2.025  81.162 113.114  0.00  0.00     0.149 HD
ENDBRANCH   6  13
BRANCH   5  18
ATOM     18  N   LIG d   1      -1.274  78.253 110.919  0.00  0.00     0.381 N 
ATOM     19  H   LIG d   1      -2.058  78.137 110.309  0.00  0.00    -0.090 HD
ATOM     20  H   LIG d   1      -0.654  77.472 110.788  0.00  0.00    -0.090 HD
ATOM     21  H   LIG d   1      -0.799  79.102 110.705  0.00  0.00    -0.090 HD
ENDBRANCH   5  18
BRANCH   3  22
ATOM     22  C   LIG d   1      -2.222  75.576 114.775  0.00  0.00     0.382 C 
ATOM     23  O   LIG d   1      -1.395  74.717 115.165  0.00  0.00    -0.241 OA
ATOM     24  O   LIG d   1      -3.439  75.313 114.805  0.00  0.00    -0.241 OA
ENDBRANCH   3  22
TORSDOF 7
ENDMDL
MODEL 7
REMARK VINA RESULT:      -4.4      1.587      4.826
REMARK  7 active torsions:
REMARK  status: ('A' for Active; 'I' for Inactive)
REMARK    1  A    between atoms: C_2  and  C_3 
REMARK    2  A    between atoms: C_3  and  O_6 
REMARK    3  A    between atoms: C_3  and  C_4 
REMARK    4  A    between atoms: C_7  and  O_6 
REMARK    5  A    between atoms: C_9  and  C_10 
REMARK    6  A    between atoms: N_15  and  C_14 
REMARK    7  A    between atoms: N_20  and  C_19 
REMARK       I    between atoms: C_22  and  N_20 
ROOT
ATOM      1  C   LIG d   1       0.342  82.722 112.176  0.00  0.00     0.161 C 
ATOM      2  C   LIG d   1      -0.834  82.074 112.589  0.00  0.00     0.016 C 
ATOM      3  C   LIG d   1      -1.230  80.802 112.113  0.00  0.00     0.038 C 
ATOM      4  C   LIG d   1      -0.394  80.022 111.301  0.00  0.00     0.028 C 
ATOM      5  C   LIG d   1       0.572  80.846 110.457  0.00  0.00    -0.047 C 
ATOM      6  C   LIG d   1       1.321  81.838 111.376  0.00  0.00     0.091 C 
ENDROOT
BRANCH   1   7
ATOM      7  O   LIG d   1       1.007  83.301 113.317  0.00  0.00    -0.368 OA
BRANCH   7   8
ATOM      8  C   LIG d   1       2.200  82.617 113.773  0.00  0.00     0.119 C 
BRANCH   8   9
ATOM      9  C   LIG d   1       1.776  81.641 114.888  0.00  0.00     0.028 C 
ATOM     10  C   LIG d   1       2.844  81.504 115.986  0.00  0.00     0.006 C 
ENDBRANCH   8   9
BRANCH   8  11
ATOM     11  C   LIG d   1       3.180  83.589 114.437  0.00  0.00     0.028 C 
ATOM     12  C   LIG d   1       3.679  84.680 113.476  0.00  0.00     0.006 C 
ENDBRANCH   8  11
ENDBRANCH   7   8
ENDBRANCH   1   7
BRANCH   6  13
ATOM     13  N   LIG d   1       2.225  82.741 110.617  0.00  0.00    -0.311 N 
ATOM     14  C   LIG d   1       3.501  82.457 110.363  0.00  0.00     0.210 C 
ATOM     15  C   LIG d   1       4.261  83.534 109.583  0.00  0.00     0.109 C 
ATOM     16  O   LIG d   1       4.067  81.400 110.682  0.00  0.00    -0.276 OA
ATOM     17  H   LIG d   1       1.839  83.607 110.294  0.00  0.00     0.149 HD
ENDBRANCH   6  13
BRANCH   5  18
ATOM     18  N   LIG d   1       1.473  79.906 109.765  0.00  0.00     0.381 N 
ATOM     19  H   LIG d   1       1.199  78.965 109.964  0.00  0.00    -0.090 HD
ATOM     20  H   LIG d   1       2.409  80.041 110.106  0.00  0.00    -0.090 HD
ATOM     21  H   LIG d   1       1.445  80.067 108.782  0.00  0.00    -0.090 HD
ENDBRANCH   5  18
BRANCH   3  22
ATOM     22  C   LIG d   1      -2.492  80.317 112.419  0.00  0.00     0.382 C 
ATOM     23  O   LIG d   1      -2.698  79.079 112.448  0.00  0.00    -0.241 OA
ATOM     24  O   LIG d   1      -3.439  81.101 112.621  0.00  0.00    -0.241 OA
ENDBRANCH   3  22
TORSDOF 7
ENDMDL
MODEL 8
REMARK VINA RESULT:      -4.4      5.190      8.105
REMARK  7 active torsions:
REMARK  status: ('A' for Active; 'I' for Inactive)
REMARK    1  A    between atoms: C_2  and  C_3 
REMARK    2  A    between atoms: C_3  and  O_6 
REMARK    3  A    between atoms: C_3  and  C_4 
REMARK    4  A    between atoms: C_7  and  O_6 
REMARK    5  A    between atoms: C_9  and  C_10 
REMARK    6  A    between atoms: N_15  and  C_14 
REMARK    7  A    between atoms: N_20  and  C_19 
REMARK       I    between atoms: C_22  and  N_20 
ROOT
ATOM      1  C   LIG d   1      -1.671  78.198 117.199  0.00  0.00     0.161 C 
ATOM      2  C   LIG d   1      -2.328  77.211 116.445  0.00  0.00     0.016 C 
ATOM      3  C   LIG d   1      -2.254  77.131 115.036  0.00  0.00     0.038 C 
ATOM      4  C   LIG d   1      -1.391  77.948 114.291  0.00  0.00     0.028 C 
ATOM      5  C   LIG d   1      -1.097  79.287 114.959  0.00  0.00    -0.047 C 
ATOM      6  C   LIG d   1      -0.637  79.031 116.413  0.00  0.00     0.091 C 
ENDROOT
BRANCH   1   7
ATOM      7  O   LIG d   1      -1.058  77.601 118.358  0.00  0.00    -0.368 OA
BRANCH   7   8
ATOM      8  C   LIG d   1      -0.464  76.294 118.163  0.00  0.00     0.119 C 
BRANCH   8   9
ATOM      9  C   LIG d   1      -1.021  75.364 119.258  0.00  0.00     0.028 C 
ATOM     10  C   LIG d   1      -1.812  74.180 118.677  0.00  0.00     0.006 C 
ENDBRANCH   8   9
BRANCH   8  11
ATOM     11  C   LIG d   1       1.050  76.329 118.392  0.00  0.00     0.028 C 
ATOM     12  C   LIG d   1       1.515  77.610 119.103  0.00  0.00     0.006 C 
ENDBRANCH   8  11
ENDBRANCH   7   8
ENDBRANCH   1   7
BRANCH   6  13
ATOM     13  N   LIG d   1      -0.409  80.292 117.166  0.00  0.00    -0.311 N 
ATOM     14  C   LIG d   1       0.785  80.873 117.277  0.00  0.00     0.210 C 
ATOM     15  C   LIG d   1       0.803  82.156 118.114  0.00  0.00     0.109 C 
ATOM     16  O   LIG d   1       1.823  80.466 116.736  0.00  0.00    -0.276 OA
ATOM     17  H   LIG d   1      -1.203  80.708 117.610  0.00  0.00     0.149 HD
ENDBRANCH   6  13
BRANCH   5  18
ATOM     18  N   LIG d   1      -0.080  79.978 114.144  0.00  0.00     0.381 N 
ATOM     19  H   LIG d   1       0.825  79.852 114.553  0.00  0.00    -0.090 HD
ATOM     20  H   LIG d   1      -0.287  80.961 114.133  0.00  0.00    -0.090 HD
ATOM     21  H   LIG d   1      -0.086  79.619 113.215  0.00  0.00    -0.090 HD
ENDBRANCH   5  18
BRANCH   3  22
ATOM     22  C   LIG d   1      -3.081  76.251 114.354  0.00  0.00     0.382 C 
ATOM     23  O   LIG d   1      -3.435  75.176 114.895  0.00  0.00    -0.241 OA
ATOM     24  O   LIG d   1      -3.440  76.497 113.187  0.00  0.00    -0.241 OA
ENDBRANCH   3  22
TORSDOF 7
ENDMDL
MODEL 9
REMARK VINA RESULT:      -4.2      4.022      7.702
REMARK  7 active torsions:
REMARK  status: ('A' for Active; 'I' for Inactive)
REMARK    1  A    between atoms: C_2  and  C_3 
REMARK    2  A    between atoms: C_3  and  O_6 
REMARK    3  A    between atoms: C_3  and  C_4 
REMARK    4  A    between atoms: C_7  and  O_6 
REMARK    5  A    between atoms: C_9  and  C_10 
REMARK    6  A    between atoms: N_15  and  C_14 
REMARK    7  A    between atoms: N_20  and  C_19 
REMARK       I    between atoms: C_22  and  N_20 
ROOT
ATOM      1  C   LIG d   1      -0.809  78.323 114.888  0.00  0.00     0.161 C 
ATOM      2  C   LIG d   1      -1.633  77.186 114.847  0.00  0.00     0.016 C 
ATOM      3  C   LIG d   1      -1.899  76.377 115.976  0.00  0.00     0.038 C 
ATOM      4  C   LIG d   1      -1.479  76.740 117.264  0.00  0.00     0.028 C 
ATOM      5  C   LIG d   1      -0.223  77.606 117.270  0.00  0.00    -0.047 C 
ATOM      6  C   LIG d   1      -0.431  78.798 116.307  0.00  0.00     0.091 C 
ENDROOT
BRANCH   1   7
ATOM      7  O   LIG d   1      -1.422  79.397 114.147  0.00  0.00    -0.368 OA
BRANCH   7   8
ATOM      8  C   LIG d   1      -1.281  79.338 112.706  0.00  0.00     0.119 C 
BRANCH   8   9
ATOM      9  C   LIG d   1      -0.931  80.757 112.217  0.00  0.00     0.028 C 
ATOM     10  C   LIG d   1       0.130  80.750 111.104  0.00  0.00     0.006 C 
ENDBRANCH   8   9
BRANCH   8  11
ATOM     11  C   LIG d   1      -2.611  78.993 112.030  0.00  0.00     0.028 C 
ATOM     12  C   LIG d   1      -2.525  77.730 111.158  0.00  0.00     0.006 C 
ENDBRANCH   8  11
ENDBRANCH   7   8
ENDBRANCH   1   7
BRANCH   6  13
ATOM     13  N   LIG d   1       0.781  79.649 116.188  0.00  0.00    -0.311 N 
ATOM     14  C   LIG d   1       0.933  80.803 116.837  0.00  0.00     0.210 C 
ATOM     15  C   LIG d   1       2.250  81.533 116.558  0.00  0.00     0.109 C 
ATOM     16  O   LIG d   1       0.115  81.275 117.641  0.00  0.00    -0.276 OA
ATOM     17  H   LIG d   1       1.508  79.326 115.580  0.00  0.00     0.149 HD
ENDBRANCH   6  13
BRANCH   5  18
ATOM     18  N   LIG d   1       0.023  78.025 118.662  0.00  0.00     0.381 N 
ATOM     19  H   LIG d   1       0.948  78.398 118.745  0.00  0.00    -0.090 HD
ATOM     20  H   LIG d   1      -0.047  77.221 119.261  0.00  0.00    -0.090 HD
ATOM     21  H   LIG d   1      -0.646  78.711 118.936  0.00  0.00    -0.090 HD
ENDBRANCH   5  18
BRANCH   3  22
ATOM     22  C   LIG d   1      -2.561  75.169 115.815  0.00  0.00     0.382 C 
ATOM     23  O   LIG d   1      -2.265  74.191 116.543  0.00  0.00    -0.241 OA
ATOM     24  O   LIG d   1      -3.419  75.033 114.923  0.00  0.00    -0.241 OA
ENDBRANCH   3  22
TORSDOF 7
ENDMDL
