MODEL 1
REMARK VINA RESULT:      -5.3      0.000      0.000
REMARK  7 active torsions:
REMARK  status: ('A' for Active; 'I' for Inactive)
REMARK    1  A    between atoms: C_2  and  C_3 
REMARK    2  A    between atoms: C_3  and  O_6 
REMARK    3  A    between atoms: C_3  and  C_4 
REMARK    4  A    between atoms: C_7  and  O_6 
REMARK    5  A    between atoms: C_9  and  C_10 
REMARK    6  A    between atoms: N_15  and  C_14 
REMARK    7  A    between atoms: N_20  and  C_19 
REMARK       I    between atoms: C_22  and  N_20 
ROOT
ATOM      1  C   LIG d   1       0.493  81.936 111.709  0.00  0.00     0.161 C 
ATOM      2  C   LIG d   1      -0.771  81.649 112.252  0.00  0.00     0.016 C 
ATOM      3  C   LIG d   1      -1.445  80.423 112.047  0.00  0.00     0.038 C 
ATOM      4  C   LIG d   1      -0.830  79.337 111.406  0.00  0.00     0.028 C 
ATOM      5  C   LIG d   1       0.244  79.752 110.406  0.00  0.00    -0.047 C 
ATOM      6  C   LIG d   1       1.227  80.723 111.100  0.00  0.00     0.091 C 
ENDROOT
BRANCH   1   7
ATOM      7  O   LIG d   1       1.318  82.574 112.704  0.00  0.00    -0.368 OA
BRANCH   7   8
ATOM      8  C   LIG d   1       1.203  84.015 112.801  0.00  0.00     0.119 C 
BRANCH   8   9
ATOM      9  C   LIG d   1       2.048  84.624 111.665  0.00  0.00     0.028 C 
ATOM     10  C   LIG d   1       1.284  84.679 110.331  0.00  0.00     0.006 C 
ENDBRANCH   8   9
BRANCH   8  11
ATOM     11  C   LIG d   1       1.828  84.538 114.097  0.00  0.00     0.028 C 
ATOM     12  C   LIG d   1       2.981  83.656 114.601  0.00  0.00     0.006 C 
ENDBRANCH   8  11
ENDBRANCH   7   8
ENDBRANCH   1   7
BRANCH   6  13
ATOM     13  N   LIG d   1       2.261  81.245 110.169  0.00  0.00    -0.311 N 
ATOM     14  C   LIG d   1       3.505  81.537 110.544  0.00  0.00     0.210 C 
ATOM     15  C   LIG d   1       4.405  82.081 109.431  0.00  0.00     0.109 C 
ATOM     16  O   LIG d   1       3.957  81.368 111.687  0.00  0.00    -0.276 OA
ATOM     17  H   LIG d   1       1.988  81.382 109.215  0.00  0.00     0.149 HD
ENDBRANCH   6  13
BRANCH   5  18
ATOM     18  N   LIG d   1       0.896  78.523 109.916  0.00  0.00     0.381 N 
ATOM     19  H   LIG d   1       1.287  78.017 110.685  0.00  0.00    -0.090 HD
ATOM     20  H   LIG d   1       1.642  78.778 109.293  0.00  0.00    -0.090 HD
ATOM     21  H   LIG d   1       0.233  77.954 109.437  0.00  0.00    -0.090 HD
ENDBRANCH   5  18
BRANCH   3  22
ATOM     22  C   LIG d   1      -2.764  80.288 112.452  0.00  0.00     0.382 C 
ATOM     23  O   LIG d   1      -3.431  81.304 112.762  0.00  0.00    -0.241 OA
ATOM     24  O   LIG d   1      -3.282  79.159 112.552  0.00  0.00    -0.241 OA
ENDBRANCH   3  22
TORSDOF 7
ENDMDL
MODEL 2
REMARK VINA RESULT:      -5.3      2.115      5.069
REMARK  7 active torsions:
REMARK  status: ('A' for Active; 'I' for Inactive)
REMARK    1  A    between atoms: C_2  and  C_3 
REMARK    2  A    between atoms: C_3  and  O_6 
REMARK    3  A    between atoms: C_3  and  C_4 
REMARK    4  A    between atoms: C_7  and  O_6 
REMARK    5  A    between atoms: C_9  and  C_10 
REMARK    6  A    between atoms: N_15  and  C_14 
REMARK    7  A    between atoms: N_20  and  C_19 
REMARK       I    between atoms: C_22  and  N_20 
ROOT
ATOM      1  C   LIG d   1       1.563  81.836 112.886  0.00  0.00     0.161 C 
ATOM      2  C   LIG d   1       2.477  82.656 112.205  0.00  0.00     0.016 C 
ATOM      3  C   LIG d   1       2.508  82.785 110.797  0.00  0.00     0.038 C 
ATOM      4  C   LIG d   1       1.522  82.215 109.979  0.00  0.00     0.028 C 
ATOM      5  C   LIG d   1       0.880  80.970 110.582  0.00  0.00    -0.047 C 
ATOM      6  C   LIG d   1       0.409  81.294 112.018  0.00  0.00     0.091 C 
ENDROOT
BRANCH   1   7
ATOM      7  O   LIG d   1       1.041  82.535 114.034  0.00  0.00    -0.368 OA
BRANCH   7   8
ATOM      8  C   LIG d   1       2.022  83.126 114.921  0.00  0.00     0.119 C 
BRANCH   8   9
ATOM      9  C   LIG d   1       2.403  82.059 115.965  0.00  0.00     0.028 C 
ATOM     10  C   LIG d   1       3.898  81.699 115.917  0.00  0.00     0.006 C 
ENDBRANCH   8   9
BRANCH   8  11
ATOM     11  C   LIG d   1       1.421  84.284 115.724  0.00  0.00     0.028 C 
ATOM     12  C   LIG d   1       1.117  83.902 117.182  0.00  0.00     0.006 C 
ENDBRANCH   8  11
ENDBRANCH   7   8
ENDBRANCH   1   7
BRANCH   6  13
ATOM     13  N   LIG d   1      -0.155  80.106 112.711  0.00  0.00    -0.311 N 
ATOM     14  C   LIG d   1      -1.450  79.795 112.696  0.00  0.00     0.210 C 
ATOM     15  C   LIG d   1      -1.823  78.540 113.491  0.00  0.00     0.109 C 
ATOM     16  O   LIG d   1      -2.321  80.421 112.073  0.00  0.00    -0.276 OA
ATOM     17  H   LIG d   1       0.485  79.525 113.215  0.00  0.00     0.149 HD
ENDBRANCH   6  13
BRANCH   5  18
ATOM     18  N   LIG d   1      -0.222  80.560 109.690  0.00  0.00     0.381 N 
ATOM     19  H   LIG d   1      -0.381  79.576 109.779  0.00  0.00    -0.090 HD
ATOM     20  H   LIG d   1       0.040  80.753 108.740  0.00  0.00    -0.090 HD
ATOM     21  H   LIG d   1      -1.052  81.061 109.922  0.00  0.00    -0.090 HD
ENDBRANCH   5  18
BRANCH   3  22
ATOM     22  C   LIG d   1       3.558  83.458 110.191  0.00  0.00     0.382 C 
ATOM     23  O   LIG d   1       3.449  84.679 109.924  0.00  0.00    -0.241 OA
ATOM     24  O   LIG d   1       4.596  82.850 109.868  0.00  0.00    -0.241 OA
ENDBRANCH   3  22
TORSDOF 7
ENDMDL
MODEL 3
REMARK VINA RESULT:      -5.2      1.159      2.036
REMARK  7 active torsions:
REMARK  status: ('A' for Active; 'I' for Inactive)
REMARK    1  A    between atoms: C_2  and  C_3 
REMARK    2  A    between atoms: C_3  and  O_6 
REMARK    3  A    between atoms: C_3  and  C_4 
REMARK    4  A    between atoms: C_7  and  O_6 
REMARK    5  A    between atoms: C_9  and  C_10 
REMARK    6  A    between atoms: N_15  and  C_14 
REMARK    7  A    between atoms: N_20  and  C_19 
REMARK       I    between atoms: C_22  and  N_20 
ROOT
ATOM      1  C   LIG d   1       0.528  82.799 111.840  0.00  0.00     0.161 C 
ATOM      2  C   LIG d   1      -0.719  82.362 112.318  0.00  0.00     0.016 C 
ATOM      3  C   LIG d   1      -1.224  81.060 112.096  0.00  0.00     0.038 C 
ATOM      4  C   LIG d   1      -0.446  80.053 111.507  0.00  0.00     0.028 C 
ATOM      5  C   LIG d   1       0.623  80.589 110.561  0.00  0.00    -0.047 C 
ATOM      6  C   LIG d   1       1.438  81.681 111.292  0.00  0.00     0.091 C 
ENDROOT
BRANCH   1   7
ATOM      7  O   LIG d   1       1.211  83.543 112.868  0.00  0.00    -0.368 OA
BRANCH   7   8
ATOM      8  C   LIG d   1       2.105  82.782 113.718  0.00  0.00     0.119 C 
BRANCH   8   9
ATOM      9  C   LIG d   1       1.512  82.791 115.140  0.00  0.00     0.028 C 
ATOM     10  C   LIG d   1       2.439  83.476 116.158  0.00  0.00     0.006 C 
ENDBRANCH   8   9
BRANCH   8  11
ATOM     11  C   LIG d   1       3.470  83.465 113.843  0.00  0.00     0.028 C 
ATOM     12  C   LIG d   1       3.623  84.669 112.900  0.00  0.00     0.006 C 
ENDBRANCH   8  11
ENDBRANCH   7   8
ENDBRANCH   1   7
BRANCH   6  13
ATOM     13  N   LIG d   1       2.451  82.318 110.410  0.00  0.00    -0.311 N 
ATOM     14  C   LIG d   1       3.737  81.971 110.401  0.00  0.00     0.210 C 
ATOM     15  C   LIG d   1       4.615  82.768 109.430  0.00  0.00     0.109 C 
ATOM     16  O   LIG d   1       4.228  81.058 111.081  0.00  0.00    -0.276 OA
ATOM     17  H   LIG d   1       2.133  83.048 109.803  0.00  0.00     0.149 HD
ENDBRANCH   6  13
BRANCH   5  18
ATOM     18  N   LIG d   1       1.448  79.446 110.126  0.00  0.00     0.381 N 
ATOM     19  H   LIG d   1       2.403  79.731 110.039  0.00  0.00    -0.090 HD
ATOM     20  H   LIG d   1       1.127  79.138 109.225  0.00  0.00    -0.090 HD
ATOM     21  H   LIG d   1       1.374  78.703 110.785  0.00  0.00    -0.090 HD
ENDBRANCH   5  18
BRANCH   3  22
ATOM     22  C   LIG d   1      -2.538  80.767 112.431  0.00  0.00     0.382 C 
ATOM     23  O   LIG d   1      -2.930  79.575 112.443  0.00  0.00    -0.241 OA
ATOM     24  O   LIG d   1      -3.346  81.681 112.677  0.00  0.00    -0.241 OA
ENDBRANCH   3  22
TORSDOF 7
ENDMDL
MODEL 4
REMARK VINA RESULT:      -5.0      6.310      7.878
REMARK  7 active torsions:
REMARK  status: ('A' for Active; 'I' for Inactive)
REMARK    1  A    between atoms: C_2  and  C_3 
REMARK    2  A    between atoms: C_3  and  O_6 
REMARK    3  A    between atoms: C_3  and  C_4 
REMARK    4  A    between atoms: C_7  and  O_6 
REMARK    5  A    between atoms: C_9  and  C_10 
REMARK    6  A    between atoms: N_15  and  C_14 
REMARK    7  A    between atoms: N_20  and  C_19 
REMARK       I    between atoms: C_22  and  N_20 
ROOT
ATOM      1  C   LIG d   1      -0.100  77.487 116.785  0.00  0.00     0.161 C 
ATOM      2  C   LIG d   1      -0.697  78.111 115.677  0.00  0.00     0.016 C 
ATOM      3  C   LIG d   1      -1.685  77.494 114.875  0.00  0.00     0.038 C 
ATOM      4  C   LIG d   1      -2.255  76.260 115.220  0.00  0.00     0.028 C 
ATOM      5  C   LIG d   1      -1.327  75.372 116.042  0.00  0.00    -0.047 C 
ATOM      6  C   LIG d   1      -0.790  76.184 117.242  0.00  0.00     0.091 C 
ENDROOT
BRANCH   1   7
ATOM      7  O   LIG d   1      -0.012  78.418 117.881  0.00  0.00    -0.368 OA
BRANCH   7   8
ATOM      8  C   LIG d   1      -0.982  79.494 117.884  0.00  0.00     0.119 C 
BRANCH   8   9
ATOM      9  C   LIG d   1      -0.278  80.751 118.430  0.00  0.00     0.028 C 
ATOM     10  C   LIG d   1       1.034  81.058 117.689  0.00  0.00     0.006 C 
ENDBRANCH   8   9
BRANCH   8  11
ATOM     11  C   LIG d   1      -2.125  79.211 118.863  0.00  0.00     0.028 C 
ATOM     12  C   LIG d   1      -3.368  78.626 118.174  0.00  0.00     0.006 C 
ENDBRANCH   8  11
ENDBRANCH   7   8
ENDBRANCH   1   7
BRANCH   6  13
ATOM     13  N   LIG d   1       0.192  75.416 118.052  0.00  0.00    -0.311 N 
ATOM     14  C   LIG d   1      -0.080  74.923 119.259  0.00  0.00     0.210 C 
ATOM     15  C   LIG d   1       1.080  74.180 119.930  0.00  0.00     0.109 C 
ATOM     16  O   LIG d   1      -1.181  75.001 119.823  0.00  0.00    -0.276 OA
ATOM     17  H   LIG d   1       1.101  75.279 117.656  0.00  0.00     0.149 HD
ENDBRANCH   6  13
BRANCH   5  18
ATOM     18  N   LIG d   1      -2.095  74.180 116.448  0.00  0.00     0.381 N 
ATOM     19  H   LIG d   1      -1.792  73.386 115.920  0.00  0.00    -0.090 HD
ATOM     20  H   LIG d   1      -3.068  74.337 116.250  0.00  0.00    -0.090 HD
ATOM     21  H   LIG d   1      -1.970  74.009 117.421  0.00  0.00    -0.090 HD
ENDBRANCH   5  18
BRANCH   3  22
ATOM     22  C   LIG d   1      -2.083  78.096 113.691  0.00  0.00     0.382 C 
ATOM     23  O   LIG d   1      -2.203  79.344 113.631  0.00  0.00    -0.241 OA
ATOM     24  O   LIG d   1      -2.367  77.405 112.695  0.00  0.00    -0.241 OA
ENDBRANCH   3  22
TORSDOF 7
ENDMDL
MODEL 5
REMARK VINA RESULT:      -4.9      6.361      7.804
REMARK  7 active torsions:
REMARK  status: ('A' for Active; 'I' for Inactive)
REMARK    1  A    between atoms: C_2  and  C_3 
REMARK    2  A    between atoms: C_3  and  O_6 
REMARK    3  A    between atoms: C_3  and  C_4 
REMARK    4  A    between atoms: C_7  and  O_6 
REMARK    5  A    between atoms: C_9  and  C_10 
REMARK    6  A    between atoms: N_15  and  C_14 
REMARK    7  A    between atoms: N_20  and  C_19 
REMARK       I    between atoms: C_22  and  N_20 
ROOT
ATOM      1  C   LIG d   1      -0.495  77.769 116.965  0.00  0.00     0.161 C 
ATOM      2  C   LIG d   1      -1.258  78.308 115.915  0.00  0.00     0.016 C 
ATOM      3  C   LIG d   1      -2.177  77.551 115.153  0.00  0.00     0.038 C 
ATOM      4  C   LIG d   1      -2.509  76.230 115.490  0.00  0.00     0.028 C 
ATOM      5  C   LIG d   1      -1.395  75.494 116.226  0.00  0.00    -0.047 C 
ATOM      6  C   LIG d   1      -0.925  76.358 117.419  0.00  0.00     0.091 C 
ENDROOT
BRANCH   1   7
ATOM      7  O   LIG d   1      -0.494  78.677 118.084  0.00  0.00    -0.368 OA
BRANCH   7   8
ATOM      8  C   LIG d   1       0.366  79.836 117.964  0.00  0.00     0.119 C 
BRANCH   8   9
ATOM      9  C   LIG d   1       1.713  79.484 118.624  0.00  0.00     0.028 C 
ATOM     10  C   LIG d   1       1.537  78.680 119.924  0.00  0.00     0.006 C 
ENDBRANCH   8   9
BRANCH   8  11
ATOM     11  C   LIG d   1      -0.180  81.022 118.765  0.00  0.00     0.028 C 
ATOM     12  C   LIG d   1       0.560  82.335 118.467  0.00  0.00     0.006 C 
ENDBRANCH   8  11
ENDBRANCH   7   8
ENDBRANCH   1   7
BRANCH   6  13
ATOM     13  N   LIG d   1       0.221  75.750 118.143  0.00  0.00    -0.311 N 
ATOM     14  C   LIG d   1       0.083  74.985 119.225  0.00  0.00     0.210 C 
ATOM     15  C   LIG d   1       1.395  74.475 119.828  0.00  0.00     0.109 C 
ATOM     16  O   LIG d   1      -1.004  74.655 119.723  0.00  0.00    -0.276 OA
ATOM     17  H   LIG d   1       1.138  75.941 117.788  0.00  0.00     0.149 HD
ENDBRANCH   6  13
BRANCH   5  18
ATOM     18  N   LIG d   1      -1.924  74.180 116.637  0.00  0.00     0.381 N 
ATOM     19  H   LIG d   1      -1.567  73.939 117.540  0.00  0.00    -0.090 HD
ATOM     20  H   LIG d   1      -1.615  73.485 115.980  0.00  0.00    -0.090 HD
ATOM     21  H   LIG d   1      -2.919  74.206 116.661  0.00  0.00    -0.090 HD
ENDBRANCH   5  18
BRANCH   3  22
ATOM     22  C   LIG d   1      -2.746  78.103 114.016  0.00  0.00     0.382 C 
ATOM     23  O   LIG d   1      -2.801  79.350 113.885  0.00  0.00    -0.241 OA
ATOM     24  O   LIG d   1      -3.245  77.371 113.140  0.00  0.00    -0.241 OA
ENDBRANCH   3  22
TORSDOF 7
ENDMDL
MODEL 6
REMARK VINA RESULT:      -4.8      4.961      6.647
REMARK  7 active torsions:
REMARK  status: ('A' for Active; 'I' for Inactive)
REMARK    1  A    between atoms: C_2  and  C_3 
REMARK    2  A    between atoms: C_3  and  O_6 
REMARK    3  A    between atoms: C_3  and  C_4 
REMARK    4  A    between atoms: C_7  and  O_6 
REMARK    5  A    between atoms: C_9  and  C_10 
REMARK    6  A    between atoms: N_15  and  C_14 
REMARK    7  A    between atoms: N_20  and  C_19 
REMARK       I    between atoms: C_22  and  N_20 
ROOT
ATOM      1  C   LIG d   1      -0.557  78.319 115.176  0.00  0.00     0.161 C 
ATOM      2  C   LIG d   1      -1.246  77.095 115.194  0.00  0.00     0.016 C 
ATOM      3  C   LIG d   1      -1.450  76.334 116.368  0.00  0.00     0.038 C 
ATOM      4  C   LIG d   1      -1.107  76.823 117.638  0.00  0.00     0.028 C 
ATOM      5  C   LIG d   1       0.042  77.826 117.611  0.00  0.00    -0.047 C 
ATOM      6  C   LIG d   1      -0.274  78.922 116.568  0.00  0.00     0.091 C 
ENDROOT
BRANCH   1   7
ATOM      7  O   LIG d   1      -1.268  79.267 114.355  0.00  0.00    -0.368 OA
BRANCH   7   8
ATOM      8  C   LIG d   1      -1.108  79.115 112.923  0.00  0.00     0.119 C 
BRANCH   8   9
ATOM      9  C   LIG d   1      -0.421  80.389 112.395  0.00  0.00     0.028 C 
ATOM     10  C   LIG d   1       0.220  80.182 111.013  0.00  0.00     0.006 C 
ENDBRANCH   8   9
BRANCH   8  11
ATOM     11  C   LIG d   1      -2.464  79.063 112.213  0.00  0.00     0.028 C 
ATOM     12  C   LIG d   1      -2.556  77.923 111.186  0.00  0.00     0.006 C 
ENDBRANCH   8  11
ENDBRANCH   7   8
ENDBRANCH   1   7
BRANCH   6  13
ATOM     13  N   LIG d   1       0.837  79.898 116.417  0.00  0.00    -0.311 N 
ATOM     14  C   LIG d   1       0.925  81.024 117.124  0.00  0.00     0.210 C 
ATOM     15  C   LIG d   1       2.140  81.898 116.799  0.00  0.00     0.109 C 
ATOM     16  O   LIG d   1       0.129  81.365 118.012  0.00  0.00    -0.276 OA
ATOM     17  H   LIG d   1       1.543  79.684 115.741  0.00  0.00     0.149 HD
ENDBRANCH   6  13
BRANCH   5  18
ATOM     18  N   LIG d   1       0.202  78.357 118.978  0.00  0.00     0.381 N 
ATOM     19  H   LIG d   1      -0.173  79.283 119.027  0.00  0.00    -0.090 HD
ATOM     20  H   LIG d   1       1.182  78.400 119.196  0.00  0.00    -0.090 HD
ATOM     21  H   LIG d   1      -0.266  77.766 119.630  0.00  0.00    -0.090 HD
ENDBRANCH   5  18
BRANCH   3  22
ATOM     22  C   LIG d   1      -1.966  75.051 116.274  0.00  0.00     0.382 C 
ATOM     23  O   LIG d   1      -1.641  74.180 117.117  0.00  0.00    -0.241 OA
ATOM     24  O   LIG d   1      -2.719  74.740 115.331  0.00  0.00    -0.241 OA
ENDBRANCH   3  22
TORSDOF 7
ENDMDL
MODEL 7
REMARK VINA RESULT:      -4.6      6.355      7.877
REMARK  7 active torsions:
REMARK  status: ('A' for Active; 'I' for Inactive)
REMARK    1  A    between atoms: C_2  and  C_3 
REMARK    2  A    between atoms: C_3  and  O_6 
REMARK    3  A    between atoms: C_3  and  C_4 
REMARK    4  A    between atoms: C_7  and  O_6 
REMARK    5  A    between atoms: C_9  and  C_10 
REMARK    6  A    between atoms: N_15  and  C_14 
REMARK    7  A    between atoms: N_20  and  C_19 
REMARK       I    between atoms: C_22  and  N_20 
ROOT
ATOM      1  C   LIG d   1      -0.880  77.689 117.144  0.00  0.00     0.161 C 
ATOM      2  C   LIG d   1      -1.601  78.326 116.121  0.00  0.00     0.016 C 
ATOM      3  C   LIG d   1      -1.728  77.801 114.815  0.00  0.00     0.038 C 
ATOM      4  C   LIG d   1      -1.264  76.520 114.483  0.00  0.00     0.028 C 
ATOM      5  C   LIG d   1      -0.091  76.058 115.342  0.00  0.00    -0.047 C 
ATOM      6  C   LIG d   1      -0.461  76.237 116.832  0.00  0.00     0.091 C 
ENDROOT
BRANCH   1   7
ATOM      7  O   LIG d   1      -1.628  77.741 118.375  0.00  0.00    -0.368 OA
BRANCH   7   8
ATOM      8  C   LIG d   1      -1.030  78.503 119.453  0.00  0.00     0.119 C 
BRANCH   8   9
ATOM      9  C   LIG d   1      -1.971  79.684 119.762  0.00  0.00     0.028 C 
ATOM     10  C   LIG d   1      -3.440  79.365 119.437  0.00  0.00     0.006 C 
ENDBRANCH   8   9
BRANCH   8  11
ATOM     11  C   LIG d   1       0.292  79.141 119.017  0.00  0.00     0.028 C 
ATOM     12  C   LIG d   1       1.473  78.737 119.915  0.00  0.00     0.006 C 
ENDBRANCH   8  11
ENDBRANCH   7   8
ENDBRANCH   1   7
BRANCH   6  13
ATOM     13  N   LIG d   1       0.663  75.888 117.741  0.00  0.00    -0.311 N 
ATOM     14  C   LIG d   1       0.531  75.082 118.793  0.00  0.00     0.210 C 
ATOM     15  C   LIG d   1       1.811  74.870 119.609  0.00  0.00     0.109 C 
ATOM     16  O   LIG d   1      -0.515  74.497 119.109  0.00  0.00    -0.276 OA
ATOM     17  H   LIG d   1       1.555  76.294 117.539  0.00  0.00     0.149 HD
ENDBRANCH   6  13
BRANCH   5  18
ATOM     18  N   LIG d   1       0.201  74.658 114.983  0.00  0.00     0.381 N 
ATOM     19  H   LIG d   1      -0.343  74.041 115.553  0.00  0.00    -0.090 HD
ATOM     20  H   LIG d   1       1.173  74.473 115.157  0.00  0.00    -0.090 HD
ATOM     21  H   LIG d   1      -0.008  74.502 114.021  0.00  0.00    -0.090 HD
ENDBRANCH   5  18
BRANCH   3  22
ATOM     22  C   LIG d   1      -2.289  78.579 113.813  0.00  0.00     0.382 C 
ATOM     23  O   LIG d   1      -2.919  79.622 114.108  0.00  0.00    -0.241 OA
ATOM     24  O   LIG d   1      -2.211  78.226 112.621  0.00  0.00    -0.241 OA
ENDBRANCH   3  22
TORSDOF 7
ENDMDL
MODEL 8
REMARK VINA RESULT:      -4.5      6.417      7.561
REMARK  7 active torsions:
REMARK  status: ('A' for Active; 'I' for Inactive)
REMARK    1  A    between atoms: C_2  and  C_3 
REMARK    2  A    between atoms: C_3  and  O_6 
REMARK    3  A    between atoms: C_3  and  C_4 
REMARK    4  A    between atoms: C_7  and  O_6 
REMARK    5  A    between atoms: C_9  and  C_10 
REMARK    6  A    between atoms: N_15  and  C_14 
REMARK    7  A    between atoms: N_20  and  C_19 
REMARK       I    between atoms: C_22  and  N_20 
ROOT
ATOM      1  C   LIG d   1      -0.315  78.008 117.309  0.00  0.00     0.161 C 
ATOM      2  C   LIG d   1      -1.248  78.387 116.330  0.00  0.00     0.016 C 
ATOM      3  C   LIG d   1      -1.881  77.469 115.460  0.00  0.00     0.038 C 
ATOM      4  C   LIG d   1      -1.735  76.082 115.613  0.00  0.00     0.028 C 
ATOM      5  C   LIG d   1      -0.414  75.680 116.260  0.00  0.00    -0.047 C 
ATOM      6  C   LIG d   1      -0.227  76.489 117.564  0.00  0.00     0.091 C 
ENDROOT
BRANCH   1   7
ATOM      7  O   LIG d   1      -0.586  78.708 118.539  0.00  0.00    -0.368 OA
BRANCH   7   8
ATOM      8  C   LIG d   1      -0.422  80.147 118.503  0.00  0.00     0.119 C 
BRANCH   8   9
ATOM      9  C   LIG d   1       1.089  80.439 118.417  0.00  0.00     0.028 C 
ATOM     10  C   LIG d   1       1.461  81.233 117.154  0.00  0.00     0.006 C 
ENDBRANCH   8   9
BRANCH   8  11
ATOM     11  C   LIG d   1      -0.886  80.793 119.812  0.00  0.00     0.028 C 
ATOM     12  C   LIG d   1      -0.994  82.323 119.715  0.00  0.00     0.006 C 
ENDBRANCH   8  11
ENDBRANCH   7   8
ENDBRANCH   1   7
BRANCH   6  13
ATOM     13  N   LIG d   1       1.080  76.217 118.217  0.00  0.00    -0.311 N 
ATOM     14  C   LIG d   1       1.237  75.340 119.206  0.00  0.00     0.210 C 
ATOM     15  C   LIG d   1       2.664  75.228 119.751  0.00  0.00     0.109 C 
ATOM     16  O   LIG d   1       0.336  74.620 119.663  0.00  0.00    -0.276 OA
ATOM     17  H   LIG d   1       1.871  76.735 117.887  0.00  0.00     0.149 HD
ENDBRANCH   6  13
BRANCH   5  18
ATOM     18  N   LIG d   1      -0.454  74.222 116.484  0.00  0.00     0.381 N 
ATOM     19  H   LIG d   1       0.454  73.896 116.748  0.00  0.00    -0.090 HD
ATOM     20  H   LIG d   1      -0.715  73.769 115.626  0.00  0.00    -0.090 HD
ATOM     21  H   LIG d   1      -1.114  74.005 117.198  0.00  0.00    -0.090 HD
ENDBRANCH   5  18
BRANCH   3  22
ATOM     22  C   LIG d   1      -2.639  77.939 114.398  0.00  0.00     0.382 C 
ATOM     23  O   LIG d   1      -3.200  77.129 113.622  0.00  0.00    -0.241 OA
ATOM     24  O   LIG d   1      -2.732  79.162 114.180  0.00  0.00    -0.241 OA
ENDBRANCH   3  22
TORSDOF 7
ENDMDL
MODEL 9
REMARK VINA RESULT:      -4.5      6.471      7.796
REMARK  7 active torsions:
REMARK  status: ('A' for Active; 'I' for Inactive)
REMARK    1  A    between atoms: C_2  and  C_3 
REMARK    2  A    between atoms: C_3  and  O_6 
REMARK    3  A    between atoms: C_3  and  C_4 
REMARK    4  A    between atoms: C_7  and  O_6 
REMARK    5  A    between atoms: C_9  and  C_10 
REMARK    6  A    between atoms: N_15  and  C_14 
REMARK    7  A    between atoms: N_20  and  C_19 
REMARK       I    between atoms: C_22  and  N_20 
ROOT
ATOM      1  C   LIG d   1      -0.305  77.804 117.900  0.00  0.00     0.161 C 
ATOM      2  C   LIG d   1      -0.686  76.526 117.457  0.00  0.00     0.016 C 
ATOM      3  C   LIG d   1      -0.924  76.212 116.099  0.00  0.00     0.038 C 
ATOM      4  C   LIG d   1      -0.649  77.122 115.068  0.00  0.00     0.028 C 
ATOM      5  C   LIG d   1      -0.746  78.580 115.505  0.00  0.00    -0.047 C 
ATOM      6  C   LIG d   1       0.108  78.780 116.778  0.00  0.00     0.091 C 
ENDROOT
BRANCH   1   7
ATOM      7  O   LIG d   1       0.748  77.688 118.877  0.00  0.00    -0.368 OA
BRANCH   7   8
ATOM      8  C   LIG d   1       1.899  76.901 118.483  0.00  0.00     0.119 C 
BRANCH   8   9
ATOM      9  C   LIG d   1       2.268  75.994 119.673  0.00  0.00     0.028 C 
ATOM     10  C   LIG d   1       1.375  74.744 119.758  0.00  0.00     0.006 C 
ENDBRANCH   8   9
BRANCH   8  11
ATOM     11  C   LIG d   1       3.127  77.786 118.252  0.00  0.00     0.028 C 
ATOM     12  C   LIG d   1       4.448  77.003 118.322  0.00  0.00     0.006 C 
ENDBRANCH   8  11
ENDBRANCH   7   8
ENDBRANCH   1   7
BRANCH   6  13
ATOM     13  N   LIG d   1       0.001  80.159 117.321  0.00  0.00    -0.311 N 
ATOM     14  C   LIG d   1       1.044  80.977 117.456  0.00  0.00     0.210 C 
ATOM     15  C   LIG d   1       0.718  82.348 118.055  0.00  0.00     0.109 C 
ATOM     16  O   LIG d   1       2.203  80.708 117.106  0.00  0.00    -0.276 OA
ATOM     17  H   LIG d   1      -0.908  80.471 117.601  0.00  0.00     0.149 HD
ENDBRANCH   6  13
BRANCH   5  18
ATOM     18  N   LIG d   1      -0.302  79.415 114.374  0.00  0.00     0.381 N 
ATOM     19  H   LIG d   1      -0.655  79.040 113.516  0.00  0.00    -0.090 HD
ATOM     20  H   LIG d   1       0.702  79.402 114.335  0.00  0.00    -0.090 HD
ATOM     21  H   LIG d   1      -0.625  80.350 114.493  0.00  0.00    -0.090 HD
ENDBRANCH   5  18
BRANCH   3  22
ATOM     22  C   LIG d   1      -1.482  74.987 115.765  0.00  0.00     0.382 C 
ATOM     23  O   LIG d   1      -0.840  74.180 115.050  0.00  0.00    -0.241 OA
ATOM     24  O   LIG d   1      -2.636  74.697 116.132  0.00  0.00    -0.241 OA
ENDBRANCH   3  22
TORSDOF 7
ENDMDL
