MODEL 1
REMARK VINA RESULT:      -5.0      0.000      0.000
REMARK  7 active torsions:
REMARK  status: ('A' for Active; 'I' for Inactive)
REMARK    1  A    between atoms: C_2  and  C_3 
REMARK    2  A    between atoms: C_3  and  O_6 
REMARK    3  A    between atoms: C_3  and  C_4 
REMARK    4  A    between atoms: C_7  and  O_6 
REMARK    5  A    between atoms: C_9  and  C_10 
REMARK    6  A    between atoms: N_15  and  C_14 
REMARK    7  A    between atoms: N_20  and  C_19 
REMARK       I    between atoms: C_22  and  N_20 
ROOT
ATOM      1  C   LIG d   1       1.412  81.760 112.842  0.00  0.00     0.161 C 
ATOM      2  C   LIG d   1       2.321  82.533 112.102  0.00  0.00     0.016 C 
ATOM      3  C   LIG d   1       2.565  82.340 110.723  0.00  0.00     0.038 C 
ATOM      4  C   LIG d   1       1.799  81.453 109.952  0.00  0.00     0.028 C 
ATOM      5  C   LIG d   1       1.219  80.295 110.758  0.00  0.00    -0.047 C 
ATOM      6  C   LIG d   1       0.486  80.862 111.995  0.00  0.00     0.091 C 
ENDROOT
BRANCH   1   7
ATOM      7  O   LIG d   1       0.632  82.614 113.702  0.00  0.00    -0.368 OA
BRANCH   7   8
ATOM      8  C   LIG d   1      -0.641  83.059 113.173  0.00  0.00     0.119 C 
BRANCH   8   9
ATOM      9  C   LIG d   1      -0.472  84.527 112.736  0.00  0.00     0.028 C 
ATOM     10  C   LIG d   1      -0.403  84.680 111.207  0.00  0.00     0.006 C 
ENDBRANCH   8   9
BRANCH   8  11
ATOM     11  C   LIG d   1      -1.720  83.082 114.260  0.00  0.00     0.028 C 
ATOM     12  C   LIG d   1      -1.566  84.266 115.228  0.00  0.00     0.006 C 
ENDBRANCH   8  11
ENDBRANCH   7   8
ENDBRANCH   1   7
BRANCH   6  13
ATOM     13  N   LIG d   1      -0.038  79.792 112.883  0.00  0.00    -0.311 N 
ATOM     14  C   LIG d   1      -1.304  79.379 112.864  0.00  0.00     0.210 C 
ATOM     15  C   LIG d   1      -1.641  78.279 113.876  0.00  0.00     0.109 C 
ATOM     16  O   LIG d   1      -2.173  79.796 112.083  0.00  0.00    -0.276 OA
ATOM     17  H   LIG d   1       0.606  79.376 113.527  0.00  0.00     0.149 HD
ENDBRANCH   6  13
BRANCH   5  18
ATOM     18  N   LIG d   1       0.333  79.528 109.862  0.00  0.00     0.381 N 
ATOM     19  H   LIG d   1       0.663  78.587 109.783  0.00  0.00    -0.090 HD
ATOM     20  H   LIG d   1       0.352  79.947 108.949  0.00  0.00    -0.090 HD
ATOM     21  H   LIG d   1      -0.598  79.532 110.218  0.00  0.00    -0.090 HD
ENDBRANCH   5  18
BRANCH   3  22
ATOM     22  C   LIG d   1       3.612  83.010 110.109  0.00  0.00     0.382 C 
ATOM     23  O   LIG d   1       3.385  84.041 109.430  0.00  0.00    -0.241 OA
ATOM     24  O   LIG d   1       4.775  82.572 110.189  0.00  0.00    -0.241 OA
ENDBRANCH   3  22
TORSDOF 7
ENDMDL
MODEL 2
REMARK VINA RESULT:      -4.1      2.913      4.536
REMARK  7 active torsions:
REMARK  status: ('A' for Active; 'I' for Inactive)
REMARK    1  A    between atoms: C_2  and  C_3 
REMARK    2  A    between atoms: C_3  and  O_6 
REMARK    3  A    between atoms: C_3  and  C_4 
REMARK    4  A    between atoms: C_7  and  O_6 
REMARK    5  A    between atoms: C_9  and  C_10 
REMARK    6  A    between atoms: N_15  and  C_14 
REMARK    7  A    between atoms: N_20  and  C_19 
REMARK       I    between atoms: C_22  and  N_20 
ROOT
ATOM      1  C   LIG d   1       1.675  84.007 113.671  0.00  0.00     0.161 C 
ATOM      2  C   LIG d   1       2.876  84.387 114.293  0.00  0.00     0.016 C 
ATOM      3  C   LIG d   1       3.567  83.569 115.216  0.00  0.00     0.038 C 
ATOM      4  C   LIG d   1       3.181  82.244 115.466  0.00  0.00     0.028 C 
ATOM      5  C   LIG d   1       1.692  81.995 115.245  0.00  0.00    -0.047 C 
ATOM      6  C   LIG d   1       1.297  82.521 113.847  0.00  0.00     0.091 C 
ENDROOT
BRANCH   1   7
ATOM      7  O   LIG d   1       1.719  84.350 112.271  0.00  0.00    -0.368 OA
BRANCH   7   8
ATOM      8  C   LIG d   1       2.360  83.387 111.399  0.00  0.00     0.119 C 
BRANCH   8   9
ATOM      9  C   LIG d   1       3.592  84.074 110.777  0.00  0.00     0.028 C 
ATOM     10  C   LIG d   1       4.317  83.172 109.764  0.00  0.00     0.006 C 
ENDBRANCH   8   9
BRANCH   8  11
ATOM     11  C   LIG d   1       1.460  83.021 110.216  0.00  0.00     0.028 C 
ATOM     12  C   LIG d   1       0.127  83.787 110.222  0.00  0.00     0.006 C 
ENDBRANCH   8  11
ENDBRANCH   7   8
ENDBRANCH   1   7
BRANCH   6  13
ATOM     13  N   LIG d   1      -0.160  82.393 113.583  0.00  0.00    -0.311 N 
ATOM     14  C   LIG d   1      -0.700  81.362 112.937  0.00  0.00     0.210 C 
ATOM     15  C   LIG d   1      -2.219  81.437 112.755  0.00  0.00     0.109 C 
ATOM     16  O   LIG d   1      -0.069  80.377 112.524  0.00  0.00    -0.276 OA
ATOM     17  H   LIG d   1      -0.749  83.133 113.911  0.00  0.00     0.149 HD
ENDBRANCH   6  13
BRANCH   5  18
ATOM     18  N   LIG d   1       1.454  80.548 115.407  0.00  0.00     0.381 N 
ATOM     19  H   LIG d   1       1.024  80.373 116.294  0.00  0.00    -0.090 HD
ATOM     20  H   LIG d   1       2.336  80.069 115.385  0.00  0.00    -0.090 HD
ATOM     21  H   LIG d   1       0.867  80.215 114.674  0.00  0.00    -0.090 HD
ENDBRANCH   5  18
BRANCH   3  22
ATOM     22  C   LIG d   1       4.636  84.089 115.929  0.00  0.00     0.382 C 
ATOM     23  O   LIG d   1       5.804  83.960 115.492  0.00  0.00    -0.241 OA
ATOM     24  O   LIG d   1       4.450  84.648 117.027  0.00  0.00    -0.241 OA
ENDBRANCH   3  22
TORSDOF 7
ENDMDL
MODEL 3
REMARK VINA RESULT:      -4.1      3.220      5.691
REMARK  7 active torsions:
REMARK  status: ('A' for Active; 'I' for Inactive)
REMARK    1  A    between atoms: C_2  and  C_3 
REMARK    2  A    between atoms: C_3  and  O_6 
REMARK    3  A    between atoms: C_3  and  C_4 
REMARK    4  A    between atoms: C_7  and  O_6 
REMARK    5  A    between atoms: C_9  and  C_10 
REMARK    6  A    between atoms: N_15  and  C_14 
REMARK    7  A    between atoms: N_20  and  C_19 
REMARK       I    between atoms: C_22  and  N_20 
ROOT
ATOM      1  C   LIG d   1      -1.273  80.191 114.771  0.00  0.00     0.161 C 
ATOM      2  C   LIG d   1      -1.969  78.992 114.997  0.00  0.00     0.016 C 
ATOM      3  C   LIG d   1      -2.134  77.991 114.012  0.00  0.00     0.038 C 
ATOM      4  C   LIG d   1      -1.480  78.055 112.772  0.00  0.00     0.028 C 
ATOM      5  C   LIG d   1      -1.181  79.480 112.318  0.00  0.00    -0.047 C 
ATOM      6  C   LIG d   1      -0.459  80.230 113.461  0.00  0.00     0.091 C 
ENDROOT
BRANCH   1   7
ATOM      7  O   LIG d   1      -0.423  80.482 115.898  0.00  0.00    -0.368 OA
BRANCH   7   8
ATOM      8  C   LIG d   1      -0.833  81.591 116.736  0.00  0.00     0.119 C 
BRANCH   8   9
ATOM      9  C   LIG d   1      -2.073  82.231 116.082  0.00  0.00     0.028 C 
ATOM     10  C   LIG d   1      -1.919  83.750 115.893  0.00  0.00     0.006 C 
ENDBRANCH   8   9
BRANCH   8  11
ATOM     11  C   LIG d   1       0.229  82.695 116.758  0.00  0.00     0.028 C 
ATOM     12  C   LIG d   1       1.598  82.215 116.251  0.00  0.00     0.006 C 
ENDBRANCH   8  11
ENDBRANCH   7   8
ENDBRANCH   1   7
BRANCH   6  13
ATOM     13  N   LIG d   1      -0.205  81.657 113.131  0.00  0.00    -0.311 N 
ATOM     14  C   LIG d   1      -1.082  82.428 112.491  0.00  0.00     0.210 C 
ATOM     15  C   LIG d   1      -0.613  83.863 112.233  0.00  0.00     0.109 C 
ATOM     16  O   LIG d   1      -2.217  82.069 112.141  0.00  0.00    -0.276 OA
ATOM     17  H   LIG d   1       0.678  82.038 113.406  0.00  0.00     0.149 HD
ENDBRANCH   6  13
BRANCH   5  18
ATOM     18  N   LIG d   1      -0.379  79.395 111.084  0.00  0.00     0.381 N 
ATOM     19  H   LIG d   1      -0.915  79.727 110.307  0.00  0.00    -0.090 HD
ATOM     20  H   LIG d   1      -0.142  78.434 110.915  0.00  0.00    -0.090 HD
ATOM     21  H   LIG d   1       0.452  79.938 111.179  0.00  0.00    -0.090 HD
ENDBRANCH   5  18
BRANCH   3  22
ATOM     22  C   LIG d   1      -2.993  76.928 114.249  0.00  0.00     0.382 C 
ATOM     23  O   LIG d   1      -3.289  76.613 115.426  0.00  0.00    -0.241 OA
ATOM     24  O   LIG d   1      -3.439  76.254 113.302  0.00  0.00    -0.241 OA
ENDBRANCH   3  22
TORSDOF 7
ENDMDL
MODEL 4
REMARK VINA RESULT:      -4.0      4.043      5.806
REMARK  7 active torsions:
REMARK  status: ('A' for Active; 'I' for Inactive)
REMARK    1  A    between atoms: C_2  and  C_3 
REMARK    2  A    between atoms: C_3  and  O_6 
REMARK    3  A    between atoms: C_3  and  C_4 
REMARK    4  A    between atoms: C_7  and  O_6 
REMARK    5  A    between atoms: C_9  and  C_10 
REMARK    6  A    between atoms: N_15  and  C_14 
REMARK    7  A    between atoms: N_20  and  C_19 
REMARK       I    between atoms: C_22  and  N_20 
ROOT
ATOM      1  C   LIG d   1      -0.559  79.421 115.271  0.00  0.00     0.161 C 
ATOM      2  C   LIG d   1      -1.059  80.706 115.000  0.00  0.00     0.016 C 
ATOM      3  C   LIG d   1      -1.910  80.995 113.909  0.00  0.00     0.038 C 
ATOM      4  C   LIG d   1      -2.444  79.984 113.096  0.00  0.00     0.028 C 
ATOM      5  C   LIG d   1      -1.568  78.739 113.024  0.00  0.00    -0.047 C 
ATOM      6  C   LIG d   1      -1.220  78.286 114.461  0.00  0.00     0.091 C 
ENDROOT
BRANCH   1   7
ATOM      7  O   LIG d   1      -0.652  79.148 116.683  0.00  0.00    -0.368 OA
BRANCH   7   8
ATOM      8  C   LIG d   1       0.603  79.093 117.405  0.00  0.00     0.119 C 
BRANCH   8   9
ATOM      9  C   LIG d   1       0.708  77.696 118.046  0.00  0.00     0.028 C 
ATOM     10  C   LIG d   1       1.840  76.853 117.434  0.00  0.00     0.006 C 
ENDBRANCH   8   9
BRANCH   8  11
ATOM     11  C   LIG d   1       0.615  80.079 118.577  0.00  0.00     0.028 C 
ATOM     12  C   LIG d   1      -0.784  80.614 118.920  0.00  0.00     0.006 C 
ENDBRANCH   8  11
ENDBRANCH   7   8
ENDBRANCH   1   7
BRANCH   6  13
ATOM     13  N   LIG d   1      -0.295  77.123 114.480  0.00  0.00    -0.311 N 
ATOM     14  C   LIG d   1      -0.709  75.858 114.536  0.00  0.00     0.210 C 
ATOM     15  C   LIG d   1       0.410  74.812 114.567  0.00  0.00     0.109 C 
ATOM     16  O   LIG d   1      -1.897  75.502 114.531  0.00  0.00    -0.276 OA
ATOM     17  H   LIG d   1       0.686  77.319 114.456  0.00  0.00     0.149 HD
ENDBRANCH   6  13
BRANCH   5  18
ATOM     18  N   LIG d   1      -2.307  77.717 112.259  0.00  0.00     0.381 N 
ATOM     19  H   LIG d   1      -2.611  76.988 112.873  0.00  0.00    -0.090 HD
ATOM     20  H   LIG d   1      -1.691  77.315 111.574  0.00  0.00    -0.090 HD
ATOM     21  H   LIG d   1      -3.093  78.131 111.808  0.00  0.00    -0.090 HD
ENDBRANCH   5  18
BRANCH   3  22
ATOM     22  C   LIG d   1      -2.204  82.314 113.597  0.00  0.00     0.382 C 
ATOM     23  O   LIG d   1      -1.657  82.862 112.610  0.00  0.00    -0.241 OA
ATOM     24  O   LIG d   1      -2.975  82.977 114.317  0.00  0.00    -0.241 OA
ENDBRANCH   3  22
TORSDOF 7
ENDMDL
MODEL 5
REMARK VINA RESULT:      -4.0      3.029      5.555
REMARK  7 active torsions:
REMARK  status: ('A' for Active; 'I' for Inactive)
REMARK    1  A    between atoms: C_2  and  C_3 
REMARK    2  A    between atoms: C_3  and  O_6 
REMARK    3  A    between atoms: C_3  and  C_4 
REMARK    4  A    between atoms: C_7  and  O_6 
REMARK    5  A    between atoms: C_9  and  C_10 
REMARK    6  A    between atoms: N_15  and  C_14 
REMARK    7  A    between atoms: N_20  and  C_19 
REMARK       I    between atoms: C_22  and  N_20 
ROOT
ATOM      1  C   LIG d   1      -0.141  82.777 115.137  0.00  0.00     0.161 C 
ATOM      2  C   LIG d   1      -1.266  82.121 114.609  0.00  0.00     0.016 C 
ATOM      3  C   LIG d   1      -1.216  81.286 113.469  0.00  0.00     0.038 C 
ATOM      4  C   LIG d   1      -0.001  80.928 112.865  0.00  0.00     0.028 C 
ATOM      5  C   LIG d   1       1.099  81.967 113.055  0.00  0.00    -0.047 C 
ATOM      6  C   LIG d   1       1.211  82.310 114.558  0.00  0.00     0.091 C 
ENDROOT
BRANCH   1   7
ATOM      7  O   LIG d   1      -0.138  82.662 116.574  0.00  0.00    -0.368 OA
BRANCH   7   8
ATOM      8  C   LIG d   1      -0.725  83.767 117.303  0.00  0.00     0.119 C 
BRANCH   8   9
ATOM      9  C   LIG d   1       0.427  84.558 117.952  0.00  0.00     0.028 C 
ATOM     10  C   LIG d   1       1.586  83.650 118.395  0.00  0.00     0.006 C 
ENDBRANCH   8   9
BRANCH   8  11
ATOM     11  C   LIG d   1      -1.584  83.270 118.470  0.00  0.00     0.028 C 
ATOM     12  C   LIG d   1      -1.947  81.781 118.352  0.00  0.00     0.006 C 
ENDBRANCH   8  11
ENDBRANCH   7   8
ENDBRANCH   1   7
BRANCH   6  13
ATOM     13  N   LIG d   1       2.207  83.381 114.822  0.00  0.00    -0.311 N 
ATOM     14  C   LIG d   1       3.476  83.138 115.146  0.00  0.00     0.210 C 
ATOM     15  C   LIG d   1       4.329  84.386 115.396  0.00  0.00     0.109 C 
ATOM     16  O   LIG d   1       3.983  82.009 115.220  0.00  0.00    -0.276 OA
ATOM     17  H   LIG d   1       1.888  84.328 114.754  0.00  0.00     0.149 HD
ENDBRANCH   6  13
BRANCH   5  18
ATOM     18  N   LIG d   1       2.343  81.405 112.496  0.00  0.00     0.381 N 
ATOM     19  H   LIG d   1       2.433  80.446 112.766  0.00  0.00    -0.090 HD
ATOM     20  H   LIG d   1       3.126  81.913 112.870  0.00  0.00    -0.090 HD
ATOM     21  H   LIG d   1       2.334  81.478 111.502  0.00  0.00    -0.090 HD
ENDBRANCH   5  18
BRANCH   3  22
ATOM     22  C   LIG d   1      -2.395  80.832 112.898  0.00  0.00     0.382 C 
ATOM     23  O   LIG d   1      -2.660  79.605 112.900  0.00  0.00    -0.241 OA
ATOM     24  O   LIG d   1      -3.175  81.628 112.342  0.00  0.00    -0.241 OA
ENDBRANCH   3  22
TORSDOF 7
ENDMDL
MODEL 6
REMARK VINA RESULT:      -4.0      3.019      5.201
REMARK  7 active torsions:
REMARK  status: ('A' for Active; 'I' for Inactive)
REMARK    1  A    between atoms: C_2  and  C_3 
REMARK    2  A    between atoms: C_3  and  O_6 
REMARK    3  A    between atoms: C_3  and  C_4 
REMARK    4  A    between atoms: C_7  and  O_6 
REMARK    5  A    between atoms: C_9  and  C_10 
REMARK    6  A    between atoms: N_15  and  C_14 
REMARK    7  A    between atoms: N_20  and  C_19 
REMARK       I    between atoms: C_22  and  N_20 
ROOT
ATOM      1  C   LIG d   1      -2.289  81.930 114.044  0.00  0.00     0.161 C 
ATOM      2  C   LIG d   1      -1.657  82.069 112.797  0.00  0.00     0.016 C 
ATOM      3  C   LIG d   1      -0.430  82.749 112.619  0.00  0.00     0.038 C 
ATOM      4  C   LIG d   1       0.327  83.210 113.706  0.00  0.00     0.028 C 
ATOM      5  C   LIG d   1      -0.514  83.537 114.935  0.00  0.00    -0.047 C 
ATOM      6  C   LIG d   1      -1.423  82.329 115.257  0.00  0.00     0.091 C 
ENDROOT
BRANCH   1   7
ATOM      7  O   LIG d   1      -2.775  80.581 114.197  0.00  0.00    -0.368 OA
BRANCH   7   8
ATOM      8  C   LIG d   1      -1.770  79.563 114.425  0.00  0.00     0.119 C 
BRANCH   8   9
ATOM      9  C   LIG d   1      -1.915  78.511 113.309  0.00  0.00     0.028 C 
ATOM     10  C   LIG d   1      -1.274  77.165 113.685  0.00  0.00     0.006 C 
ENDBRANCH   8   9
BRANCH   8  11
ATOM     11  C   LIG d   1      -2.029  78.807 115.732  0.00  0.00     0.028 C 
ATOM     12  C   LIG d   1      -3.418  79.098 116.323  0.00  0.00     0.006 C 
ENDBRANCH   8  11
ENDBRANCH   7   8
ENDBRANCH   1   7
BRANCH   6  13
ATOM     13  N   LIG d   1      -2.340  82.597 116.396  0.00  0.00    -0.311 N 
ATOM     14  C   LIG d   1      -2.072  82.244 117.652  0.00  0.00     0.210 C 
ATOM     15  C   LIG d   1      -3.161  82.597 118.669  0.00  0.00     0.109 C 
ATOM     16  O   LIG d   1      -1.021  81.701 118.025  0.00  0.00    -0.276 OA
ATOM     17  H   LIG d   1      -3.202  83.061 116.187  0.00  0.00     0.149 HD
ENDBRANCH   6  13
BRANCH   5  18
ATOM     18  N   LIG d   1       0.412  83.872 116.033  0.00  0.00     0.381 N 
ATOM     19  H   LIG d   1      -0.016  83.665 116.913  0.00  0.00    -0.090 HD
ATOM     20  H   LIG d   1       0.610  84.857 116.003  0.00  0.00    -0.090 HD
ATOM     21  H   LIG d   1       1.257  83.353 115.937  0.00  0.00    -0.090 HD
ENDBRANCH   5  18
BRANCH   3  22
ATOM     22  C   LIG d   1       0.031  83.010 111.337  0.00  0.00     0.382 C 
ATOM     23  O   LIG d   1      -0.771  83.379 110.446  0.00  0.00    -0.241 OA
ATOM     24  O   LIG d   1       1.231  82.839 111.051  0.00  0.00    -0.241 OA
ENDBRANCH   3  22
TORSDOF 7
ENDMDL
MODEL 7
REMARK VINA RESULT:      -3.8      2.950      4.468
REMARK  7 active torsions:
REMARK  status: ('A' for Active; 'I' for Inactive)
REMARK    1  A    between atoms: C_2  and  C_3 
REMARK    2  A    between atoms: C_3  and  O_6 
REMARK    3  A    between atoms: C_3  and  C_4 
REMARK    4  A    between atoms: C_7  and  O_6 
REMARK    5  A    between atoms: C_9  and  C_10 
REMARK    6  A    between atoms: N_15  and  C_14 
REMARK    7  A    between atoms: N_20  and  C_19 
REMARK       I    between atoms: C_22  and  N_20 
ROOT
ATOM      1  C   LIG d   1      -0.891  84.202 113.796  0.00  0.00     0.161 C 
ATOM      2  C   LIG d   1      -0.620  84.194 112.417  0.00  0.00     0.016 C 
ATOM      3  C   LIG d   1       0.682  84.069 111.881  0.00  0.00     0.038 C 
ATOM      4  C   LIG d   1       1.794  83.790 112.690  0.00  0.00     0.028 C 
ATOM      5  C   LIG d   1       1.642  84.293 114.122  0.00  0.00    -0.047 C 
ATOM      6  C   LIG d   1       0.296  83.788 114.691  0.00  0.00     0.091 C 
ENDROOT
BRANCH   1   7
ATOM      7  O   LIG d   1      -2.039  83.377 114.073  0.00  0.00    -0.368 OA
BRANCH   7   8
ATOM      8  C   LIG d   1      -1.763  82.003 114.441  0.00  0.00     0.119 C 
BRANCH   8   9
ATOM      9  C   LIG d   1      -2.302  81.104 113.312  0.00  0.00     0.028 C 
ATOM     10  C   LIG d   1      -1.178  80.518 112.441  0.00  0.00     0.006 C 
ENDBRANCH   8   9
BRANCH   8  11
ATOM     11  C   LIG d   1      -2.543  81.594 115.694  0.00  0.00     0.028 C 
ATOM     12  C   LIG d   1      -3.287  82.771 116.344  0.00  0.00     0.006 C 
ENDBRANCH   8  11
ENDBRANCH   7   8
ENDBRANCH   1   7
BRANCH   6  13
ATOM     13  N   LIG d   1       0.030  84.304 116.059  0.00  0.00    -0.311 N 
ATOM     14  C   LIG d   1       0.299  83.617 117.167  0.00  0.00     0.210 C 
ATOM     15  C   LIG d   1      -0.072  84.325 118.474  0.00  0.00     0.109 C 
ATOM     16  O   LIG d   1       0.840  82.501 117.193  0.00  0.00    -0.276 OA
ATOM     17  H   LIG d   1      -0.380  85.215 116.131  0.00  0.00     0.149 HD
ENDBRANCH   6  13
BRANCH   5  18
ATOM     18  N   LIG d   1       2.809  83.816 114.888  0.00  0.00     0.381 N 
ATOM     19  H   LIG d   1       2.592  83.805 115.865  0.00  0.00    -0.090 HD
ATOM     20  H   LIG d   1       3.575  84.449 114.742  0.00  0.00    -0.090 HD
ATOM     21  H   LIG d   1       3.063  82.900 114.587  0.00  0.00    -0.090 HD
ENDBRANCH   5  18
BRANCH   3  22
ATOM     22  C   LIG d   1       0.888  84.263 110.524  0.00  0.00     0.382 C 
ATOM     23  O   LIG d   1      -0.050  84.677 109.800  0.00  0.00    -0.241 OA
ATOM     24  O   LIG d   1       1.986  83.986 110.005  0.00  0.00    -0.241 OA
ENDBRANCH   3  22
TORSDOF 7
ENDMDL
MODEL 8
REMARK VINA RESULT:      -3.8      2.357      5.258
REMARK  7 active torsions:
REMARK  status: ('A' for Active; 'I' for Inactive)
REMARK    1  A    between atoms: C_2  and  C_3 
REMARK    2  A    between atoms: C_3  and  O_6 
REMARK    3  A    between atoms: C_3  and  C_4 
REMARK    4  A    between atoms: C_7  and  O_6 
REMARK    5  A    between atoms: C_9  and  C_10 
REMARK    6  A    between atoms: N_15  and  C_14 
REMARK    7  A    between atoms: N_20  and  C_19 
REMARK       I    between atoms: C_22  and  N_20 
ROOT
ATOM      1  C   LIG d   1      -0.207  82.757 113.221  0.00  0.00     0.161 C 
ATOM      2  C   LIG d   1      -1.103  81.948 113.939  0.00  0.00     0.016 C 
ATOM      3  C   LIG d   1      -1.348  80.591 113.627  0.00  0.00     0.038 C 
ATOM      4  C   LIG d   1      -0.595  79.904 112.663  0.00  0.00     0.028 C 
ATOM      5  C   LIG d   1      -0.035  80.811 111.573  0.00  0.00    -0.047 C 
ATOM      6  C   LIG d   1       0.706  81.995 112.237  0.00  0.00     0.091 C 
ENDROOT
BRANCH   1   7
ATOM      7  O   LIG d   1       0.586  83.539 114.136  0.00  0.00    -0.368 OA
BRANCH   7   8
ATOM      8  C   LIG d   1       2.012  83.279 114.127  0.00  0.00     0.119 C 
BRANCH   8   9
ATOM      9  C   LIG d   1       2.369  82.613 115.470  0.00  0.00     0.028 C 
ATOM     10  C   LIG d   1       3.001  81.223 115.285  0.00  0.00     0.006 C 
ENDBRANCH   8   9
BRANCH   8  11
ATOM     11  C   LIG d   1       2.815  84.583 114.094  0.00  0.00     0.028 C 
ATOM     12  C   LIG d   1       3.743  84.680 112.873  0.00  0.00     0.006 C 
ENDBRANCH   8  11
ENDBRANCH   7   8
ENDBRANCH   1   7
BRANCH   6  13
ATOM     13  N   LIG d   1       1.212  82.976 111.242  0.00  0.00    -0.311 N 
ATOM     14  C   LIG d   1       0.422  83.644 110.404  0.00  0.00     0.210 C 
ATOM     15  C   LIG d   1       1.151  84.593 109.446  0.00  0.00     0.109 C 
ATOM     16  O   LIG d   1      -0.815  83.566 110.384  0.00  0.00    -0.276 OA
ATOM     17  H   LIG d   1       2.202  83.125 111.211  0.00  0.00     0.149 HD
ENDBRANCH   6  13
BRANCH   5  18
ATOM     18  N   LIG d   1       0.840  79.990 110.716  0.00  0.00     0.381 N 
ATOM     19  H   LIG d   1       1.009  80.464 109.851  0.00  0.00    -0.090 HD
ATOM     20  H   LIG d   1       0.376  79.122 110.514  0.00  0.00    -0.090 HD
ATOM     21  H   LIG d   1       1.704  79.813 111.180  0.00  0.00    -0.090 HD
ENDBRANCH   5  18
BRANCH   3  22
ATOM     22  C   LIG d   1      -2.383  79.917 114.257  0.00  0.00     0.382 C 
ATOM     23  O   LIG d   1      -3.056  80.492 115.146  0.00  0.00    -0.241 OA
ATOM     24  O   LIG d   1      -2.625  78.727 113.978  0.00  0.00    -0.241 OA
ENDBRANCH   3  22
TORSDOF 7
ENDMDL
MODEL 9
REMARK VINA RESULT:      -3.7      3.289      5.869
REMARK  7 active torsions:
REMARK  status: ('A' for Active; 'I' for Inactive)
REMARK    1  A    between atoms: C_2  and  C_3 
REMARK    2  A    between atoms: C_3  and  O_6 
REMARK    3  A    between atoms: C_3  and  C_4 
REMARK    4  A    between atoms: C_7  and  O_6 
REMARK    5  A    between atoms: C_9  and  C_10 
REMARK    6  A    between atoms: N_15  and  C_14 
REMARK    7  A    between atoms: N_20  and  C_19 
REMARK       I    between atoms: C_22  and  N_20 
ROOT
ATOM      1  C   LIG d   1       0.038  81.558 115.531  0.00  0.00     0.161 C 
ATOM      2  C   LIG d   1      -1.129  81.163 114.856  0.00  0.00     0.016 C 
ATOM      3  C   LIG d   1      -1.165  80.858 113.476  0.00  0.00     0.038 C 
ATOM      4  C   LIG d   1       0.003  80.782 112.703  0.00  0.00     0.028 C 
ATOM      5  C   LIG d   1       1.133  81.663 113.224  0.00  0.00    -0.047 C 
ATOM      6  C   LIG d   1       1.343  81.373 114.728  0.00  0.00     0.091 C 
ENDROOT
BRANCH   1   7
ATOM      7  O   LIG d   1       0.127  80.873 116.796  0.00  0.00    -0.368 OA
BRANCH   7   8
ATOM      8  C   LIG d   1       0.786  79.583 116.778  0.00  0.00     0.119 C 
BRANCH   8   9
ATOM      9  C   LIG d   1      -0.263  78.522 117.164  0.00  0.00     0.028 C 
ATOM     10  C   LIG d   1      -0.670  77.638 115.972  0.00  0.00     0.006 C 
ENDBRANCH   8   9
BRANCH   8  11
ATOM     11  C   LIG d   1       1.868  79.495 117.858  0.00  0.00     0.028 C 
ATOM     12  C   LIG d   1       1.993  80.785 118.683  0.00  0.00     0.006 C 
ENDBRANCH   8  11
ENDBRANCH   7   8
ENDBRANCH   1   7
BRANCH   6  13
ATOM     13  N   LIG d   1       2.374  82.253 115.337  0.00  0.00    -0.311 N 
ATOM     14  C   LIG d   1       3.650  81.897 115.479  0.00  0.00     0.210 C 
ATOM     15  C   LIG d   1       4.542  82.946 116.150  0.00  0.00     0.109 C 
ATOM     16  O   LIG d   1       4.134  80.826 115.083  0.00  0.00    -0.276 OA
ATOM     17  H   LIG d   1       2.074  83.153 115.657  0.00  0.00     0.149 HD
ENDBRANCH   6  13
BRANCH   5  18
ATOM     18  N   LIG d   1       2.329  81.382 112.409  0.00  0.00     0.381 N 
ATOM     19  H   LIG d   1       3.070  81.053 112.995  0.00  0.00    -0.090 HD
ATOM     20  H   LIG d   1       2.630  82.234 111.969  0.00  0.00    -0.090 HD
ATOM     21  H   LIG d   1       2.117  80.699 111.715  0.00  0.00    -0.090 HD
ENDBRANCH   5  18
BRANCH   3  22
ATOM     22  C   LIG d   1      -2.386  80.665 112.847  0.00  0.00     0.382 C 
ATOM     23  O   LIG d   1      -3.028  81.650 112.408  0.00  0.00    -0.241 OA
ATOM     24  O   LIG d   1      -2.874  79.523 112.752  0.00  0.00    -0.241 OA
ENDBRANCH   3  22
TORSDOF 7
ENDMDL
