MODEL 1
REMARK VINA RESULT:      -3.7      0.000      0.000
REMARK  7 active torsions:
REMARK  status: ('A' for Active; 'I' for Inactive)
REMARK    1  A    between atoms: C_2  and  C_3 
REMARK    2  A    between atoms: C_3  and  O_6 
REMARK    3  A    between atoms: C_3  and  C_4 
REMARK    4  A    between atoms: C_7  and  O_6 
REMARK    5  A    between atoms: C_9  and  C_10 
REMARK    6  A    between atoms: N_15  and  C_14 
REMARK    7  A    between atoms: N_20  and  C_19 
REMARK       I    between atoms: C_22  and  N_20 
ROOT
ATOM      1  C   LIG d   1      -1.682  79.129 115.010  0.00  0.00     0.161 C 
ATOM      2  C   LIG d   1      -2.049  77.916 115.616  0.00  0.00     0.016 C 
ATOM      3  C   LIG d   1      -2.274  76.722 114.893  0.00  0.00     0.038 C 
ATOM      4  C   LIG d   1      -1.998  76.623 113.521  0.00  0.00     0.028 C 
ATOM      5  C   LIG d   1      -2.110  77.953 112.783  0.00  0.00    -0.047 C 
ATOM      6  C   LIG d   1      -1.268  79.013 113.528  0.00  0.00     0.091 C 
ENDROOT
BRANCH   1   7
ATOM      7  O   LIG d   1      -0.635  79.760 115.775  0.00  0.00    -0.368 OA
BRANCH   7   8
ATOM      8  C   LIG d   1      -0.395  79.215 117.096  0.00  0.00     0.119 C 
BRANCH   8   9
ATOM      9  C   LIG d   1      -0.604  80.355 118.112  0.00  0.00     0.028 C 
ATOM     10  C   LIG d   1      -1.925  80.214 118.888  0.00  0.00     0.006 C 
ENDBRANCH   8   9
BRANCH   8  11
ATOM     11  C   LIG d   1       1.066  78.786 117.263  0.00  0.00     0.028 C 
ATOM     12  C   LIG d   1       1.233  77.260 117.341  0.00  0.00     0.006 C 
ENDBRANCH   8  11
ENDBRANCH   7   8
ENDBRANCH   1   7
BRANCH   6  13
ATOM     13  N   LIG d   1      -1.389  80.363 112.920  0.00  0.00    -0.311 N 
ATOM     14  C   LIG d   1      -0.557  80.826 111.989  0.00  0.00     0.210 C 
ATOM     15  C   LIG d   1      -0.849  82.251 111.511  0.00  0.00     0.109 C 
ATOM     16  O   LIG d   1       0.376  80.179 111.490  0.00  0.00    -0.276 OA
ATOM     17  H   LIG d   1      -2.138  80.944 113.244  0.00  0.00     0.149 HD
ENDBRANCH   6  13
BRANCH   5  18
ATOM     18  N   LIG d   1      -1.663  77.731 111.395  0.00  0.00     0.381 N 
ATOM     19  H   LIG d   1      -1.880  78.532 110.837  0.00  0.00    -0.090 HD
ATOM     20  H   LIG d   1      -2.155  76.940 111.017  0.00  0.00    -0.090 HD
ATOM     21  H   LIG d   1      -0.681  77.560 111.376  0.00  0.00    -0.090 HD
ENDBRANCH   5  18
BRANCH   3  22
ATOM     22  C   LIG d   1      -2.819  75.621 115.536  0.00  0.00     0.382 C 
ATOM     23  O   LIG d   1      -3.440  75.770 116.616  0.00  0.00    -0.241 OA
ATOM     24  O   LIG d   1      -2.660  74.476 115.073  0.00  0.00    -0.241 OA
ENDBRANCH   3  22
TORSDOF 7
ENDMDL
MODEL 2
REMARK VINA RESULT:      -3.7      2.512      4.957
REMARK  7 active torsions:
REMARK  status: ('A' for Active; 'I' for Inactive)
REMARK    1  A    between atoms: C_2  and  C_3 
REMARK    2  A    between atoms: C_3  and  O_6 
REMARK    3  A    between atoms: C_3  and  C_4 
REMARK    4  A    between atoms: C_7  and  O_6 
REMARK    5  A    between atoms: C_9  and  C_10 
REMARK    6  A    between atoms: N_15  and  C_14 
REMARK    7  A    between atoms: N_20  and  C_19 
REMARK       I    between atoms: C_22  and  N_20 
ROOT
ATOM      1  C   LIG d   1      -2.135  78.186 116.184  0.00  0.00     0.161 C 
ATOM      2  C   LIG d   1      -2.565  79.066 115.177  0.00  0.00     0.016 C 
ATOM      3  C   LIG d   1      -2.462  78.778 113.796  0.00  0.00     0.038 C 
ATOM      4  C   LIG d   1      -2.058  77.518 113.329  0.00  0.00     0.028 C 
ATOM      5  C   LIG d   1      -1.139  76.780 114.297  0.00  0.00    -0.047 C 
ATOM      6  C   LIG d   1      -1.794  76.762 115.697  0.00  0.00     0.091 C 
ENDROOT
BRANCH   1   7
ATOM      7  O   LIG d   1      -3.117  78.133 117.238  0.00  0.00    -0.368 OA
BRANCH   7   8
ATOM      8  C   LIG d   1      -2.865  78.981 118.386  0.00  0.00     0.119 C 
BRANCH   8   9
ATOM      9  C   LIG d   1      -1.362  79.319 118.391  0.00  0.00     0.028 C 
ATOM     10  C   LIG d   1      -1.096  80.808 118.670  0.00  0.00     0.006 C 
ENDBRANCH   8   9
BRANCH   8  11
ATOM     11  C   LIG d   1      -3.117  78.232 119.698  0.00  0.00     0.028 C 
ATOM     12  C   LIG d   1      -3.440  76.745 119.483  0.00  0.00     0.006 C 
ENDBRANCH   8  11
ENDBRANCH   7   8
ENDBRANCH   1   7
BRANCH   6  13
ATOM     13  N   LIG d   1      -0.923  76.132 116.722  0.00  0.00    -0.311 N 
ATOM     14  C   LIG d   1      -1.158  74.930 117.247  0.00  0.00     0.210 C 
ATOM     15  C   LIG d   1      -0.147  74.476 118.304  0.00  0.00     0.109 C 
ATOM     16  O   LIG d   1      -2.091  74.184 116.914  0.00  0.00    -0.276 OA
ATOM     17  H   LIG d   1      -0.126  76.655 117.027  0.00  0.00     0.149 HD
ENDBRANCH   6  13
BRANCH   5  18
ATOM     18  N   LIG d   1      -0.907  75.430 113.749  0.00  0.00     0.381 N 
ATOM     19  H   LIG d   1      -0.045  75.065 114.102  0.00  0.00    -0.090 HD
ATOM     20  H   LIG d   1      -0.838  75.493 112.749  0.00  0.00    -0.090 HD
ATOM     21  H   LIG d   1      -1.660  74.827 114.000  0.00  0.00    -0.090 HD
ENDBRANCH   5  18
BRANCH   3  22
ATOM     22  C   LIG d   1      -2.728  79.771 112.866  0.00  0.00     0.382 C 
ATOM     23  O   LIG d   1      -2.217  79.711 111.721  0.00  0.00    -0.241 OA
ATOM     24  O   LIG d   1      -3.436  80.749 113.171  0.00  0.00    -0.241 OA
ENDBRANCH   3  22
TORSDOF 7
ENDMDL
MODEL 3
REMARK VINA RESULT:      -3.6      2.075      2.454
REMARK  7 active torsions:
REMARK  status: ('A' for Active; 'I' for Inactive)
REMARK    1  A    between atoms: C_2  and  C_3 
REMARK    2  A    between atoms: C_3  and  O_6 
REMARK    3  A    between atoms: C_3  and  C_4 
REMARK    4  A    between atoms: C_7  and  O_6 
REMARK    5  A    between atoms: C_9  and  C_10 
REMARK    6  A    between atoms: N_15  and  C_14 
REMARK    7  A    between atoms: N_20  and  C_19 
REMARK       I    between atoms: C_22  and  N_20 
ROOT
ATOM      1  C   LIG d   1      -1.481  78.708 116.550  0.00  0.00     0.161 C 
ATOM      2  C   LIG d   1      -0.949  77.643 117.297  0.00  0.00     0.016 C 
ATOM      3  C   LIG d   1      -0.638  76.381 116.741  0.00  0.00     0.038 C 
ATOM      4  C   LIG d   1      -0.697  76.145 115.359  0.00  0.00     0.028 C 
ATOM      5  C   LIG d   1      -1.706  77.031 114.636  0.00  0.00    -0.047 C 
ATOM      6  C   LIG d   1      -1.447  78.505 115.021  0.00  0.00     0.091 C 
ENDROOT
BRANCH   1   7
ATOM      7  O   LIG d   1      -0.815  79.935 116.908  0.00  0.00    -0.368 OA
BRANCH   7   8
ATOM      8  C   LIG d   1      -0.116  79.936 118.177  0.00  0.00     0.119 C 
BRANCH   8   9
ATOM      9  C   LIG d   1      -0.835  80.938 119.101  0.00  0.00     0.028 C 
ATOM     10  C   LIG d   1      -0.440  82.395 118.806  0.00  0.00     0.006 C 
ENDBRANCH   8   9
BRANCH   8  11
ATOM     11  C   LIG d   1       1.310  80.472 118.027  0.00  0.00     0.028 C 
ATOM     12  C   LIG d   1       1.888  80.246 116.621  0.00  0.00     0.006 C 
ENDBRANCH   8  11
ENDBRANCH   7   8
ENDBRANCH   1   7
BRANCH   6  13
ATOM     13  N   LIG d   1      -2.444  79.431 114.423  0.00  0.00    -0.311 N 
ATOM     14  C   LIG d   1      -2.297  79.991 113.224  0.00  0.00     0.210 C 
ATOM     15  C   LIG d   1      -3.433  80.930 112.805  0.00  0.00     0.109 C 
ATOM     16  O   LIG d   1      -1.349  79.775 112.454  0.00  0.00    -0.276 OA
ATOM     17  H   LIG d   1      -3.259  79.637 114.967  0.00  0.00     0.149 HD
ENDBRANCH   6  13
BRANCH   5  18
ATOM     18  N   LIG d   1      -1.565  76.778 113.189  0.00  0.00     0.381 N 
ATOM     19  H   LIG d   1      -2.281  76.149 112.884  0.00  0.00    -0.090 HD
ATOM     20  H   LIG d   1      -0.674  76.346 113.020  0.00  0.00    -0.090 HD
ATOM     21  H   LIG d   1      -1.628  77.635 112.686  0.00  0.00    -0.090 HD
ENDBRANCH   5  18
BRANCH   3  22
ATOM     22  C   LIG d   1      -0.301  75.326 117.575  0.00  0.00     0.382 C 
ATOM     23  O   LIG d   1      -0.967  74.264 117.543  0.00  0.00    -0.241 OA
ATOM     24  O   LIG d   1       0.634  75.440 118.391  0.00  0.00    -0.241 OA
ENDBRANCH   3  22
TORSDOF 7
ENDMDL
MODEL 4
REMARK VINA RESULT:      -3.6      4.134      5.875
REMARK  7 active torsions:
REMARK  status: ('A' for Active; 'I' for Inactive)
REMARK    1  A    between atoms: C_2  and  C_3 
REMARK    2  A    between atoms: C_3  and  O_6 
REMARK    3  A    between atoms: C_3  and  C_4 
REMARK    4  A    between atoms: C_7  and  O_6 
REMARK    5  A    between atoms: C_9  and  C_10 
REMARK    6  A    between atoms: N_15  and  C_14 
REMARK    7  A    between atoms: N_20  and  C_19 
REMARK       I    between atoms: C_22  and  N_20 
ROOT
ATOM      1  C   LIG d   1       3.120  77.492 116.989  0.00  0.00     0.161 C 
ATOM      2  C   LIG d   1       2.395  76.316 116.739  0.00  0.00     0.016 C 
ATOM      3  C   LIG d   1       0.982  76.258 116.741  0.00  0.00     0.038 C 
ATOM      4  C   LIG d   1       0.192  77.413 116.845  0.00  0.00     0.028 C 
ATOM      5  C   LIG d   1       0.875  78.547 117.603  0.00  0.00    -0.047 C 
ATOM      6  C   LIG d   1       2.276  78.784 116.995  0.00  0.00     0.091 C 
ENDROOT
BRANCH   1   7
ATOM      7  O   LIG d   1       4.205  77.607 116.047  0.00  0.00    -0.368 OA
BRANCH   7   8
ATOM      8  C   LIG d   1       5.482  77.075 116.478  0.00  0.00     0.119 C 
BRANCH   8   9
ATOM      9  C   LIG d   1       5.715  77.545 117.927  0.00  0.00     0.028 C 
ATOM     10  C   LIG d   1       7.020  76.991 118.521  0.00  0.00     0.006 C 
ENDBRANCH   8   9
BRANCH   8  11
ATOM     11  C   LIG d   1       6.636  77.672 115.668  0.00  0.00     0.028 C 
ATOM     12  C   LIG d   1       6.362  79.114 115.214  0.00  0.00     0.006 C 
ENDBRANCH   8  11
ENDBRANCH   7   8
ENDBRANCH   1   7
BRANCH   6  13
ATOM     13  N   LIG d   1       3.045  79.821 117.731  0.00  0.00    -0.311 N 
ATOM     14  C   LIG d   1       3.614  80.870 117.140  0.00  0.00     0.210 C 
ATOM     15  C   LIG d   1       4.377  81.807 118.081  0.00  0.00     0.109 C 
ATOM     16  O   LIG d   1       3.532  81.130 115.930  0.00  0.00    -0.276 OA
ATOM     17  H   LIG d   1       3.135  79.704 118.722  0.00  0.00     0.149 HD
ENDBRANCH   6  13
BRANCH   5  18
ATOM     18  N   LIG d   1      -0.001  79.730 117.517  0.00  0.00     0.381 N 
ATOM     19  H   LIG d   1       0.529  80.522 117.211  0.00  0.00    -0.090 HD
ATOM     20  H   LIG d   1      -0.367  79.931 118.431  0.00  0.00    -0.090 HD
ATOM     21  H   LIG d   1      -0.748  79.556 116.882  0.00  0.00    -0.090 HD
ENDBRANCH   5  18
BRANCH   3  22
ATOM     22  C   LIG d   1       0.345  75.028 116.678  0.00  0.00     0.382 C 
ATOM     23  O   LIG d   1       0.435  74.328 115.641  0.00  0.00    -0.241 OA
ATOM     24  O   LIG d   1      -0.356  74.630 117.628  0.00  0.00    -0.241 OA
ENDBRANCH   3  22
TORSDOF 7
ENDMDL
MODEL 5
REMARK VINA RESULT:      -3.5      4.496      6.620
REMARK  7 active torsions:
REMARK  status: ('A' for Active; 'I' for Inactive)
REMARK    1  A    between atoms: C_2  and  C_3 
REMARK    2  A    between atoms: C_3  and  O_6 
REMARK    3  A    between atoms: C_3  and  C_4 
REMARK    4  A    between atoms: C_7  and  O_6 
REMARK    5  A    between atoms: C_9  and  C_10 
REMARK    6  A    between atoms: N_15  and  C_14 
REMARK    7  A    between atoms: N_20  and  C_19 
REMARK       I    between atoms: C_22  and  N_20 
ROOT
ATOM      1  C   LIG d   1       2.626  79.840 117.389  0.00  0.00     0.161 C 
ATOM      2  C   LIG d   1       3.783  79.882 116.593  0.00  0.00     0.016 C 
ATOM      3  C   LIG d   1       4.394  78.730 116.047  0.00  0.00     0.038 C 
ATOM      4  C   LIG d   1       3.799  77.463 116.135  0.00  0.00     0.028 C 
ATOM      5  C   LIG d   1       2.899  77.300 117.356  0.00  0.00    -0.047 C 
ATOM      6  C   LIG d   1       1.900  78.478 117.403  0.00  0.00     0.091 C 
ENDROOT
BRANCH   1   7
ATOM      7  O   LIG d   1       1.719  80.887 116.989  0.00  0.00    -0.368 OA
BRANCH   7   8
ATOM      8  C   LIG d   1       1.482  81.932 117.963  0.00  0.00     0.119 C 
BRANCH   8   9
ATOM      9  C   LIG d   1       0.002  81.846 118.384  0.00  0.00     0.028 C 
ATOM     10  C   LIG d   1      -0.516  83.165 118.979  0.00  0.00     0.006 C 
ENDBRANCH   8   9
BRANCH   8  11
ATOM     11  C   LIG d   1       1.646  83.322 117.341  0.00  0.00     0.028 C 
ATOM     12  C   LIG d   1       2.246  83.274 115.927  0.00  0.00     0.006 C 
ENDBRANCH   8  11
ENDBRANCH   7   8
ENDBRANCH   1   7
BRANCH   6  13
ATOM     13  N   LIG d   1       1.038  78.441 118.613  0.00  0.00    -0.311 N 
ATOM     14  C   LIG d   1      -0.282  78.265 118.567  0.00  0.00     0.210 C 
ATOM     15  C   LIG d   1      -0.984  78.280 119.929  0.00  0.00     0.109 C 
ATOM     16  O   LIG d   1      -0.933  78.066 117.531  0.00  0.00    -0.276 OA
ATOM     17  H   LIG d   1       1.488  78.564 119.499  0.00  0.00     0.149 HD
ENDBRANCH   6  13
BRANCH   5  18
ATOM     18  N   LIG d   1       2.238  75.985 117.249  0.00  0.00     0.381 N 
ATOM     19  H   LIG d   1       2.053  75.625 118.164  0.00  0.00    -0.090 HD
ATOM     20  H   LIG d   1       2.856  75.348 116.778  0.00  0.00    -0.090 HD
ATOM     21  H   LIG d   1       1.387  76.072 116.740  0.00  0.00    -0.090 HD
ENDBRANCH   5  18
BRANCH   3  22
ATOM     22  C   LIG d   1       5.635  78.834 115.438  0.00  0.00     0.382 C 
ATOM     23  O   LIG d   1       6.336  79.860 115.614  0.00  0.00    -0.241 OA
ATOM     24  O   LIG d   1       6.043  77.935 114.678  0.00  0.00    -0.241 OA
ENDBRANCH   3  22
TORSDOF 7
ENDMDL
MODEL 6
REMARK VINA RESULT:      -3.5      3.603      5.219
REMARK  7 active torsions:
REMARK  status: ('A' for Active; 'I' for Inactive)
REMARK    1  A    between atoms: C_2  and  C_3 
REMARK    2  A    between atoms: C_3  and  O_6 
REMARK    3  A    between atoms: C_3  and  C_4 
REMARK    4  A    between atoms: C_7  and  O_6 
REMARK    5  A    between atoms: C_9  and  C_10 
REMARK    6  A    between atoms: N_15  and  C_14 
REMARK    7  A    between atoms: N_20  and  C_19 
REMARK       I    between atoms: C_22  and  N_20 
ROOT
ATOM      1  C   LIG d   1       2.574  78.612 117.982  0.00  0.00     0.161 C 
ATOM      2  C   LIG d   1       2.197  77.285 118.247  0.00  0.00     0.016 C 
ATOM      3  C   LIG d   1       1.027  76.690 117.722  0.00  0.00     0.038 C 
ATOM      4  C   LIG d   1       0.228  77.339 116.769  0.00  0.00     0.028 C 
ATOM      5  C   LIG d   1       0.292  78.860 116.859  0.00  0.00    -0.047 C 
ATOM      6  C   LIG d   1       1.774  79.300 116.856  0.00  0.00     0.091 C 
ENDROOT
BRANCH   1   7
ATOM      7  O   LIG d   1       3.987  78.672 117.701  0.00  0.00    -0.368 OA
BRANCH   7   8
ATOM      8  C   LIG d   1       4.416  78.063 116.459  0.00  0.00     0.119 C 
BRANCH   8   9
ATOM      9  C   LIG d   1       5.636  77.176 116.774  0.00  0.00     0.028 C 
ATOM     10  C   LIG d   1       5.848  76.986 118.286  0.00  0.00     0.006 C 
ENDBRANCH   8   9
BRANCH   8  11
ATOM     11  C   LIG d   1       4.924  79.115 115.469  0.00  0.00     0.028 C 
ATOM     12  C   LIG d   1       6.431  78.992 115.190  0.00  0.00     0.006 C 
ENDBRANCH   8  11
ENDBRANCH   7   8
ENDBRANCH   1   7
BRANCH   6  13
ATOM     13  N   LIG d   1       1.930  80.768 117.026  0.00  0.00    -0.311 N 
ATOM     14  C   LIG d   1       2.082  81.612 116.007  0.00  0.00     0.210 C 
ATOM     15  C   LIG d   1       2.246  83.082 116.404  0.00  0.00     0.109 C 
ATOM     16  O   LIG d   1       2.065  81.286 114.811  0.00  0.00    -0.276 OA
ATOM     17  H   LIG d   1       1.923  81.122 117.963  0.00  0.00     0.149 HD
ENDBRANCH   6  13
BRANCH   5  18
ATOM     18  N   LIG d   1      -0.476  79.406 115.725  0.00  0.00     0.381 N 
ATOM     19  H   LIG d   1      -1.205  80.001 116.065  0.00  0.00    -0.090 HD
ATOM     20  H   LIG d   1      -0.898  78.646 115.222  0.00  0.00    -0.090 HD
ATOM     21  H   LIG d   1       0.128  79.920 115.120  0.00  0.00    -0.090 HD
ENDBRANCH   5  18
BRANCH   3  22
ATOM     22  C   LIG d   1       0.624  75.445 118.182  0.00  0.00     0.382 C 
ATOM     23  O   LIG d   1      -0.003  74.668 117.421  0.00  0.00    -0.241 OA
ATOM     24  O   LIG d   1       0.839  75.107 119.361  0.00  0.00    -0.241 OA
ENDBRANCH   3  22
TORSDOF 7
ENDMDL
MODEL 7
REMARK VINA RESULT:      -3.5      3.172      5.174
REMARK  7 active torsions:
REMARK  status: ('A' for Active; 'I' for Inactive)
REMARK    1  A    between atoms: C_2  and  C_3 
REMARK    2  A    between atoms: C_3  and  O_6 
REMARK    3  A    between atoms: C_3  and  C_4 
REMARK    4  A    between atoms: C_7  and  O_6 
REMARK    5  A    between atoms: C_9  and  C_10 
REMARK    6  A    between atoms: N_15  and  C_14 
REMARK    7  A    between atoms: N_20  and  C_19 
REMARK       I    between atoms: C_22  and  N_20 
ROOT
ATOM      1  C   LIG d   1      -1.029  77.307 116.143  0.00  0.00     0.161 C 
ATOM      2  C   LIG d   1      -1.604  77.902 115.008  0.00  0.00     0.016 C 
ATOM      3  C   LIG d   1      -2.683  77.333 114.293  0.00  0.00     0.038 C 
ATOM      4  C   LIG d   1      -3.363  76.197 114.757  0.00  0.00     0.028 C 
ATOM      5  C   LIG d   1      -2.497  75.283 115.618  0.00  0.00    -0.047 C 
ATOM      6  C   LIG d   1      -1.829  76.125 116.729  0.00  0.00     0.091 C 
ENDROOT
BRANCH   1   7
ATOM      7  O   LIG d   1      -0.799  78.307 117.155  0.00  0.00    -0.368 OA
BRANCH   7   8
ATOM      8  C   LIG d   1       0.568  78.763 117.302  0.00  0.00     0.119 C 
BRANCH   8   9
ATOM      9  C   LIG d   1       1.101  78.208 118.637  0.00  0.00     0.028 C 
ATOM     10  C   LIG d   1       2.335  77.310 118.449  0.00  0.00     0.006 C 
ENDBRANCH   8   9
BRANCH   8  11
ATOM     11  C   LIG d   1       0.636  80.287 117.441  0.00  0.00     0.028 C 
ATOM     12  C   LIG d   1       1.953  80.876 116.910  0.00  0.00     0.006 C 
ENDBRANCH   8  11
ENDBRANCH   7   8
ENDBRANCH   1   7
BRANCH   6  13
ATOM     13  N   LIG d   1      -0.899  75.323 117.566  0.00  0.00    -0.311 N 
ATOM     14  C   LIG d   1      -1.026  75.194 118.885  0.00  0.00     0.210 C 
ATOM     15  C   LIG d   1       0.052  74.339 119.558  0.00  0.00     0.109 C 
ATOM     16  O   LIG d   1      -1.949  75.678 119.558  0.00  0.00    -0.276 OA
ATOM     17  H   LIG d   1      -0.139  74.870 117.097  0.00  0.00     0.149 HD
ENDBRANCH   6  13
BRANCH   5  18
ATOM     18  N   LIG d   1      -3.366  74.215 116.146  0.00  0.00     0.381 N 
ATOM     19  H   LIG d   1      -3.428  74.290 117.142  0.00  0.00    -0.090 HD
ATOM     20  H   LIG d   1      -2.959  73.324 115.922  0.00  0.00    -0.090 HD
ATOM     21  H   LIG d   1      -4.275  74.284 115.744  0.00  0.00    -0.090 HD
ENDBRANCH   5  18
BRANCH   3  22
ATOM     22  C   LIG d   1      -3.066  77.879 113.077  0.00  0.00     0.382 C 
ATOM     23  O   LIG d   1      -3.440  79.075 113.017  0.00  0.00    -0.241 OA
ATOM     24  O   LIG d   1      -3.085  77.178 112.048  0.00  0.00    -0.241 OA
ENDBRANCH   3  22
TORSDOF 7
ENDMDL
MODEL 8
REMARK VINA RESULT:      -3.5      3.342      5.487
REMARK  7 active torsions:
REMARK  status: ('A' for Active; 'I' for Inactive)
REMARK    1  A    between atoms: C_2  and  C_3 
REMARK    2  A    between atoms: C_3  and  O_6 
REMARK    3  A    between atoms: C_3  and  C_4 
REMARK    4  A    between atoms: C_7  and  O_6 
REMARK    5  A    between atoms: C_9  and  C_10 
REMARK    6  A    between atoms: N_15  and  C_14 
REMARK    7  A    between atoms: N_20  and  C_19 
REMARK       I    between atoms: C_22  and  N_20 
ROOT
ATOM      1  C   LIG d   1      -0.037  76.800 118.053  0.00  0.00     0.161 C 
ATOM      2  C   LIG d   1       1.259  77.189 118.431  0.00  0.00     0.016 C 
ATOM      3  C   LIG d   1       2.419  76.848 117.697  0.00  0.00     0.038 C 
ATOM      4  C   LIG d   1       2.346  76.219 116.445  0.00  0.00     0.028 C 
ATOM      5  C   LIG d   1       1.096  75.363 116.269  0.00  0.00    -0.047 C 
ATOM      6  C   LIG d   1      -0.146  76.209 116.632  0.00  0.00     0.091 C 
ENDROOT
BRANCH   1   7
ATOM      7  O   LIG d   1      -0.943  77.910 118.205  0.00  0.00    -0.368 OA
BRANCH   7   8
ATOM      8  C   LIG d   1      -0.870  78.937 117.186  0.00  0.00     0.119 C 
BRANCH   8   9
ATOM      9  C   LIG d   1      -0.637  80.282 117.900  0.00  0.00     0.028 C 
ATOM     10  C   LIG d   1       0.774  80.841 117.653  0.00  0.00     0.006 C 
ENDBRANCH   8   9
BRANCH   8  11
ATOM     11  C   LIG d   1      -2.207  79.092 116.455  0.00  0.00     0.028 C 
ATOM     12  C   LIG d   1      -3.384  78.478 117.229  0.00  0.00     0.006 C 
ENDBRANCH   8  11
ENDBRANCH   7   8
ENDBRANCH   1   7
BRANCH   6  13
ATOM     13  N   LIG d   1      -1.405  75.422 116.568  0.00  0.00    -0.311 N 
ATOM     14  C   LIG d   1      -2.174  75.357 115.482  0.00  0.00     0.210 C 
ATOM     15  C   LIG d   1      -3.439  74.506 115.636  0.00  0.00     0.109 C 
ATOM     16  O   LIG d   1      -1.912  75.896 114.397  0.00  0.00    -0.276 OA
ATOM     17  H   LIG d   1      -1.677  74.928 117.395  0.00  0.00     0.149 HD
ENDBRANCH   6  13
BRANCH   5  18
ATOM     18  N   LIG d   1       1.080  74.880 114.876  0.00  0.00     0.381 N 
ATOM     19  H   LIG d   1       1.915  75.168 114.407  0.00  0.00    -0.090 HD
ATOM     20  H   LIG d   1       0.294  75.288 114.399  0.00  0.00    -0.090 HD
ATOM     21  H   LIG d   1       1.007  73.886 114.860  0.00  0.00    -0.090 HD
ENDBRANCH   5  18
BRANCH   3  22
ATOM     22  C   LIG d   1       3.672  77.102 118.235  0.00  0.00     0.382 C 
ATOM     23  O   LIG d   1       3.808  77.982 119.118  0.00  0.00    -0.241 OA
ATOM     24  O   LIG d   1       4.674  76.492 117.816  0.00  0.00    -0.241 OA
ENDBRANCH   3  22
TORSDOF 7
ENDMDL
MODEL 9
REMARK VINA RESULT:      -3.5      3.220      6.489
REMARK  7 active torsions:
REMARK  status: ('A' for Active; 'I' for Inactive)
REMARK    1  A    between atoms: C_2  and  C_3 
REMARK    2  A    between atoms: C_3  and  O_6 
REMARK    3  A    between atoms: C_3  and  C_4 
REMARK    4  A    between atoms: C_7  and  O_6 
REMARK    5  A    between atoms: C_9  and  C_10 
REMARK    6  A    between atoms: N_15  and  C_14 
REMARK    7  A    between atoms: N_20  and  C_19 
REMARK       I    between atoms: C_22  and  N_20 
ROOT
ATOM      1  C   LIG d   1       0.014  78.756 117.577  0.00  0.00     0.161 C 
ATOM      2  C   LIG d   1       0.691  79.792 116.911  0.00  0.00     0.016 C 
ATOM      3  C   LIG d   1       2.050  79.712 116.528  0.00  0.00     0.038 C 
ATOM      4  C   LIG d   1       2.787  78.525 116.651  0.00  0.00     0.028 C 
ATOM      5  C   LIG d   1       2.294  77.620 117.775  0.00  0.00    -0.047 C 
ATOM      6  C   LIG d   1       0.770  77.412 117.620  0.00  0.00     0.091 C 
ENDROOT
BRANCH   1   7
ATOM      7  O   LIG d   1      -1.294  78.577 116.999  0.00  0.00    -0.368 OA
BRANCH   7   8
ATOM      8  C   LIG d   1      -1.327  78.090 115.635  0.00  0.00     0.119 C 
BRANCH   8   9
ATOM      9  C   LIG d   1      -2.272  79.009 114.837  0.00  0.00     0.028 C 
ATOM     10  C   LIG d   1      -1.788  79.238 113.395  0.00  0.00     0.006 C 
ENDBRANCH   8   9
BRANCH   8  11
ATOM     11  C   LIG d   1      -1.956  76.696 115.556  0.00  0.00     0.028 C 
ATOM     12  C   LIG d   1      -1.161  75.733 114.659  0.00  0.00     0.006 C 
ENDBRANCH   8  11
ENDBRANCH   7   8
ENDBRANCH   1   7
BRANCH   6  13
ATOM     13  N   LIG d   1       0.192  76.606 118.727  0.00  0.00    -0.311 N 
ATOM     14  C   LIG d   1      -0.013  75.293 118.649  0.00  0.00     0.210 C 
ATOM     15  C   LIG d   1      -0.636  74.660 119.896  0.00  0.00     0.109 C 
ATOM     16  O   LIG d   1       0.293  74.586 117.676  0.00  0.00    -0.276 OA
ATOM     17  H   LIG d   1      -0.055  77.095 119.566  0.00  0.00     0.149 HD
ENDBRANCH   6  13
BRANCH   5  18
ATOM     18  N   LIG d   1       3.059  76.361 117.701  0.00  0.00     0.381 N 
ATOM     19  H   LIG d   1       4.037  76.563 117.629  0.00  0.00    -0.090 HD
ATOM     20  H   LIG d   1       2.779  75.858 116.878  0.00  0.00    -0.090 HD
ATOM     21  H   LIG d   1       2.886  75.809 118.512  0.00  0.00    -0.090 HD
ENDBRANCH   5  18
BRANCH   3  22
ATOM     22  C   LIG d   1       2.696  80.843 116.052  0.00  0.00     0.382 C 
ATOM     23  O   LIG d   1       2.099  81.625 115.273  0.00  0.00    -0.241 OA
ATOM     24  O   LIG d   1       3.883  81.066 116.355  0.00  0.00    -0.241 OA
ENDBRANCH   3  22
TORSDOF 7
ENDMDL
