MODEL 1
REMARK VINA RESULT:      -5.0      0.000      0.000
REMARK  7 active torsions:
REMARK  status: ('A' for Active; 'I' for Inactive)
REMARK    1  A    between atoms: C_2  and  C_3 
REMARK    2  A    between atoms: C_3  and  O_6 
REMARK    3  A    between atoms: C_3  and  C_4 
REMARK    4  A    between atoms: C_7  and  O_6 
REMARK    5  A    between atoms: C_9  and  C_10 
REMARK    6  A    between atoms: N_15  and  C_14 
REMARK    7  A    between atoms: N_20  and  C_19 
REMARK       I    between atoms: C_22  and  N_20 
ROOT
ATOM      1  C   LIG d   1       1.110  81.339 113.027  0.00  0.00     0.161 C 
ATOM      2  C   LIG d   1       2.165  82.177 112.627  0.00  0.00     0.016 C 
ATOM      3  C   LIG d   1       2.463  82.459 111.274  0.00  0.00     0.038 C 
ATOM      4  C   LIG d   1       1.628  82.041 110.228  0.00  0.00     0.028 C 
ATOM      5  C   LIG d   1       0.841  80.775 110.550  0.00  0.00    -0.047 C 
ATOM      6  C   LIG d   1       0.121  80.963 111.904  0.00  0.00     0.091 C 
ENDROOT
BRANCH   1   7
ATOM      7  O   LIG d   1       0.407  81.934 114.136  0.00  0.00    -0.368 OA
BRANCH   7   8
ATOM      8  C   LIG d   1       0.703  83.327 114.404  0.00  0.00     0.119 C 
BRANCH   8   9
ATOM      9  C   LIG d   1       0.891  83.476 115.926  0.00  0.00     0.028 C 
ATOM     10  C   LIG d   1       2.366  83.669 116.318  0.00  0.00     0.006 C 
ENDBRANCH   8   9
BRANCH   8  11
ATOM     11  C   LIG d   1      -0.486  84.227 114.053  0.00  0.00     0.028 C 
ATOM     12  C   LIG d   1      -0.524  84.611 112.565  0.00  0.00     0.006 C 
ENDBRANCH   8  11
ENDBRANCH   7   8
ENDBRANCH   1   7
BRANCH   6  13
ATOM     13  N   LIG d   1      -0.604  79.739 112.335  0.00  0.00    -0.311 N 
ATOM     14  C   LIG d   1      -1.911  79.714 112.590  0.00  0.00     0.210 C 
ATOM     15  C   LIG d   1      -2.456  78.354 113.041  0.00  0.00     0.109 C 
ATOM     16  O   LIG d   1      -2.678  80.679 112.455  0.00  0.00    -0.276 OA
ATOM     17  H   LIG d   1      -0.065  78.902 112.440  0.00  0.00     0.149 HD
ENDBRANCH   6  13
BRANCH   5  18
ATOM     18  N   LIG d   1      -0.087  80.530 109.430  0.00  0.00     0.381 N 
ATOM     19  H   LIG d   1      -1.027  80.703 109.726  0.00  0.00    -0.090 HD
ATOM     20  H   LIG d   1      -0.016  79.567 109.153  0.00  0.00    -0.090 HD
ATOM     21  H   LIG d   1       0.141  81.123 108.662  0.00  0.00    -0.090 HD
ENDBRANCH   5  18
BRANCH   3  22
ATOM     22  C   LIG d   1       3.631  83.135 110.955  0.00  0.00     0.382 C 
ATOM     23  O   LIG d   1       4.721  82.516 110.910  0.00  0.00    -0.241 OA
ATOM     24  O   LIG d   1       3.615  84.364 110.755  0.00  0.00    -0.241 OA
ENDBRANCH   3  22
TORSDOF 7
ENDMDL
MODEL 2
REMARK VINA RESULT:      -5.0      1.261      1.712
REMARK  7 active torsions:
REMARK  status: ('A' for Active; 'I' for Inactive)
REMARK    1  A    between atoms: C_2  and  C_3 
REMARK    2  A    between atoms: C_3  and  O_6 
REMARK    3  A    between atoms: C_3  and  C_4 
REMARK    4  A    between atoms: C_7  and  O_6 
REMARK    5  A    between atoms: C_9  and  C_10 
REMARK    6  A    between atoms: N_15  and  C_14 
REMARK    7  A    between atoms: N_20  and  C_19 
REMARK       I    between atoms: C_22  and  N_20 
ROOT
ATOM      1  C   LIG d   1       0.563  81.527 113.108  0.00  0.00     0.161 C 
ATOM      2  C   LIG d   1       1.534  82.496 112.805  0.00  0.00     0.016 C 
ATOM      3  C   LIG d   1       1.966  82.780 111.489  0.00  0.00     0.038 C 
ATOM      4  C   LIG d   1       1.343  82.215 110.366  0.00  0.00     0.028 C 
ATOM      5  C   LIG d   1       0.704  80.859 110.645  0.00  0.00    -0.047 C 
ATOM      6  C   LIG d   1      -0.208  80.980 111.888  0.00  0.00     0.091 C 
ENDROOT
BRANCH   1   7
ATOM      7  O   LIG d   1      -0.356  82.046 114.089  0.00  0.00    -0.368 OA
BRANCH   7   8
ATOM      8  C   LIG d   1       0.191  82.292 115.408  0.00  0.00     0.119 C 
BRANCH   8   9
ATOM      9  C   LIG d   1      -0.252  81.131 116.318  0.00  0.00     0.028 C 
ATOM     10  C   LIG d   1      -1.705  80.700 116.054  0.00  0.00     0.006 C 
ENDBRANCH   8   9
BRANCH   8  11
ATOM     11  C   LIG d   1      -0.412  83.552 116.035  0.00  0.00     0.028 C 
ATOM     12  C   LIG d   1      -1.343  84.309 115.074  0.00  0.00     0.006 C 
ENDBRANCH   8  11
ENDBRANCH   7   8
ENDBRANCH   1   7
BRANCH   6  13
ATOM     13  N   LIG d   1      -0.806  79.677 112.281  0.00  0.00    -0.311 N 
ATOM     14  C   LIG d   1      -2.096  79.522 112.574  0.00  0.00     0.210 C 
ATOM     15  C   LIG d   1      -2.501  78.100 112.974  0.00  0.00     0.109 C 
ATOM     16  O   LIG d   1      -2.949  80.420 112.510  0.00  0.00    -0.276 OA
ATOM     17  H   LIG d   1      -0.191  78.889 112.328  0.00  0.00     0.149 HD
ENDBRANCH   6  13
BRANCH   5  18
ATOM     18  N   LIG d   1      -0.026  80.451 109.430  0.00  0.00     0.381 N 
ATOM     19  H   LIG d   1      -0.912  80.913 109.396  0.00  0.00    -0.090 HD
ATOM     20  H   LIG d   1      -0.188  79.460 109.465  0.00  0.00    -0.090 HD
ATOM     21  H   LIG d   1       0.507  80.680 108.620  0.00  0.00    -0.090 HD
ENDBRANCH   5  18
BRANCH   3  22
ATOM     22  C   LIG d   1       3.060  83.608 111.289  0.00  0.00     0.382 C 
ATOM     23  O   LIG d   1       3.061  84.427 110.338  0.00  0.00    -0.241 OA
ATOM     24  O   LIG d   1       4.065  83.515 112.019  0.00  0.00    -0.241 OA
ENDBRANCH   3  22
TORSDOF 7
ENDMDL
MODEL 3
REMARK VINA RESULT:      -4.8      1.883      4.753
REMARK  7 active torsions:
REMARK  status: ('A' for Active; 'I' for Inactive)
REMARK    1  A    between atoms: C_2  and  C_3 
REMARK    2  A    between atoms: C_3  and  O_6 
REMARK    3  A    between atoms: C_3  and  C_4 
REMARK    4  A    between atoms: C_7  and  O_6 
REMARK    5  A    between atoms: C_9  and  C_10 
REMARK    6  A    between atoms: N_15  and  C_14 
REMARK    7  A    between atoms: N_20  and  C_19 
REMARK       I    between atoms: C_22  and  N_20 
ROOT
ATOM      1  C   LIG d   1       0.975  82.731 112.642  0.00  0.00     0.161 C 
ATOM      2  C   LIG d   1      -0.334  82.458 113.076  0.00  0.00     0.016 C 
ATOM      3  C   LIG d   1      -1.128  81.416 112.544  0.00  0.00     0.038 C 
ATOM      4  C   LIG d   1      -0.609  80.474 111.643  0.00  0.00     0.028 C 
ATOM      5  C   LIG d   1       0.544  81.012 110.802  0.00  0.00    -0.047 C 
ATOM      6  C   LIG d   1       1.597  81.646 111.740  0.00  0.00     0.091 C 
ENDROOT
BRANCH   1   7
ATOM      7  O   LIG d   1       1.823  82.984 113.780  0.00  0.00    -0.368 OA
BRANCH   7   8
ATOM      8  C   LIG d   1       2.096  84.376 114.075  0.00  0.00     0.119 C 
BRANCH   8   9
ATOM      9  C   LIG d   1       3.593  84.622 113.804  0.00  0.00     0.028 C 
ATOM     10  C   LIG d   1       4.439  84.559 115.086  0.00  0.00     0.006 C 
ENDBRANCH   8   9
BRANCH   8  11
ATOM     11  C   LIG d   1       1.898  84.679 115.563  0.00  0.00     0.028 C 
ATOM     12  C   LIG d   1       0.962  83.676 116.256  0.00  0.00     0.006 C 
ENDBRANCH   8  11
ENDBRANCH   7   8
ENDBRANCH   1   7
BRANCH   6  13
ATOM     13  N   LIG d   1       2.719  82.271 110.992  0.00  0.00    -0.311 N 
ATOM     14  C   LIG d   1       3.757  81.584 110.518  0.00  0.00     0.210 C 
ATOM     15  C   LIG d   1       4.812  82.426 109.794  0.00  0.00     0.109 C 
ATOM     16  O   LIG d   1       3.887  80.354 110.600  0.00  0.00    -0.276 OA
ATOM     17  H   LIG d   1       2.678  83.262 110.853  0.00  0.00     0.149 HD
ENDBRANCH   6  13
BRANCH   5  18
ATOM     18  N   LIG d   1       1.078  79.889 110.008  0.00  0.00     0.381 N 
ATOM     19  H   LIG d   1       1.223  79.095 110.599  0.00  0.00    -0.090 HD
ATOM     20  H   LIG d   1       1.964  80.159 109.619  0.00  0.00    -0.090 HD
ATOM     21  H   LIG d   1       0.442  79.656 109.277  0.00  0.00    -0.090 HD
ENDBRANCH   5  18
BRANCH   3  22
ATOM     22  C   LIG d   1      -2.469  81.333 112.885  0.00  0.00     0.382 C 
ATOM     23  O   LIG d   1      -3.042  82.311 113.421  0.00  0.00    -0.241 OA
ATOM     24  O   LIG d   1      -3.103  80.275 112.703  0.00  0.00    -0.241 OA
ENDBRANCH   3  22
TORSDOF 7
ENDMDL
MODEL 4
REMARK VINA RESULT:      -4.6      1.328      1.565
REMARK  7 active torsions:
REMARK  status: ('A' for Active; 'I' for Inactive)
REMARK    1  A    between atoms: C_2  and  C_3 
REMARK    2  A    between atoms: C_3  and  O_6 
REMARK    3  A    between atoms: C_3  and  C_4 
REMARK    4  A    between atoms: C_7  and  O_6 
REMARK    5  A    between atoms: C_9  and  C_10 
REMARK    6  A    between atoms: N_15  and  C_14 
REMARK    7  A    between atoms: N_20  and  C_19 
REMARK       I    between atoms: C_22  and  N_20 
ROOT
ATOM      1  C   LIG d   1       0.706  81.360 113.798  0.00  0.00     0.161 C 
ATOM      2  C   LIG d   1       1.693  82.343 113.622  0.00  0.00     0.016 C 
ATOM      3  C   LIG d   1       2.082  82.838 112.356  0.00  0.00     0.038 C 
ATOM      4  C   LIG d   1       1.399  82.488 111.182  0.00  0.00     0.028 C 
ATOM      5  C   LIG d   1       0.730  81.120 111.255  0.00  0.00    -0.047 C 
ATOM      6  C   LIG d   1      -0.128  81.048 112.538  0.00  0.00     0.091 C 
ENDROOT
BRANCH   1   7
ATOM      7  O   LIG d   1      -0.158  81.725 114.893  0.00  0.00    -0.368 OA
BRANCH   7   8
ATOM      8  C   LIG d   1      -0.237  83.139 115.198  0.00  0.00     0.119 C 
BRANCH   8   9
ATOM      9  C   LIG d   1       0.064  83.307 116.700  0.00  0.00     0.028 C 
ATOM     10  C   LIG d   1      -0.538  84.598 117.279  0.00  0.00     0.006 C 
ENDBRANCH   8   9
BRANCH   8  11
ATOM     11  C   LIG d   1      -1.660  83.672 115.007  0.00  0.00     0.028 C 
ATOM     12  C   LIG d   1      -2.731  82.582 115.171  0.00  0.00     0.006 C 
ENDBRANCH   8  11
ENDBRANCH   7   8
ENDBRANCH   1   7
BRANCH   6  13
ATOM     13  N   LIG d   1      -0.750  79.712 112.730  0.00  0.00    -0.311 N 
ATOM     14  C   LIG d   1      -2.067  79.511 112.740  0.00  0.00     0.210 C 
ATOM     15  C   LIG d   1      -2.498  78.060 112.973  0.00  0.00     0.109 C 
ATOM     16  O   LIG d   1      -2.918  80.392 112.546  0.00  0.00    -0.276 OA
ATOM     17  H   LIG d   1      -0.132  78.936 112.863  0.00  0.00     0.149 HD
ENDBRANCH   6  13
BRANCH   5  18
ATOM     18  N   LIG d   1      -0.059  80.943 110.021  0.00  0.00     0.381 N 
ATOM     19  H   LIG d   1       0.427  81.350 109.247  0.00  0.00    -0.090 HD
ATOM     20  H   LIG d   1      -0.938  81.418 110.126  0.00  0.00    -0.090 HD
ATOM     21  H   LIG d   1      -0.214  79.974 109.851  0.00  0.00    -0.090 HD
ENDBRANCH   5  18
BRANCH   3  22
ATOM     22  C   LIG d   1       3.193  83.661 112.252  0.00  0.00     0.382 C 
ATOM     23  O   LIG d   1       3.985  83.772 113.218  0.00  0.00    -0.241 OA
ATOM     24  O   LIG d   1       3.389  84.329 111.219  0.00  0.00    -0.241 OA
ENDBRANCH   3  22
TORSDOF 7
ENDMDL
MODEL 5
REMARK VINA RESULT:      -4.1      1.723      2.236
REMARK  7 active torsions:
REMARK  status: ('A' for Active; 'I' for Inactive)
REMARK    1  A    between atoms: C_2  and  C_3 
REMARK    2  A    between atoms: C_3  and  O_6 
REMARK    3  A    between atoms: C_3  and  C_4 
REMARK    4  A    between atoms: C_7  and  O_6 
REMARK    5  A    between atoms: C_9  and  C_10 
REMARK    6  A    between atoms: N_15  and  C_14 
REMARK    7  A    between atoms: N_20  and  C_19 
REMARK       I    between atoms: C_22  and  N_20 
ROOT
ATOM      1  C   LIG d   1       1.187  82.468 113.597  0.00  0.00     0.161 C 
ATOM      2  C   LIG d   1       2.310  82.367 112.758  0.00  0.00     0.016 C 
ATOM      3  C   LIG d   1       2.330  81.592 111.577  0.00  0.00     0.038 C 
ATOM      4  C   LIG d   1       1.173  80.981 111.070  0.00  0.00     0.028 C 
ATOM      5  C   LIG d   1       0.148  80.640 112.146  0.00  0.00    -0.047 C 
ATOM      6  C   LIG d   1      -0.118  81.899 113.003  0.00  0.00     0.091 C 
ENDROOT
BRANCH   1   7
ATOM      7  O   LIG d   1       0.999  83.840 113.998  0.00  0.00    -0.368 OA
BRANCH   7   8
ATOM      8  C   LIG d   1       1.196  84.126 115.404  0.00  0.00     0.119 C 
BRANCH   8   9
ATOM      9  C   LIG d   1       1.632  82.815 116.087  0.00  0.00     0.028 C 
ATOM     10  C   LIG d   1       3.046  82.907 116.685  0.00  0.00     0.006 C 
ENDBRANCH   8   9
BRANCH   8  11
ATOM     11  C   LIG d   1      -0.119  84.519 116.083  0.00  0.00     0.028 C 
ATOM     12  C   LIG d   1      -0.564  83.507 117.152  0.00  0.00     0.006 C 
ENDBRANCH   8  11
ENDBRANCH   7   8
ENDBRANCH   1   7
BRANCH   6  13
ATOM     13  N   LIG d   1      -1.046  81.630 114.132  0.00  0.00    -0.311 N 
ATOM     14  C   LIG d   1      -2.370  81.735 114.033  0.00  0.00     0.210 C 
ATOM     15  C   LIG d   1      -3.141  81.433 115.322  0.00  0.00     0.109 C 
ATOM     16  O   LIG d   1      -2.981  82.018 112.991  0.00  0.00    -0.276 OA
ATOM     17  H   LIG d   1      -0.637  81.364 115.006  0.00  0.00     0.149 HD
ENDBRANCH   6  13
BRANCH   5  18
ATOM     18  N   LIG d   1      -1.061  80.137 111.467  0.00  0.00     0.381 N 
ATOM     19  H   LIG d   1      -1.194  79.170 111.684  0.00  0.00    -0.090 HD
ATOM     20  H   LIG d   1      -0.935  80.223 110.473  0.00  0.00    -0.090 HD
ATOM     21  H   LIG d   1      -1.857  80.662 111.754  0.00  0.00    -0.090 HD
ENDBRANCH   5  18
BRANCH   3  22
ATOM     22  C   LIG d   1       3.529  81.388 110.909  0.00  0.00     0.382 C 
ATOM     23  O   LIG d   1       4.420  82.271 110.937  0.00  0.00    -0.241 OA
ATOM     24  O   LIG d   1       3.712  80.352 110.242  0.00  0.00    -0.241 OA
ENDBRANCH   3  22
TORSDOF 7
ENDMDL
MODEL 6
REMARK VINA RESULT:      -4.1      2.745      5.993
REMARK  7 active torsions:
REMARK  status: ('A' for Active; 'I' for Inactive)
REMARK    1  A    between atoms: C_2  and  C_3 
REMARK    2  A    between atoms: C_3  and  O_6 
REMARK    3  A    between atoms: C_3  and  C_4 
REMARK    4  A    between atoms: C_7  and  O_6 
REMARK    5  A    between atoms: C_9  and  C_10 
REMARK    6  A    between atoms: N_15  and  C_14 
REMARK    7  A    between atoms: N_20  and  C_19 
REMARK       I    between atoms: C_22  and  N_20 
ROOT
ATOM      1  C   LIG d   1       0.860  83.019 113.107  0.00  0.00     0.161 C 
ATOM      2  C   LIG d   1      -0.340  82.340 112.836  0.00  0.00     0.016 C 
ATOM      3  C   LIG d   1      -1.484  82.420 113.663  0.00  0.00     0.038 C 
ATOM      4  C   LIG d   1      -1.556  83.311 114.744  0.00  0.00     0.028 C 
ATOM      5  C   LIG d   1      -0.195  83.639 115.350  0.00  0.00    -0.047 C 
ATOM      6  C   LIG d   1       0.763  84.082 114.221  0.00  0.00     0.091 C 
ENDROOT
BRANCH   1   7
ATOM      7  O   LIG d   1       1.372  83.609 111.896  0.00  0.00    -0.368 OA
BRANCH   7   8
ATOM      8  C   LIG d   1       2.730  83.251 111.538  0.00  0.00     0.119 C 
BRANCH   8   9
ATOM      9  C   LIG d   1       2.873  83.443 110.015  0.00  0.00     0.028 C 
ATOM     10  C   LIG d   1       1.789  84.367 109.436  0.00  0.00     0.006 C 
ENDBRANCH   8   9
BRANCH   8  11
ATOM     11  C   LIG d   1       2.998  81.764 111.786  0.00  0.00     0.028 C 
ATOM     12  C   LIG d   1       2.776  80.901 110.535  0.00  0.00     0.006 C 
ENDBRANCH   8  11
ENDBRANCH   7   8
ENDBRANCH   1   7
BRANCH   6  13
ATOM     13  N   LIG d   1       2.140  84.341 114.716  0.00  0.00    -0.311 N 
ATOM     14  C   LIG d   1       2.896  83.413 115.301  0.00  0.00     0.210 C 
ATOM     15  C   LIG d   1       4.277  83.896 115.755  0.00  0.00     0.109 C 
ATOM     16  O   LIG d   1       2.566  82.228 115.458  0.00  0.00    -0.276 OA
ATOM     17  H   LIG d   1       2.500  85.269 114.601  0.00  0.00     0.149 HD
ENDBRANCH   6  13
BRANCH   5  18
ATOM     18  N   LIG d   1      -0.403  84.680 116.374  0.00  0.00     0.381 N 
ATOM     19  H   LIG d   1       0.275  85.407 116.261  0.00  0.00    -0.090 HD
ATOM     20  H   LIG d   1      -0.277  84.271 117.284  0.00  0.00    -0.090 HD
ATOM     21  H   LIG d   1      -1.322  85.057 116.296  0.00  0.00    -0.090 HD
ENDBRANCH   5  18
BRANCH   3  22
ATOM     22  C   LIG d   1      -2.558  81.574 113.434  0.00  0.00     0.382 C 
ATOM     23  O   LIG d   1      -3.247  81.703 112.394  0.00  0.00    -0.241 OA
ATOM     24  O   LIG d   1      -2.873  80.712 114.276  0.00  0.00    -0.241 OA
ENDBRANCH   3  22
TORSDOF 7
ENDMDL
MODEL 7
REMARK VINA RESULT:      -3.9      3.482      4.516
REMARK  7 active torsions:
REMARK  status: ('A' for Active; 'I' for Inactive)
REMARK    1  A    between atoms: C_2  and  C_3 
REMARK    2  A    between atoms: C_3  and  O_6 
REMARK    3  A    between atoms: C_3  and  C_4 
REMARK    4  A    between atoms: C_7  and  O_6 
REMARK    5  A    between atoms: C_9  and  C_10 
REMARK    6  A    between atoms: N_15  and  C_14 
REMARK    7  A    between atoms: N_20  and  C_19 
REMARK       I    between atoms: C_22  and  N_20 
ROOT
ATOM      1  C   LIG d   1      -0.206  79.837 115.014  0.00  0.00     0.161 C 
ATOM      2  C   LIG d   1      -0.472  81.130 114.535  0.00  0.00     0.016 C 
ATOM      3  C   LIG d   1      -1.349  81.397 113.458  0.00  0.00     0.038 C 
ATOM      4  C   LIG d   1      -2.141  80.392 112.881  0.00  0.00     0.028 C 
ATOM      5  C   LIG d   1      -1.530  78.999 112.995  0.00  0.00    -0.047 C 
ATOM      6  C   LIG d   1      -1.145  78.740 114.470  0.00  0.00     0.091 C 
ENDROOT
BRANCH   1   7
ATOM      7  O   LIG d   1      -0.218  79.837 116.455  0.00  0.00    -0.368 OA
BRANCH   7   8
ATOM      8  C   LIG d   1       0.097  81.098 117.095  0.00  0.00     0.119 C 
BRANCH   8   9
ATOM      9  C   LIG d   1       1.457  80.933 117.801  0.00  0.00     0.028 C 
ATOM     10  C   LIG d   1       1.744  82.070 118.795  0.00  0.00     0.006 C 
ENDBRANCH   8   9
BRANCH   8  11
ATOM     11  C   LIG d   1      -0.902  81.422 118.210  0.00  0.00     0.028 C 
ATOM     12  C   LIG d   1      -2.293  80.820 117.958  0.00  0.00     0.006 C 
ENDBRANCH   8  11
ENDBRANCH   7   8
ENDBRANCH   1   7
BRANCH   6  13
ATOM     13  N   LIG d   1      -0.464  77.432 114.656  0.00  0.00    -0.311 N 
ATOM     14  C   LIG d   1      -1.114  76.295 114.898  0.00  0.00     0.210 C 
ATOM     15  C   LIG d   1      -0.219  75.065 115.078  0.00  0.00     0.109 C 
ATOM     16  O   LIG d   1      -2.348  76.183 114.950  0.00  0.00    -0.276 OA
ATOM     17  H   LIG d   1       0.536  77.426 114.599  0.00  0.00     0.149 HD
ENDBRANCH   6  13
BRANCH   5  18
ATOM     18  N   LIG d   1      -2.520  78.036 112.478  0.00  0.00     0.381 N 
ATOM     19  H   LIG d   1      -2.481  78.014 111.479  0.00  0.00    -0.090 HD
ATOM     20  H   LIG d   1      -3.439  78.335 112.752  0.00  0.00    -0.090 HD
ATOM     21  H   LIG d   1      -2.336  77.128 112.845  0.00  0.00    -0.090 HD
ENDBRANCH   5  18
BRANCH   3  22
ATOM     22  C   LIG d   1      -1.410  82.674 112.921  0.00  0.00     0.382 C 
ATOM     23  O   LIG d   1      -1.459  83.671 113.681  0.00  0.00    -0.241 OA
ATOM     24  O   LIG d   1      -1.462  82.838 111.688  0.00  0.00    -0.241 OA
ENDBRANCH   3  22
TORSDOF 7
ENDMDL
MODEL 8
REMARK VINA RESULT:      -3.8      2.796      5.608
REMARK  7 active torsions:
REMARK  status: ('A' for Active; 'I' for Inactive)
REMARK    1  A    between atoms: C_2  and  C_3 
REMARK    2  A    between atoms: C_3  and  O_6 
REMARK    3  A    between atoms: C_3  and  C_4 
REMARK    4  A    between atoms: C_7  and  O_6 
REMARK    5  A    between atoms: C_9  and  C_10 
REMARK    6  A    between atoms: N_15  and  C_14 
REMARK    7  A    between atoms: N_20  and  C_19 
REMARK       I    between atoms: C_22  and  N_20 
ROOT
ATOM      1  C   LIG d   1      -0.041  83.395 115.192  0.00  0.00     0.161 C 
ATOM      2  C   LIG d   1      -1.222  82.737 114.810  0.00  0.00     0.016 C 
ATOM      3  C   LIG d   1      -1.258  81.696 113.854  0.00  0.00     0.038 C 
ATOM      4  C   LIG d   1      -0.086  81.136 113.324  0.00  0.00     0.028 C 
ATOM      5  C   LIG d   1       1.092  82.104 113.301  0.00  0.00    -0.047 C 
ATOM      6  C   LIG d   1       1.260  82.723 114.707  0.00  0.00     0.091 C 
ENDROOT
BRANCH   1   7
ATOM      7  O   LIG d   1      -0.016  83.560 116.624  0.00  0.00    -0.368 OA
BRANCH   7   8
ATOM      8  C   LIG d   1      -0.965  82.762 117.374  0.00  0.00     0.119 C 
BRANCH   8   9
ATOM      9  C   LIG d   1      -1.441  83.611 118.569  0.00  0.00     0.028 C 
ATOM     10  C   LIG d   1      -0.373  84.611 119.042  0.00  0.00     0.006 C 
ENDBRANCH   8   9
BRANCH   8  11
ATOM     11  C   LIG d   1      -0.292  81.533 117.993  0.00  0.00     0.028 C 
ATOM     12  C   LIG d   1      -1.274  80.377 118.238  0.00  0.00     0.006 C 
ENDBRANCH   8  11
ENDBRANCH   7   8
ENDBRANCH   1   7
BRANCH   6  13
ATOM     13  N   LIG d   1       2.338  83.746 114.752  0.00  0.00    -0.311 N 
ATOM     14  C   LIG d   1       3.589  83.477 115.121  0.00  0.00     0.210 C 
ATOM     15  C   LIG d   1       4.537  84.679 115.116  0.00  0.00     0.109 C 
ATOM     16  O   LIG d   1       4.011  82.350 115.422  0.00  0.00    -0.276 OA
ATOM     17  H   LIG d   1       2.090  84.681 114.493  0.00  0.00     0.149 HD
ENDBRANCH   6  13
BRANCH   5  18
ATOM     18  N   LIG d   1       2.279  81.352 112.854  0.00  0.00     0.381 N 
ATOM     19  H   LIG d   1       2.018  80.696 112.146  0.00  0.00    -0.090 HD
ATOM     20  H   LIG d   1       2.653  80.841 113.635  0.00  0.00    -0.090 HD
ATOM     21  H   LIG d   1       2.967  81.979 112.499  0.00  0.00    -0.090 HD
ENDBRANCH   5  18
BRANCH   3  22
ATOM     22  C   LIG d   1      -2.478  81.231 113.389  0.00  0.00     0.382 C 
ATOM     23  O   LIG d   1      -2.987  80.198 113.888  0.00  0.00    -0.241 OA
ATOM     24  O   LIG d   1      -3.057  81.806 112.448  0.00  0.00    -0.241 OA
ENDBRANCH   3  22
TORSDOF 7
ENDMDL
MODEL 9
REMARK VINA RESULT:      -3.8      2.378      3.437
REMARK  7 active torsions:
REMARK  status: ('A' for Active; 'I' for Inactive)
REMARK    1  A    between atoms: C_2  and  C_3 
REMARK    2  A    between atoms: C_3  and  O_6 
REMARK    3  A    between atoms: C_3  and  C_4 
REMARK    4  A    between atoms: C_7  and  O_6 
REMARK    5  A    between atoms: C_9  and  C_10 
REMARK    6  A    between atoms: N_15  and  C_14 
REMARK    7  A    between atoms: N_20  and  C_19 
REMARK       I    between atoms: C_22  and  N_20 
ROOT
ATOM      1  C   LIG d   1       1.854  82.144 113.938  0.00  0.00     0.161 C 
ATOM      2  C   LIG d   1       2.828  81.783 112.993  0.00  0.00     0.016 C 
ATOM      3  C   LIG d   1       2.587  81.753 111.600  0.00  0.00     0.038 C 
ATOM      4  C   LIG d   1       1.391  82.231 111.044  0.00  0.00     0.028 C 
ATOM      5  C   LIG d   1       0.200  82.130 111.991  0.00  0.00    -0.047 C 
ATOM      6  C   LIG d   1       0.578  82.776 113.343  0.00  0.00     0.091 C 
ENDROOT
BRANCH   1   7
ATOM      7  O   LIG d   1       2.432  83.020 114.926  0.00  0.00    -0.368 OA
BRANCH   7   8
ATOM      8  C   LIG d   1       2.686  82.435 116.227  0.00  0.00     0.119 C 
BRANCH   8   9
ATOM      9  C   LIG d   1       4.192  82.585 116.516  0.00  0.00     0.028 C 
ATOM     10  C   LIG d   1       4.766  83.903 115.968  0.00  0.00     0.006 C 
ENDBRANCH   8   9
BRANCH   8  11
ATOM     11  C   LIG d   1       2.423  80.926 116.220  0.00  0.00     0.028 C 
ATOM     12  C   LIG d   1       3.684  80.100 116.524  0.00  0.00     0.006 C 
ENDBRANCH   8  11
ENDBRANCH   7   8
ENDBRANCH   1   7
BRANCH   6  13
ATOM     13  N   LIG d   1      -0.503  82.645 114.355  0.00  0.00    -0.311 N 
ATOM     14  C   LIG d   1      -1.397  83.601 114.601  0.00  0.00     0.210 C 
ATOM     15  C   LIG d   1      -2.413  83.270 115.698  0.00  0.00     0.109 C 
ATOM     16  O   LIG d   1      -1.465  84.679 113.992  0.00  0.00    -0.276 OA
ATOM     17  H   LIG d   1      -0.541  81.789 114.874  0.00  0.00     0.149 HD
ENDBRANCH   6  13
BRANCH   5  18
ATOM     18  N   LIG d   1      -0.947  82.788 111.336  0.00  0.00     0.381 N 
ATOM     19  H   LIG d   1      -0.775  83.771 111.259  0.00  0.00    -0.090 HD
ATOM     20  H   LIG d   1      -1.765  82.654 111.903  0.00  0.00    -0.090 HD
ATOM     21  H   LIG d   1      -1.093  82.398 110.431  0.00  0.00    -0.090 HD
ENDBRANCH   5  18
BRANCH   3  22
ATOM     22  C   LIG d   1       3.534  81.202 110.751  0.00  0.00     0.382 C 
ATOM     23  O   LIG d   1       3.288  80.130 110.148  0.00  0.00    -0.241 OA
ATOM     24  O   LIG d   1       4.649  81.741 110.614  0.00  0.00    -0.241 OA
ENDBRANCH   3  22
TORSDOF 7
ENDMDL
