MODEL 1
REMARK VINA RESULT:      -6.0      0.000      0.000
REMARK  7 active torsions:
REMARK  status: ('A' for Active; 'I' for Inactive)
REMARK    1  A    between atoms: C_2  and  C_3 
REMARK    2  A    between atoms: C_3  and  O_6 
REMARK    3  A    between atoms: C_3  and  C_4 
REMARK    4  A    between atoms: C_7  and  O_6 
REMARK    5  A    between atoms: C_9  and  C_10 
REMARK    6  A    between atoms: N_15  and  C_14 
REMARK    7  A    between atoms: N_20  and  C_19 
REMARK       I    between atoms: C_22  and  N_20 
ROOT
ATOM      1  C   LIG d   1       0.819  80.702 110.747  0.00  0.00     0.161 C 
ATOM      2  C   LIG d   1       0.594  79.391 110.295  0.00  0.00     0.016 C 
ATOM      3  C   LIG d   1      -0.411  78.549 110.823  0.00  0.00     0.038 C 
ATOM      4  C   LIG d   1      -1.364  79.015 111.741  0.00  0.00     0.028 C 
ATOM      5  C   LIG d   1      -0.863  80.175 112.596  0.00  0.00    -0.047 C 
ATOM      6  C   LIG d   1      -0.281  81.267 111.670  0.00  0.00     0.091 C 
ENDROOT
BRANCH   1   7
ATOM      7  O   LIG d   1       1.027  81.578 109.622  0.00  0.00    -0.368 OA
BRANCH   7   8
ATOM      8  C   LIG d   1       2.380  82.060 109.430  0.00  0.00     0.119 C 
BRANCH   8   9
ATOM      9  C   LIG d   1       3.285  81.306 110.424  0.00  0.00     0.028 C 
ATOM     10  C   LIG d   1       4.304  80.397 109.716  0.00  0.00     0.006 C 
ENDBRANCH   8   9
BRANCH   8  11
ATOM     11  C   LIG d   1       2.504  83.538 109.810  0.00  0.00     0.028 C 
ATOM     12  C   LIG d   1       3.645  83.804 110.805  0.00  0.00     0.006 C 
ENDBRANCH   8  11
ENDBRANCH   7   8
ENDBRANCH   1   7
BRANCH   6  13
ATOM     13  N   LIG d   1       0.307  82.400 112.430  0.00  0.00    -0.311 N 
ATOM     14  C   LIG d   1      -0.095  83.662 112.293  0.00  0.00     0.210 C 
ATOM     15  C   LIG d   1       0.658  84.679 113.157  0.00  0.00     0.109 C 
ATOM     16  O   LIG d   1      -1.026  84.032 111.563  0.00  0.00    -0.276 OA
ATOM     17  H   LIG d   1       1.048  82.185 113.069  0.00  0.00     0.149 HD
ENDBRANCH   6  13
BRANCH   5  18
ATOM     18  N   LIG d   1      -1.998  80.651 113.409  0.00  0.00     0.381 N 
ATOM     19  H   LIG d   1      -2.121  81.635 113.277  0.00  0.00    -0.090 HD
ATOM     20  H   LIG d   1      -1.795  80.487 114.380  0.00  0.00    -0.090 HD
ATOM     21  H   LIG d   1      -2.830  80.167 113.150  0.00  0.00    -0.090 HD
ENDBRANCH   5  18
BRANCH   3  22
ATOM     22  C   LIG d   1      -0.445  77.210 110.462  0.00  0.00     0.382 C 
ATOM     23  O   LIG d   1      -1.531  76.583 110.483  0.00  0.00    -0.241 OA
ATOM     24  O   LIG d   1       0.603  76.611 110.157  0.00  0.00    -0.241 OA
ENDBRANCH   3  22
TORSDOF 7
ENDMDL
MODEL 2
REMARK VINA RESULT:      -5.5      1.403      1.569
REMARK  7 active torsions:
REMARK  status: ('A' for Active; 'I' for Inactive)
REMARK    1  A    between atoms: C_2  and  C_3 
REMARK    2  A    between atoms: C_3  and  O_6 
REMARK    3  A    between atoms: C_3  and  C_4 
REMARK    4  A    between atoms: C_7  and  O_6 
REMARK    5  A    between atoms: C_9  and  C_10 
REMARK    6  A    between atoms: N_15  and  C_14 
REMARK    7  A    between atoms: N_20  and  C_19 
REMARK       I    between atoms: C_22  and  N_20 
ROOT
ATOM      1  C   LIG d   1       0.630  80.469 111.082  0.00  0.00     0.161 C 
ATOM      2  C   LIG d   1      -0.172  79.449 110.542  0.00  0.00     0.016 C 
ATOM      3  C   LIG d   1      -1.021  78.631 111.322  0.00  0.00     0.038 C 
ATOM      4  C   LIG d   1      -1.240  78.878 112.685  0.00  0.00     0.028 C 
ATOM      5  C   LIG d   1      -0.070  79.575 113.371  0.00  0.00    -0.047 C 
ATOM      6  C   LIG d   1       0.320  80.826 112.551  0.00  0.00     0.091 C 
ENDROOT
BRANCH   1   7
ATOM      7  O   LIG d   1       0.549  81.645 110.253  0.00  0.00    -0.368 OA
BRANCH   7   8
ATOM      8  C   LIG d   1       1.709  81.925 109.430  0.00  0.00     0.119 C 
BRANCH   8   9
ATOM      9  C   LIG d   1       2.860  81.033 109.933  0.00  0.00     0.028 C 
ATOM     10  C   LIG d   1       4.095  81.849 110.350  0.00  0.00     0.006 C 
ENDBRANCH   8   9
BRANCH   8  11
ATOM     11  C   LIG d   1       2.196  83.364 109.625  0.00  0.00     0.028 C 
ATOM     12  C   LIG d   1       1.055  84.393 109.563  0.00  0.00     0.006 C 
ENDBRANCH   8  11
ENDBRANCH   7   8
ENDBRANCH   1   7
BRANCH   6  13
ATOM     13  N   LIG d   1       1.511  81.519 113.106  0.00  0.00    -0.311 N 
ATOM     14  C   LIG d   1       1.576  82.838 113.282  0.00  0.00     0.210 C 
ATOM     15  C   LIG d   1       2.904  83.350 113.849  0.00  0.00     0.109 C 
ATOM     16  O   LIG d   1       0.649  83.628 113.052  0.00  0.00    -0.276 OA
ATOM     17  H   LIG d   1       2.298  80.950 113.349  0.00  0.00     0.149 HD
ENDBRANCH   6  13
BRANCH   5  18
ATOM     18  N   LIG d   1      -0.487  79.894 114.750  0.00  0.00     0.381 N 
ATOM     19  H   LIG d   1       0.163  79.500 115.400  0.00  0.00    -0.090 HD
ATOM     20  H   LIG d   1      -1.389  79.486 114.919  0.00  0.00    -0.090 HD
ATOM     21  H   LIG d   1      -0.533  80.882 114.872  0.00  0.00    -0.090 HD
ENDBRANCH   5  18
BRANCH   3  22
ATOM     22  C   LIG d   1      -1.630  77.527 110.746  0.00  0.00     0.382 C 
ATOM     23  O   LIG d   1      -2.875  77.505 110.596  0.00  0.00    -0.241 OA
ATOM     24  O   LIG d   1      -0.955  76.533 110.416  0.00  0.00    -0.241 OA
ENDBRANCH   3  22
TORSDOF 7
ENDMDL
MODEL 3
REMARK VINA RESULT:      -5.5      2.524      4.334
REMARK  7 active torsions:
REMARK  status: ('A' for Active; 'I' for Inactive)
REMARK    1  A    between atoms: C_2  and  C_3 
REMARK    2  A    between atoms: C_3  and  O_6 
REMARK    3  A    between atoms: C_3  and  C_4 
REMARK    4  A    between atoms: C_7  and  O_6 
REMARK    5  A    between atoms: C_9  and  C_10 
REMARK    6  A    between atoms: N_15  and  C_14 
REMARK    7  A    between atoms: N_20  and  C_19 
REMARK       I    between atoms: C_22  and  N_20 
ROOT
ATOM      1  C   LIG d   1       1.300  81.139 112.375  0.00  0.00     0.161 C 
ATOM      2  C   LIG d   1       2.516  81.365 111.708  0.00  0.00     0.016 C 
ATOM      3  C   LIG d   1       2.770  80.932 110.386  0.00  0.00     0.038 C 
ATOM      4  C   LIG d   1       1.765  80.374 109.583  0.00  0.00     0.028 C 
ATOM      5  C   LIG d   1       0.672  79.670 110.381  0.00  0.00    -0.047 C 
ATOM      6  C   LIG d   1       0.154  80.630 111.476  0.00  0.00     0.091 C 
ENDROOT
BRANCH   1   7
ATOM      7  O   LIG d   1       0.897  82.334 113.073  0.00  0.00    -0.368 OA
BRANCH   7   8
ATOM      8  C   LIG d   1       1.525  83.567 112.642  0.00  0.00     0.119 C 
BRANCH   8   9
ATOM      9  C   LIG d   1       2.062  84.277 113.899  0.00  0.00     0.028 C 
ATOM     10  C   LIG d   1       3.566  84.036 114.112  0.00  0.00     0.006 C 
ENDBRANCH   8   9
BRANCH   8  11
ATOM     11  C   LIG d   1       0.501  84.532 112.037  0.00  0.00     0.028 C 
ATOM     12  C   LIG d   1      -0.076  84.030 110.704  0.00  0.00     0.006 C 
ENDBRANCH   8  11
ENDBRANCH   7   8
ENDBRANCH   1   7
BRANCH   6  13
ATOM     13  N   LIG d   1      -0.858  79.991 112.357  0.00  0.00    -0.311 N 
ATOM     14  C   LIG d   1      -1.966  80.606 112.767  0.00  0.00     0.210 C 
ATOM     15  C   LIG d   1      -2.866  79.774 113.687  0.00  0.00     0.109 C 
ATOM     16  O   LIG d   1      -2.305  81.751 112.431  0.00  0.00    -0.276 OA
ATOM     17  H   LIG d   1      -0.678  79.052 112.652  0.00  0.00     0.149 HD
ENDBRANCH   6  13
BRANCH   5  18
ATOM     18  N   LIG d   1      -0.378  79.257 109.431  0.00  0.00     0.381 N 
ATOM     19  H   LIG d   1      -1.247  79.683 109.680  0.00  0.00    -0.090 HD
ATOM     20  H   LIG d   1      -0.489  78.260 109.483  0.00  0.00    -0.090 HD
ATOM     21  H   LIG d   1      -0.123  79.522 108.505  0.00  0.00    -0.090 HD
ENDBRANCH   5  18
BRANCH   3  22
ATOM     22  C   LIG d   1       4.053  81.021 109.869  0.00  0.00     0.382 C 
ATOM     23  O   LIG d   1       4.575  82.146 109.675  0.00  0.00    -0.241 OA
ATOM     24  O   LIG d   1       4.679  79.992 109.552  0.00  0.00    -0.241 OA
ENDBRANCH   3  22
TORSDOF 7
ENDMDL
MODEL 4
REMARK VINA RESULT:      -5.0      2.553      4.089
REMARK  7 active torsions:
REMARK  status: ('A' for Active; 'I' for Inactive)
REMARK    1  A    between atoms: C_2  and  C_3 
REMARK    2  A    between atoms: C_3  and  O_6 
REMARK    3  A    between atoms: C_3  and  C_4 
REMARK    4  A    between atoms: C_7  and  O_6 
REMARK    5  A    between atoms: C_9  and  C_10 
REMARK    6  A    between atoms: N_15  and  C_14 
REMARK    7  A    between atoms: N_20  and  C_19 
REMARK       I    between atoms: C_22  and  N_20 
ROOT
ATOM      1  C   LIG d   1       0.602  81.912 111.868  0.00  0.00     0.161 C 
ATOM      2  C   LIG d   1      -0.648  81.681 112.467  0.00  0.00     0.016 C 
ATOM      3  C   LIG d   1      -1.349  80.458 112.357  0.00  0.00     0.038 C 
ATOM      4  C   LIG d   1      -0.774  79.324 111.763  0.00  0.00     0.028 C 
ATOM      5  C   LIG d   1       0.274  79.659 110.707  0.00  0.00    -0.047 C 
ATOM      6  C   LIG d   1       1.295  80.651 111.310  0.00  0.00     0.091 C 
ENDROOT
BRANCH   1   7
ATOM      7  O   LIG d   1       1.470  82.591 112.796  0.00  0.00    -0.368 OA
BRANCH   7   8
ATOM      8  C   LIG d   1       1.445  84.039 112.750  0.00  0.00     0.119 C 
BRANCH   8   9
ATOM      9  C   LIG d   1       2.052  84.470 111.401  0.00  0.00     0.028 C 
ATOM     10  C   LIG d   1       0.983  84.680 110.316  0.00  0.00     0.006 C 
ENDBRANCH   8   9
BRANCH   8  11
ATOM     11  C   LIG d   1       2.358  84.647 113.819  0.00  0.00     0.028 C 
ATOM     12  C   LIG d   1       3.744  83.985 113.865  0.00  0.00     0.006 C 
ENDBRANCH   8  11
ENDBRANCH   7   8
ENDBRANCH   1   7
BRANCH   6  13
ATOM     13  N   LIG d   1       2.307  81.097 110.317  0.00  0.00    -0.311 N 
ATOM     14  C   LIG d   1       3.578  81.347 110.627  0.00  0.00     0.210 C 
ATOM     15  C   LIG d   1       4.449  81.814 109.457  0.00  0.00     0.109 C 
ATOM     16  O   LIG d   1       4.074  81.195 111.753  0.00  0.00    -0.276 OA
ATOM     17  H   LIG d   1       1.997  81.215 109.372  0.00  0.00     0.149 HD
ENDBRANCH   6  13
BRANCH   5  18
ATOM     18  N   LIG d   1       0.888  78.391 110.270  0.00  0.00     0.381 N 
ATOM     19  H   LIG d   1       1.863  78.530 110.094  0.00  0.00    -0.090 HD
ATOM     20  H   LIG d   1       0.452  78.096 109.415  0.00  0.00    -0.090 HD
ATOM     21  H   LIG d   1       0.766  77.694 110.972  0.00  0.00    -0.090 HD
ENDBRANCH   5  18
BRANCH   3  22
ATOM     22  C   LIG d   1      -2.656  80.372 112.811  0.00  0.00     0.382 C 
ATOM     23  O   LIG d   1      -3.070  79.310 113.334  0.00  0.00    -0.241 OA
ATOM     24  O   LIG d   1      -3.440  81.329 112.663  0.00  0.00    -0.241 OA
ENDBRANCH   3  22
TORSDOF 7
ENDMDL
MODEL 5
REMARK VINA RESULT:      -4.9      2.482      4.747
REMARK  7 active torsions:
REMARK  status: ('A' for Active; 'I' for Inactive)
REMARK    1  A    between atoms: C_2  and  C_3 
REMARK    2  A    between atoms: C_3  and  O_6 
REMARK    3  A    between atoms: C_3  and  C_4 
REMARK    4  A    between atoms: C_7  and  O_6 
REMARK    5  A    between atoms: C_9  and  C_10 
REMARK    6  A    between atoms: N_15  and  C_14 
REMARK    7  A    between atoms: N_20  and  C_19 
REMARK       I    between atoms: C_22  and  N_20 
ROOT
ATOM      1  C   LIG d   1      -0.679  80.204 112.991  0.00  0.00     0.161 C 
ATOM      2  C   LIG d   1      -1.122  78.969 112.488  0.00  0.00     0.016 C 
ATOM      3  C   LIG d   1      -0.741  78.462 111.224  0.00  0.00     0.038 C 
ATOM      4  C   LIG d   1       0.234  79.091 110.436  0.00  0.00     0.028 C 
ATOM      5  C   LIG d   1       0.329  80.594 110.675  0.00  0.00    -0.047 C 
ATOM      6  C   LIG d   1       0.472  80.852 112.193  0.00  0.00     0.091 C 
ENDROOT
BRANCH   1   7
ATOM      7  O   LIG d   1      -0.311  80.064 114.377  0.00  0.00    -0.368 OA
BRANCH   7   8
ATOM      8  C   LIG d   1      -0.751  78.850 115.034  0.00  0.00     0.119 C 
BRANCH   8   9
ATOM      9  C   LIG d   1      -1.784  79.250 116.104  0.00  0.00     0.028 C 
ATOM     10  C   LIG d   1      -3.062  78.398 116.034  0.00  0.00     0.006 C 
ENDBRANCH   8   9
BRANCH   8  11
ATOM     11  C   LIG d   1       0.395  78.187 115.804  0.00  0.00     0.028 C 
ATOM     12  C   LIG d   1       0.430  76.661 115.625  0.00  0.00     0.006 C 
ENDBRANCH   8  11
ENDBRANCH   7   8
ENDBRANCH   1   7
BRANCH   6  13
ATOM     13  N   LIG d   1       0.487  82.301 112.522  0.00  0.00    -0.311 N 
ATOM     14  C   LIG d   1      -0.437  83.160 112.095  0.00  0.00     0.210 C 
ATOM     15  C   LIG d   1      -0.222  84.612 112.533  0.00  0.00     0.109 C 
ATOM     16  O   LIG d   1      -1.432  82.852 111.422  0.00  0.00    -0.276 OA
ATOM     17  H   LIG d   1       1.242  82.632 113.090  0.00  0.00     0.149 HD
ENDBRANCH   6  13
BRANCH   5  18
ATOM     18  N   LIG d   1       1.474  81.098 109.893  0.00  0.00     0.381 N 
ATOM     19  H   LIG d   1       2.003  80.329 109.533  0.00  0.00    -0.090 HD
ATOM     20  H   LIG d   1       2.070  81.635 110.498  0.00  0.00    -0.090 HD
ATOM     21  H   LIG d   1       1.150  81.668 109.143  0.00  0.00    -0.090 HD
ENDBRANCH   5  18
BRANCH   3  22
ATOM     22  C   LIG d   1      -1.369  77.333 110.720  0.00  0.00     0.382 C 
ATOM     23  O   LIG d   1      -2.621  77.288 110.656  0.00  0.00    -0.241 OA
ATOM     24  O   LIG d   1      -0.701  76.342 110.369  0.00  0.00    -0.241 OA
ENDBRANCH   3  22
TORSDOF 7
ENDMDL
MODEL 6
REMARK VINA RESULT:      -4.8      1.995      2.660
REMARK  7 active torsions:
REMARK  status: ('A' for Active; 'I' for Inactive)
REMARK    1  A    between atoms: C_2  and  C_3 
REMARK    2  A    between atoms: C_3  and  O_6 
REMARK    3  A    between atoms: C_3  and  C_4 
REMARK    4  A    between atoms: C_7  and  O_6 
REMARK    5  A    between atoms: C_9  and  C_10 
REMARK    6  A    between atoms: N_15  and  C_14 
REMARK    7  A    between atoms: N_20  and  C_19 
REMARK       I    between atoms: C_22  and  N_20 
ROOT
ATOM      1  C   LIG d   1       0.546  80.186 111.774  0.00  0.00     0.161 C 
ATOM      2  C   LIG d   1      -0.507  79.412 111.257  0.00  0.00     0.016 C 
ATOM      3  C   LIG d   1      -1.478  78.780 112.066  0.00  0.00     0.038 C 
ATOM      4  C   LIG d   1      -1.551  79.005 113.449  0.00  0.00     0.028 C 
ATOM      5  C   LIG d   1      -0.209  79.371 114.075  0.00  0.00    -0.047 C 
ATOM      6  C   LIG d   1       0.418  80.533 113.272  0.00  0.00     0.091 C 
ENDROOT
BRANCH   1   7
ATOM      7  O   LIG d   1       0.699  81.387 110.992  0.00  0.00    -0.368 OA
BRANCH   7   8
ATOM      8  C   LIG d   1       2.016  81.621 110.434  0.00  0.00     0.119 C 
BRANCH   8   9
ATOM      9  C   LIG d   1       1.894  82.784 109.431  0.00  0.00     0.028 C 
ATOM     10  C   LIG d   1       2.826  83.957 109.777  0.00  0.00     0.006 C 
ENDBRANCH   8   9
BRANCH   8  11
ATOM     11  C   LIG d   1       2.492  80.422 109.608  0.00  0.00     0.028 C 
ATOM     12  C   LIG d   1       4.019  80.384 109.438  0.00  0.00     0.006 C 
ENDBRANCH   8  11
ENDBRANCH   7   8
ENDBRANCH   1   7
BRANCH   6  13
ATOM     13  N   LIG d   1       1.772  80.898 113.766  0.00  0.00    -0.311 N 
ATOM     14  C   LIG d   1       2.135  82.146 114.055  0.00  0.00     0.210 C 
ATOM     15  C   LIG d   1       3.583  82.305 114.530  0.00  0.00     0.109 C 
ATOM     16  O   LIG d   1       1.386  83.133 113.993  0.00  0.00    -0.276 OA
ATOM     17  H   LIG d   1       2.433  80.154 113.875  0.00  0.00     0.149 HD
ENDBRANCH   6  13
BRANCH   5  18
ATOM     18  N   LIG d   1      -0.455  79.712 115.489  0.00  0.00     0.381 N 
ATOM     19  H   LIG d   1      -1.285  79.254 115.808  0.00  0.00    -0.090 HD
ATOM     20  H   LIG d   1      -0.593  80.704 115.565  0.00  0.00    -0.090 HD
ATOM     21  H   LIG d   1       0.322  79.433 116.047  0.00  0.00    -0.090 HD
ENDBRANCH   5  18
BRANCH   3  22
ATOM     22  C   LIG d   1      -2.367  77.880 111.498  0.00  0.00     0.382 C 
ATOM     23  O   LIG d   1      -2.477  77.812 110.250  0.00  0.00    -0.241 OA
ATOM     24  O   LIG d   1      -3.091  77.167 112.218  0.00  0.00    -0.241 OA
ENDBRANCH   3  22
TORSDOF 7
ENDMDL
MODEL 7
REMARK VINA RESULT:      -4.7      3.112      5.279
REMARK  7 active torsions:
REMARK  status: ('A' for Active; 'I' for Inactive)
REMARK    1  A    between atoms: C_2  and  C_3 
REMARK    2  A    between atoms: C_3  and  O_6 
REMARK    3  A    between atoms: C_3  and  C_4 
REMARK    4  A    between atoms: C_7  and  O_6 
REMARK    5  A    between atoms: C_9  and  C_10 
REMARK    6  A    between atoms: N_15  and  C_14 
REMARK    7  A    between atoms: N_20  and  C_19 
REMARK       I    between atoms: C_22  and  N_20 
ROOT
ATOM      1  C   LIG d   1       1.829  81.303 113.268  0.00  0.00     0.161 C 
ATOM      2  C   LIG d   1       3.109  81.593 112.766  0.00  0.00     0.016 C 
ATOM      3  C   LIG d   1       3.396  81.705 111.387  0.00  0.00     0.038 C 
ATOM      4  C   LIG d   1       2.385  81.685 110.414  0.00  0.00     0.028 C 
ATOM      5  C   LIG d   1       1.153  80.893 110.838  0.00  0.00    -0.047 C 
ATOM      6  C   LIG d   1       0.692  81.388 112.228  0.00  0.00     0.091 C 
ENDROOT
BRANCH   1   7
ATOM      7  O   LIG d   1       1.541  82.155 114.395  0.00  0.00    -0.368 OA
BRANCH   7   8
ATOM      8  C   LIG d   1       2.581  82.256 115.399  0.00  0.00     0.119 C 
BRANCH   8   9
ATOM      9  C   LIG d   1       2.090  81.504 116.651  0.00  0.00     0.028 C 
ATOM     10  C   LIG d   1       2.923  81.837 117.900  0.00  0.00     0.006 C 
ENDBRANCH   8   9
BRANCH   8  11
ATOM     11  C   LIG d   1       2.781  83.706 115.850  0.00  0.00     0.028 C 
ATOM     12  C   LIG d   1       1.800  84.680 115.177  0.00  0.00     0.006 C 
ENDBRANCH   8  11
ENDBRANCH   7   8
ENDBRANCH   1   7
BRANCH   6  13
ATOM     13  N   LIG d   1      -0.458  80.608 112.755  0.00  0.00    -0.311 N 
ATOM     14  C   LIG d   1      -1.724  81.008 112.651  0.00  0.00     0.210 C 
ATOM     15  C   LIG d   1      -2.754  80.064 113.279  0.00  0.00     0.109 C 
ATOM     16  O   LIG d   1      -2.095  82.039 112.071  0.00  0.00    -0.276 OA
ATOM     17  H   LIG d   1      -0.251  79.742 113.213  0.00  0.00     0.149 HD
ENDBRANCH   6  13
BRANCH   5  18
ATOM     18  N   LIG d   1       0.128  81.069 109.792  0.00  0.00     0.381 N 
ATOM     19  H   LIG d   1       0.239  81.963 109.357  0.00  0.00    -0.090 HD
ATOM     20  H   LIG d   1      -0.781  81.037 110.219  0.00  0.00    -0.090 HD
ATOM     21  H   LIG d   1       0.209  80.347 109.110  0.00  0.00    -0.090 HD
ENDBRANCH   5  18
BRANCH   3  22
ATOM     22  C   LIG d   1       4.714  81.800 110.965  0.00  0.00     0.382 C 
ATOM     23  O   LIG d   1       5.549  82.433 111.656  0.00  0.00    -0.241 OA
ATOM     24  O   LIG d   1       5.068  81.300 109.881  0.00  0.00    -0.241 OA
ENDBRANCH   3  22
TORSDOF 7
ENDMDL
MODEL 8
REMARK VINA RESULT:      -4.6      2.525      3.975
REMARK  7 active torsions:
REMARK  status: ('A' for Active; 'I' for Inactive)
REMARK    1  A    between atoms: C_2  and  C_3 
REMARK    2  A    between atoms: C_3  and  O_6 
REMARK    3  A    between atoms: C_3  and  C_4 
REMARK    4  A    between atoms: C_7  and  O_6 
REMARK    5  A    between atoms: C_9  and  C_10 
REMARK    6  A    between atoms: N_15  and  C_14 
REMARK    7  A    between atoms: N_20  and  C_19 
REMARK       I    between atoms: C_22  and  N_20 
ROOT
ATOM      1  C   LIG d   1      -0.016  81.369 112.024  0.00  0.00     0.161 C 
ATOM      2  C   LIG d   1      -1.072  80.534 112.426  0.00  0.00     0.016 C 
ATOM      3  C   LIG d   1      -1.293  79.245 111.887  0.00  0.00     0.038 C 
ATOM      4  C   LIG d   1      -0.378  78.641 111.013  0.00  0.00     0.028 C 
ATOM      5  C   LIG d   1       0.431  79.642 110.195  0.00  0.00    -0.047 C 
ATOM      6  C   LIG d   1       1.056  80.683 111.152  0.00  0.00     0.091 C 
ENDROOT
BRANCH   1   7
ATOM      7  O   LIG d   1       0.593  81.978 113.180  0.00  0.00    -0.368 OA
BRANCH   7   8
ATOM      8  C   LIG d   1       1.821  81.368 113.649  0.00  0.00     0.119 C 
BRANCH   8   9
ATOM      9  C   LIG d   1       1.617  80.998 115.131  0.00  0.00     0.028 C 
ATOM     10  C   LIG d   1       0.772  79.725 115.308  0.00  0.00     0.006 C 
ENDBRANCH   8   9
BRANCH   8  11
ATOM     11  C   LIG d   1       2.980  82.368 113.636  0.00  0.00     0.028 C 
ATOM     12  C   LIG d   1       4.341  81.707 113.903  0.00  0.00     0.006 C 
ENDBRANCH   8  11
ENDBRANCH   7   8
ENDBRANCH   1   7
BRANCH   6  13
ATOM     13  N   LIG d   1       1.795  81.748 110.426  0.00  0.00    -0.311 N 
ATOM     14  C   LIG d   1       3.102  81.693 110.175  0.00  0.00     0.210 C 
ATOM     15  C   LIG d   1       3.669  82.906 109.431  0.00  0.00     0.109 C 
ATOM     16  O   LIG d   1       3.839  80.740 110.469  0.00  0.00    -0.276 OA
ATOM     17  H   LIG d   1       1.268  82.544 110.124  0.00  0.00     0.149 HD
ENDBRANCH   6  13
BRANCH   5  18
ATOM     18  N   LIG d   1       1.438  78.882 109.430  0.00  0.00     0.381 N 
ATOM     19  H   LIG d   1       2.144  79.504 109.089  0.00  0.00    -0.090 HD
ATOM     20  H   LIG d   1       0.989  78.451 108.641  0.00  0.00    -0.090 HD
ATOM     21  H   LIG d   1       1.851  78.184 110.009  0.00  0.00    -0.090 HD
ENDBRANCH   5  18
BRANCH   3  22
ATOM     22  C   LIG d   1      -2.461  78.564 112.193  0.00  0.00     0.382 C 
ATOM     23  O   LIG d   1      -2.864  77.642 111.444  0.00  0.00    -0.241 OA
ATOM     24  O   LIG d   1      -3.141  78.889 113.185  0.00  0.00    -0.241 OA
ENDBRANCH   3  22
TORSDOF 7
ENDMDL
MODEL 9
REMARK VINA RESULT:      -4.5      4.353      5.822
REMARK  7 active torsions:
REMARK  status: ('A' for Active; 'I' for Inactive)
REMARK    1  A    between atoms: C_2  and  C_3 
REMARK    2  A    between atoms: C_3  and  O_6 
REMARK    3  A    between atoms: C_3  and  C_4 
REMARK    4  A    between atoms: C_7  and  O_6 
REMARK    5  A    between atoms: C_9  and  C_10 
REMARK    6  A    between atoms: N_15  and  C_14 
REMARK    7  A    between atoms: N_20  and  C_19 
REMARK       I    between atoms: C_22  and  N_20 
ROOT
ATOM      1  C   LIG d   1      -1.338  78.229 114.613  0.00  0.00     0.161 C 
ATOM      2  C   LIG d   1      -2.043  77.123 115.114  0.00  0.00     0.016 C 
ATOM      3  C   LIG d   1      -1.574  76.318 116.178  0.00  0.00     0.038 C 
ATOM      4  C   LIG d   1      -0.432  76.659 116.917  0.00  0.00     0.028 C 
ATOM      5  C   LIG d   1       0.580  77.479 116.125  0.00  0.00    -0.047 C 
ATOM      6  C   LIG d   1      -0.145  78.683 115.480  0.00  0.00     0.091 C 
ENDROOT
BRANCH   1   7
ATOM      7  O   LIG d   1      -2.245  79.328 114.394  0.00  0.00    -0.368 OA
BRANCH   7   8
ATOM      8  C   LIG d   1      -2.691  79.526 113.030  0.00  0.00     0.119 C 
BRANCH   8   9
ATOM      9  C   LIG d   1      -1.620  78.922 112.101  0.00  0.00     0.028 C 
ATOM     10  C   LIG d   1      -2.227  78.017 111.016  0.00  0.00     0.006 C 
ENDBRANCH   8   9
BRANCH   8  11
ATOM     11  C   LIG d   1      -2.746  81.014 112.672  0.00  0.00     0.028 C 
ATOM     12  C   LIG d   1      -1.366  81.593 112.320  0.00  0.00     0.006 C 
ENDBRANCH   8  11
ENDBRANCH   7   8
ENDBRANCH   1   7
BRANCH   6  13
ATOM     13  N   LIG d   1       0.757  79.491 114.617  0.00  0.00    -0.311 N 
ATOM     14  C   LIG d   1       1.380  80.591 115.036  0.00  0.00     0.210 C 
ATOM     15  C   LIG d   1       2.247  81.285 113.981  0.00  0.00     0.109 C 
ATOM     16  O   LIG d   1       1.323  81.040 116.191  0.00  0.00    -0.276 OA
ATOM     17  H   LIG d   1       0.885  79.181 113.674  0.00  0.00     0.149 HD
ENDBRANCH   6  13
BRANCH   5  18
ATOM     18  N   LIG d   1       1.653  77.881 117.055  0.00  0.00     0.381 N 
ATOM     19  H   LIG d   1       2.411  78.285 116.542  0.00  0.00    -0.090 HD
ATOM     20  H   LIG d   1       1.993  77.065 117.531  0.00  0.00    -0.090 HD
ATOM     21  H   LIG d   1       1.302  78.539 117.716  0.00  0.00    -0.090 HD
ENDBRANCH   5  18
BRANCH   3  22
ATOM     22  C   LIG d   1      -2.230  75.136 116.485  0.00  0.00     0.382 C 
ATOM     23  O   LIG d   1      -1.595  74.182 116.999  0.00  0.00    -0.241 OA
ATOM     24  O   LIG d   1      -3.437  74.994 116.215  0.00  0.00    -0.241 OA
ENDBRANCH   3  22
TORSDOF 7
ENDMDL
