MODEL 1
REMARK VINA RESULT:      -5.4      0.000      0.000
REMARK  7 active torsions:
REMARK  status: ('A' for Active; 'I' for Inactive)
REMARK    1  A    between atoms: C_2  and  C_3 
REMARK    2  A    between atoms: C_3  and  O_6 
REMARK    3  A    between atoms: C_3  and  C_4 
REMARK    4  A    between atoms: C_7  and  O_6 
REMARK    5  A    between atoms: C_9  and  C_10 
REMARK    6  A    between atoms: N_15  and  C_14 
REMARK    7  A    between atoms: N_20  and  C_19 
REMARK       I    between atoms: C_22  and  N_20 
ROOT
ATOM      1  C   LIG d   1       0.354  80.266 111.324  0.00  0.00     0.161 C 
ATOM      2  C   LIG d   1      -0.823  79.560 111.026  0.00  0.00     0.016 C 
ATOM      3  C   LIG d   1      -1.692  79.042 112.014  0.00  0.00     0.038 C 
ATOM      4  C   LIG d   1      -1.521  79.330 113.376  0.00  0.00     0.028 C 
ATOM      5  C   LIG d   1      -0.071  79.612 113.758  0.00  0.00    -0.047 C 
ATOM      6  C   LIG d   1       0.499  80.686 112.802  0.00  0.00     0.091 C 
ENDROOT
BRANCH   1   7
ATOM      7  O   LIG d   1       0.464  81.418 110.464  0.00  0.00    -0.368 OA
BRANCH   7   8
ATOM      8  C   LIG d   1       1.477  81.346 109.431  0.00  0.00     0.119 C 
BRANCH   8   9
ATOM      9  C   LIG d   1       2.381  80.140 109.752  0.00  0.00     0.028 C 
ATOM     10  C   LIG d   1       3.861  80.536 109.891  0.00  0.00     0.006 C 
ENDBRANCH   8   9
BRANCH   8  11
ATOM     11  C   LIG d   1       2.401  82.568 109.472  0.00  0.00     0.028 C 
ATOM     12  C   LIG d   1       1.632  83.898 109.430  0.00  0.00     0.006 C 
ENDBRANCH   8  11
ENDBRANCH   7   8
ENDBRANCH   1   7
BRANCH   6  13
ATOM     13  N   LIG d   1       1.938  80.960 113.053  0.00  0.00    -0.311 N 
ATOM     14  C   LIG d   1       2.455  82.187 113.087  0.00  0.00     0.210 C 
ATOM     15  C   LIG d   1       3.965  82.246 113.340  0.00  0.00     0.109 C 
ATOM     16  O   LIG d   1       1.801  83.234 112.964  0.00  0.00    -0.276 OA
ATOM     17  H   LIG d   1       2.535  80.169 113.194  0.00  0.00     0.149 HD
ENDBRANCH   6  13
BRANCH   5  18
ATOM     18  N   LIG d   1      -0.057  80.031 115.172  0.00  0.00     0.381 N 
ATOM     19  H   LIG d   1       0.841  80.407 115.405  0.00  0.00    -0.090 HD
ATOM     20  H   LIG d   1      -0.221  79.226 115.751  0.00  0.00    -0.090 HD
ATOM     21  H   LIG d   1      -0.763  80.715 115.333  0.00  0.00    -0.090 HD
ENDBRANCH   5  18
BRANCH   3  22
ATOM     22  C   LIG d   1      -2.725  78.194 111.645  0.00  0.00     0.382 C 
ATOM     23  O   LIG d   1      -3.431  77.646 112.525  0.00  0.00    -0.241 OA
ATOM     24  O   LIG d   1      -2.932  77.936 110.444  0.00  0.00    -0.241 OA
ENDBRANCH   3  22
TORSDOF 7
ENDMDL
MODEL 2
REMARK VINA RESULT:      -5.1      2.572      5.742
REMARK  7 active torsions:
REMARK  status: ('A' for Active; 'I' for Inactive)
REMARK    1  A    between atoms: C_2  and  C_3 
REMARK    2  A    between atoms: C_3  and  O_6 
REMARK    3  A    between atoms: C_3  and  C_4 
REMARK    4  A    between atoms: C_7  and  O_6 
REMARK    5  A    between atoms: C_9  and  C_10 
REMARK    6  A    between atoms: N_15  and  C_14 
REMARK    7  A    between atoms: N_20  and  C_19 
REMARK       I    between atoms: C_22  and  N_20 
ROOT
ATOM      1  C   LIG d   1       2.023  81.051 112.792  0.00  0.00     0.161 C 
ATOM      2  C   LIG d   1       3.203  81.293 112.070  0.00  0.00     0.016 C 
ATOM      3  C   LIG d   1       3.217  81.698 110.715  0.00  0.00     0.038 C 
ATOM      4  C   LIG d   1       2.040  82.037 110.031  0.00  0.00     0.028 C 
ATOM      5  C   LIG d   1       0.802  81.323 110.564  0.00  0.00    -0.047 C 
ATOM      6  C   LIG d   1       0.729  81.522 112.095  0.00  0.00     0.091 C 
ENDROOT
BRANCH   1   7
ATOM      7  O   LIG d   1       2.125  81.635 114.106  0.00  0.00    -0.368 OA
BRANCH   7   8
ATOM      8  C   LIG d   1       3.467  81.808 114.624  0.00  0.00     0.119 C 
BRANCH   8   9
ATOM      9  C   LIG d   1       3.649  80.807 115.782  0.00  0.00     0.028 C 
ATOM     10  C   LIG d   1       2.323  80.481 116.488  0.00  0.00     0.006 C 
ENDBRANCH   8   9
BRANCH   8  11
ATOM     11  C   LIG d   1       3.648  83.193 115.252  0.00  0.00     0.028 C 
ATOM     12  C   LIG d   1       3.914  84.290 114.210  0.00  0.00     0.006 C 
ENDBRANCH   8  11
ENDBRANCH   7   8
ENDBRANCH   1   7
BRANCH   6  13
ATOM     13  N   LIG d   1      -0.406  80.786 112.709  0.00  0.00    -0.311 N 
ATOM     14  C   LIG d   1      -1.628  81.300 112.841  0.00  0.00     0.210 C 
ATOM     15  C   LIG d   1      -2.647  80.380 113.519  0.00  0.00     0.109 C 
ATOM     16  O   LIG d   1      -1.972  82.419 112.431  0.00  0.00    -0.276 OA
ATOM     17  H   LIG d   1      -0.223  79.859 113.041  0.00  0.00     0.149 HD
ENDBRANCH   6  13
BRANCH   5  18
ATOM     18  N   LIG d   1      -0.369  81.871 109.853  0.00  0.00     0.381 N 
ATOM     19  H   LIG d   1      -1.118  82.020 110.500  0.00  0.00    -0.090 HD
ATOM     20  H   LIG d   1      -0.673  81.204 109.166  0.00  0.00    -0.090 HD
ATOM     21  H   LIG d   1      -0.127  82.730 109.410  0.00  0.00    -0.090 HD
ENDBRANCH   5  18
BRANCH   3  22
ATOM     22  C   LIG d   1       4.416  81.729 110.020  0.00  0.00     0.382 C 
ATOM     23  O   LIG d   1       4.825  82.807 109.524  0.00  0.00    -0.241 OA
ATOM     24  O   LIG d   1       5.071  80.685 109.843  0.00  0.00    -0.241 OA
ENDBRANCH   3  22
TORSDOF 7
ENDMDL
MODEL 3
REMARK VINA RESULT:      -4.9      2.701      6.080
REMARK  7 active torsions:
REMARK  status: ('A' for Active; 'I' for Inactive)
REMARK    1  A    between atoms: C_2  and  C_3 
REMARK    2  A    between atoms: C_3  and  O_6 
REMARK    3  A    between atoms: C_3  and  C_4 
REMARK    4  A    between atoms: C_7  and  O_6 
REMARK    5  A    between atoms: C_9  and  C_10 
REMARK    6  A    between atoms: N_15  and  C_14 
REMARK    7  A    between atoms: N_20  and  C_19 
REMARK       I    between atoms: C_22  and  N_20 
ROOT
ATOM      1  C   LIG d   1       1.982  80.988 112.941  0.00  0.00     0.161 C 
ATOM      2  C   LIG d   1       3.222  81.189 112.313  0.00  0.00     0.016 C 
ATOM      3  C   LIG d   1       3.355  81.612 110.970  0.00  0.00     0.038 C 
ATOM      4  C   LIG d   1       2.248  82.011 110.206  0.00  0.00     0.028 C 
ATOM      5  C   LIG d   1       0.945  81.344 110.633  0.00  0.00    -0.047 C 
ATOM      6  C   LIG d   1       0.765  81.525 112.158  0.00  0.00     0.091 C 
ENDROOT
BRANCH   1   7
ATOM      7  O   LIG d   1       2.010  81.549 114.269  0.00  0.00    -0.368 OA
BRANCH   7   8
ATOM      8  C   LIG d   1       2.575  80.708 115.304  0.00  0.00     0.119 C 
BRANCH   8   9
ATOM      9  C   LIG d   1       1.477  80.470 116.359  0.00  0.00     0.028 C 
ATOM     10  C   LIG d   1       0.415  79.464 115.884  0.00  0.00     0.006 C 
ENDBRANCH   8   9
BRANCH   8  11
ATOM     11  C   LIG d   1       3.705  81.425 116.049  0.00  0.00     0.028 C 
ATOM     12  C   LIG d   1       4.035  80.773 117.401  0.00  0.00     0.006 C 
ENDBRANCH   8  11
ENDBRANCH   7   8
ENDBRANCH   1   7
BRANCH   6  13
ATOM     13  N   LIG d   1      -0.443  80.830 112.672  0.00  0.00    -0.311 N 
ATOM     14  C   LIG d   1      -1.642  81.404 112.749  0.00  0.00     0.210 C 
ATOM     15  C   LIG d   1      -2.749  80.517 113.329  0.00  0.00     0.109 C 
ATOM     16  O   LIG d   1      -1.902  82.554 112.363  0.00  0.00    -0.276 OA
ATOM     17  H   LIG d   1      -0.330  79.883 112.978  0.00  0.00     0.149 HD
ENDBRANCH   6  13
BRANCH   5  18
ATOM     18  N   LIG d   1      -0.145  81.952 109.847  0.00  0.00     0.381 N 
ATOM     19  H   LIG d   1      -0.337  82.873 110.189  0.00  0.00    -0.090 HD
ATOM     20  H   LIG d   1      -0.975  81.396 109.957  0.00  0.00    -0.090 HD
ATOM     21  H   LIG d   1       0.111  81.994 108.885  0.00  0.00    -0.090 HD
ENDBRANCH   5  18
BRANCH   3  22
ATOM     22  C   LIG d   1       4.603  81.601 110.367  0.00  0.00     0.382 C 
ATOM     23  O   LIG d   1       5.323  82.628 110.397  0.00  0.00    -0.241 OA
ATOM     24  O   LIG d   1       4.999  80.592 109.754  0.00  0.00    -0.241 OA
ENDBRANCH   3  22
TORSDOF 7
ENDMDL
MODEL 4
REMARK VINA RESULT:      -4.7      4.200      6.725
REMARK  7 active torsions:
REMARK  status: ('A' for Active; 'I' for Inactive)
REMARK    1  A    between atoms: C_2  and  C_3 
REMARK    2  A    between atoms: C_3  and  O_6 
REMARK    3  A    between atoms: C_3  and  C_4 
REMARK    4  A    between atoms: C_7  and  O_6 
REMARK    5  A    between atoms: C_9  and  C_10 
REMARK    6  A    between atoms: N_15  and  C_14 
REMARK    7  A    between atoms: N_20  and  C_19 
REMARK       I    between atoms: C_22  and  N_20 
ROOT
ATOM      1  C   LIG d   1      -1.899  77.249 115.940  0.00  0.00     0.161 C 
ATOM      2  C   LIG d   1      -2.424  77.353 114.641  0.00  0.00     0.016 C 
ATOM      3  C   LIG d   1      -1.898  78.220 113.655  0.00  0.00     0.038 C 
ATOM      4  C   LIG d   1      -0.709  78.936 113.857  0.00  0.00     0.028 C 
ATOM      5  C   LIG d   1      -0.431  79.248 115.324  0.00  0.00    -0.047 C 
ATOM      6  C   LIG d   1      -0.535  77.941 116.143  0.00  0.00     0.091 C 
ENDROOT
BRANCH   1   7
ATOM      7  O   LIG d   1      -1.821  75.863 116.326  0.00  0.00    -0.368 OA
BRANCH   7   8
ATOM      8  C   LIG d   1      -0.498  75.272 116.313  0.00  0.00     0.119 C 
BRANCH   8   9
ATOM      9  C   LIG d   1      -0.469  74.227 115.181  0.00  0.00     0.028 C 
ATOM     10  C   LIG d   1       0.304  74.720 113.946  0.00  0.00     0.006 C 
ENDBRANCH   8   9
BRANCH   8  11
ATOM     11  C   LIG d   1      -0.227  74.484 117.599  0.00  0.00     0.028 C 
ATOM     12  C   LIG d   1      -1.508  74.180 118.392  0.00  0.00     0.006 C 
ENDBRANCH   8  11
ENDBRANCH   7   8
ENDBRANCH   1   7
BRANCH   6  13
ATOM     13  N   LIG d   1      -0.359  78.170 117.600  0.00  0.00    -0.311 N 
ATOM     14  C   LIG d   1       0.810  78.048 118.226  0.00  0.00     0.210 C 
ATOM     15  C   LIG d   1       0.767  78.309 119.735  0.00  0.00     0.109 C 
ATOM     16  O   LIG d   1       1.886  77.780 117.670  0.00  0.00    -0.276 OA
ATOM     17  H   LIG d   1      -1.175  78.422 118.124  0.00  0.00     0.149 HD
ENDBRANCH   6  13
BRANCH   5  18
ATOM     18  N   LIG d   1       0.903  79.874 115.401  0.00  0.00     0.381 N 
ATOM     19  H   LIG d   1       1.516  79.447 114.736  0.00  0.00    -0.090 HD
ATOM     20  H   LIG d   1       1.280  79.723 116.320  0.00  0.00    -0.090 HD
ATOM     21  H   LIG d   1       0.832  80.851 115.220  0.00  0.00    -0.090 HD
ENDBRANCH   5  18
BRANCH   3  22
ATOM     22  C   LIG d   1      -2.586  78.406 112.466  0.00  0.00     0.382 C 
ATOM     23  O   LIG d   1      -3.440  77.565 112.097  0.00  0.00    -0.241 OA
ATOM     24  O   LIG d   1      -2.332  79.383 111.736  0.00  0.00    -0.241 OA
ENDBRANCH   3  22
TORSDOF 7
ENDMDL
MODEL 5
REMARK VINA RESULT:      -4.6      2.170      4.733
REMARK  7 active torsions:
REMARK  status: ('A' for Active; 'I' for Inactive)
REMARK    1  A    between atoms: C_2  and  C_3 
REMARK    2  A    between atoms: C_3  and  O_6 
REMARK    3  A    between atoms: C_3  and  C_4 
REMARK    4  A    between atoms: C_7  and  O_6 
REMARK    5  A    between atoms: C_9  and  C_10 
REMARK    6  A    between atoms: N_15  and  C_14 
REMARK    7  A    between atoms: N_20  and  C_19 
REMARK       I    between atoms: C_22  and  N_20 
ROOT
ATOM      1  C   LIG d   1      -0.459  80.241 113.329  0.00  0.00     0.161 C 
ATOM      2  C   LIG d   1      -1.453  79.305 113.003  0.00  0.00     0.016 C 
ATOM      3  C   LIG d   1      -1.679  78.835 111.689  0.00  0.00     0.038 C 
ATOM      4  C   LIG d   1      -0.820  79.159 110.628  0.00  0.00     0.028 C 
ATOM      5  C   LIG d   1      -0.109  80.496 110.811  0.00  0.00    -0.047 C 
ATOM      6  C   LIG d   1       0.560  80.522 112.204  0.00  0.00     0.091 C 
ENDROOT
BRANCH   1   7
ATOM      7  O   LIG d   1       0.223  79.831 114.531  0.00  0.00    -0.368 OA
BRANCH   7   8
ATOM      8  C   LIG d   1      -0.575  79.111 115.503  0.00  0.00     0.119 C 
BRANCH   8   9
ATOM      9  C   LIG d   1      -0.442  79.849 116.849  0.00  0.00     0.028 C 
ATOM     10  C   LIG d   1      -1.417  79.312 117.911  0.00  0.00     0.006 C 
ENDBRANCH   8   9
BRANCH   8  11
ATOM     11  C   LIG d   1      -0.016  77.708 115.753  0.00  0.00     0.028 C 
ATOM     12  C   LIG d   1      -0.813  76.611 115.029  0.00  0.00     0.006 C 
ENDBRANCH   8  11
ENDBRANCH   7   8
ENDBRANCH   1   7
BRANCH   6  13
ATOM     13  N   LIG d   1       1.206  81.827 112.498  0.00  0.00    -0.311 N 
ATOM     14  C   LIG d   1       2.488  82.084 112.243  0.00  0.00     0.210 C 
ATOM     15  C   LIG d   1       2.958  83.486 112.642  0.00  0.00     0.109 C 
ATOM     16  O   LIG d   1       3.272  81.295 111.694  0.00  0.00    -0.276 OA
ATOM     17  H   LIG d   1       0.635  82.536 112.916  0.00  0.00     0.149 HD
ENDBRANCH   6  13
BRANCH   5  18
ATOM     18  N   LIG d   1       0.855  80.643 109.704  0.00  0.00     0.381 N 
ATOM     19  H   LIG d   1       1.588  81.267 109.974  0.00  0.00    -0.090 HD
ATOM     20  H   LIG d   1       0.381  81.038 108.911  0.00  0.00    -0.090 HD
ATOM     21  H   LIG d   1       1.236  79.755 109.464  0.00  0.00    -0.090 HD
ENDBRANCH   5  18
BRANCH   3  22
ATOM     22  C   LIG d   1      -2.799  78.063 111.418  0.00  0.00     0.382 C 
ATOM     23  O   LIG d   1      -3.440  77.536 112.359  0.00  0.00    -0.241 OA
ATOM     24  O   LIG d   1      -3.149  77.850 110.241  0.00  0.00    -0.241 OA
ENDBRANCH   3  22
TORSDOF 7
ENDMDL
MODEL 6
REMARK VINA RESULT:      -4.5      2.417      6.347
REMARK  7 active torsions:
REMARK  status: ('A' for Active; 'I' for Inactive)
REMARK    1  A    between atoms: C_2  and  C_3 
REMARK    2  A    between atoms: C_3  and  O_6 
REMARK    3  A    between atoms: C_3  and  C_4 
REMARK    4  A    between atoms: C_7  and  O_6 
REMARK    5  A    between atoms: C_9  and  C_10 
REMARK    6  A    between atoms: N_15  and  C_14 
REMARK    7  A    between atoms: N_20  and  C_19 
REMARK       I    between atoms: C_22  and  N_20 
ROOT
ATOM      1  C   LIG d   1       0.656  80.285 113.228  0.00  0.00     0.161 C 
ATOM      2  C   LIG d   1       1.822  81.064 113.317  0.00  0.00     0.016 C 
ATOM      3  C   LIG d   1       2.266  81.921 112.284  0.00  0.00     0.038 C 
ATOM      4  C   LIG d   1       1.488  82.173 111.144  0.00  0.00     0.028 C 
ATOM      5  C   LIG d   1       0.551  81.025 110.784  0.00  0.00    -0.047 C 
ATOM      6  C   LIG d   1      -0.263  80.630 112.038  0.00  0.00     0.091 C 
ENDROOT
BRANCH   1   7
ATOM      7  O   LIG d   1      -0.077  80.360 114.467  0.00  0.00    -0.368 OA
BRANCH   7   8
ATOM      8  C   LIG d   1       0.130  79.270 115.397  0.00  0.00     0.119 C 
BRANCH   8   9
ATOM      9  C   LIG d   1      -1.130  78.383 115.360  0.00  0.00     0.028 C 
ATOM     10  C   LIG d   1      -0.891  77.055 114.622  0.00  0.00     0.006 C 
ENDBRANCH   8   9
BRANCH   8  11
ATOM     11  C   LIG d   1       0.225  79.778 116.839  0.00  0.00     0.028 C 
ATOM     12  C   LIG d   1      -1.009  79.417 117.681  0.00  0.00     0.006 C 
ENDBRANCH   8  11
ENDBRANCH   7   8
ENDBRANCH   1   7
BRANCH   6  13
ATOM     13  N   LIG d   1      -1.145  79.459 111.796  0.00  0.00    -0.311 N 
ATOM     14  C   LIG d   1      -2.446  79.449 112.082  0.00  0.00     0.210 C 
ATOM     15  C   LIG d   1      -3.166  78.132 111.773  0.00  0.00     0.109 C 
ATOM     16  O   LIG d   1      -3.078  80.416 112.533  0.00  0.00    -0.276 OA
ATOM     17  H   LIG d   1      -0.720  78.642 111.404  0.00  0.00     0.149 HD
ENDBRANCH   6  13
BRANCH   5  18
ATOM     18  N   LIG d   1      -0.296  81.474 109.663  0.00  0.00     0.381 N 
ATOM     19  H   LIG d   1      -0.902  80.732 109.377  0.00  0.00    -0.090 HD
ATOM     20  H   LIG d   1       0.294  81.716 108.887  0.00  0.00    -0.090 HD
ATOM     21  H   LIG d   1      -0.835  82.265 109.939  0.00  0.00    -0.090 HD
ENDBRANCH   5  18
BRANCH   3  22
ATOM     22  C   LIG d   1       3.520  82.506 112.367  0.00  0.00     0.382 C 
ATOM     23  O   LIG d   1       3.871  83.361 111.518  0.00  0.00    -0.241 OA
ATOM     24  O   LIG d   1       4.322  82.158 113.255  0.00  0.00    -0.241 OA
ENDBRANCH   3  22
TORSDOF 7
ENDMDL
MODEL 7
REMARK VINA RESULT:      -4.1      3.330      5.805
REMARK  7 active torsions:
REMARK  status: ('A' for Active; 'I' for Inactive)
REMARK    1  A    between atoms: C_2  and  C_3 
REMARK    2  A    between atoms: C_3  and  O_6 
REMARK    3  A    between atoms: C_3  and  C_4 
REMARK    4  A    between atoms: C_7  and  O_6 
REMARK    5  A    between atoms: C_9  and  C_10 
REMARK    6  A    between atoms: N_15  and  C_14 
REMARK    7  A    between atoms: N_20  and  C_19 
REMARK       I    between atoms: C_22  and  N_20 
ROOT
ATOM      1  C   LIG d   1      -1.402  78.666 115.448  0.00  0.00     0.161 C 
ATOM      2  C   LIG d   1      -2.053  78.225 114.283  0.00  0.00     0.016 C 
ATOM      3  C   LIG d   1      -1.669  78.618 112.981  0.00  0.00     0.038 C 
ATOM      4  C   LIG d   1      -0.504  79.363 112.745  0.00  0.00     0.028 C 
ATOM      5  C   LIG d   1      -0.103  80.249 113.920  0.00  0.00    -0.047 C 
ATOM      6  C   LIG d   1      -0.062  79.390 115.204  0.00  0.00     0.091 C 
ENDROOT
BRANCH   1   7
ATOM      7  O   LIG d   1      -1.216  77.559 116.352  0.00  0.00    -0.368 OA
BRANCH   7   8
ATOM      8  C   LIG d   1      -0.001  76.789 116.177  0.00  0.00     0.119 C 
BRANCH   8   9
ATOM      9  C   LIG d   1      -0.400  75.421 115.591  0.00  0.00     0.028 C 
ATOM     10  C   LIG d   1      -0.638  74.363 116.682  0.00  0.00     0.006 C 
ENDBRANCH   8   9
BRANCH   8  11
ATOM     11  C   LIG d   1       0.660  76.478 117.522  0.00  0.00     0.028 C 
ATOM     12  C   LIG d   1       0.111  77.340 118.670  0.00  0.00     0.006 C 
ENDBRANCH   8  11
ENDBRANCH   7   8
ENDBRANCH   1   7
BRANCH   6  13
ATOM     13  N   LIG d   1       0.240  80.196 116.416  0.00  0.00    -0.311 N 
ATOM     14  C   LIG d   1       1.467  80.338 116.915  0.00  0.00     0.210 C 
ATOM     15  C   LIG d   1       1.554  81.195 118.182  0.00  0.00     0.109 C 
ATOM     16  O   LIG d   1       2.495  79.861 116.411  0.00  0.00    -0.276 OA
ATOM     17  H   LIG d   1      -0.532  80.644 116.870  0.00  0.00     0.149 HD
ENDBRANCH   6  13
BRANCH   5  18
ATOM     18  N   LIG d   1       1.198  80.862 113.592  0.00  0.00     0.381 N 
ATOM     19  H   LIG d   1       1.056  81.788 113.239  0.00  0.00    -0.090 HD
ATOM     20  H   LIG d   1       1.643  80.316 112.876  0.00  0.00    -0.090 HD
ATOM     21  H   LIG d   1       1.774  80.893 114.404  0.00  0.00    -0.090 HD
ENDBRANCH   5  18
BRANCH   3  22
ATOM     22  C   LIG d   1      -2.476  78.297 111.900  0.00  0.00     0.382 C 
ATOM     23  O   LIG d   1      -2.265  78.825 110.781  0.00  0.00    -0.241 OA
ATOM     24  O   LIG d   1      -3.440  77.521 112.040  0.00  0.00    -0.241 OA
ENDBRANCH   3  22
TORSDOF 7
ENDMDL
MODEL 8
REMARK VINA RESULT:      -3.9      3.318      4.661
REMARK  7 active torsions:
REMARK  status: ('A' for Active; 'I' for Inactive)
REMARK    1  A    between atoms: C_2  and  C_3 
REMARK    2  A    between atoms: C_3  and  O_6 
REMARK    3  A    between atoms: C_3  and  C_4 
REMARK    4  A    between atoms: C_7  and  O_6 
REMARK    5  A    between atoms: C_9  and  C_10 
REMARK    6  A    between atoms: N_15  and  C_14 
REMARK    7  A    between atoms: N_20  and  C_19 
REMARK       I    between atoms: C_22  and  N_20 
ROOT
ATOM      1  C   LIG d   1      -0.442  78.287 114.735  0.00  0.00     0.161 C 
ATOM      2  C   LIG d   1      -1.426  77.284 114.742  0.00  0.00     0.016 C 
ATOM      3  C   LIG d   1      -1.799  76.568 115.903  0.00  0.00     0.038 C 
ATOM      4  C   LIG d   1      -1.316  76.912 117.174  0.00  0.00     0.028 C 
ATOM      5  C   LIG d   1       0.054  77.581 117.140  0.00  0.00    -0.047 C 
ATOM      6  C   LIG d   1       0.017  78.753 116.133  0.00  0.00     0.091 C 
ENDROOT
BRANCH   1   7
ATOM      7  O   LIG d   1      -0.895  79.411 113.956  0.00  0.00    -0.368 OA
BRANCH   7   8
ATOM      8  C   LIG d   1      -1.546  79.096 112.700  0.00  0.00     0.119 C 
BRANCH   8   9
ATOM      9  C   LIG d   1      -0.592  79.519 111.566  0.00  0.00     0.028 C 
ATOM     10  C   LIG d   1      -0.955  78.866 110.221  0.00  0.00     0.006 C 
ENDBRANCH   8   9
BRANCH   8  11
ATOM     11  C   LIG d   1      -2.810  79.936 112.502  0.00  0.00     0.028 C 
ATOM     12  C   LIG d   1      -2.664  81.370 113.036  0.00  0.00     0.006 C 
ENDBRANCH   8  11
ENDBRANCH   7   8
ENDBRANCH   1   7
BRANCH   6  13
ATOM     13  N   LIG d   1       1.341  79.409 115.977  0.00  0.00    -0.311 N 
ATOM     14  C   LIG d   1       1.683  80.530 116.609  0.00  0.00     0.210 C 
ATOM     15  C   LIG d   1       3.089  81.049 116.291  0.00  0.00     0.109 C 
ATOM     16  O   LIG d   1       0.968  81.126 117.428  0.00  0.00    -0.276 OA
ATOM     17  H   LIG d   1       1.994  78.975 115.354  0.00  0.00     0.149 HD
ENDBRANCH   6  13
BRANCH   5  18
ATOM     18  N   LIG d   1       0.374  78.010 118.515  0.00  0.00     0.381 N 
ATOM     19  H   LIG d   1       0.554  78.994 118.529  0.00  0.00    -0.090 HD
ATOM     20  H   LIG d   1       1.205  77.534 118.819  0.00  0.00    -0.090 HD
ATOM     21  H   LIG d   1      -0.383  77.795 119.125  0.00  0.00    -0.090 HD
ENDBRANCH   5  18
BRANCH   3  22
ATOM     22  C   LIG d   1      -2.635  75.467 115.792  0.00  0.00     0.382 C 
ATOM     23  O   LIG d   1      -3.247  75.251 114.718  0.00  0.00    -0.241 OA
ATOM     24  O   LIG d   1      -2.818  74.713 116.766  0.00  0.00    -0.241 OA
ENDBRANCH   3  22
TORSDOF 7
ENDMDL
MODEL 9
REMARK VINA RESULT:      -3.9      5.275      7.791
REMARK  7 active torsions:
REMARK  status: ('A' for Active; 'I' for Inactive)
REMARK    1  A    between atoms: C_2  and  C_3 
REMARK    2  A    between atoms: C_3  and  O_6 
REMARK    3  A    between atoms: C_3  and  C_4 
REMARK    4  A    between atoms: C_7  and  O_6 
REMARK    5  A    between atoms: C_9  and  C_10 
REMARK    6  A    between atoms: N_15  and  C_14 
REMARK    7  A    between atoms: N_20  and  C_19 
REMARK       I    between atoms: C_22  and  N_20 
ROOT
ATOM      1  C   LIG d   1      -0.289  78.032 116.885  0.00  0.00     0.161 C 
ATOM      2  C   LIG d   1      -1.144  78.418 115.839  0.00  0.00     0.016 C 
ATOM      3  C   LIG d   1      -1.566  77.540 114.814  0.00  0.00     0.038 C 
ATOM      4  C   LIG d   1      -1.281  76.167 114.851  0.00  0.00     0.028 C 
ATOM      5  C   LIG d   1      -0.004  75.833 115.615  0.00  0.00    -0.047 C 
ATOM      6  C   LIG d   1      -0.058  76.511 117.003  0.00  0.00     0.091 C 
ENDROOT
BRANCH   1   7
ATOM      7  O   LIG d   1      -0.775  78.564 118.134  0.00  0.00    -0.368 OA
BRANCH   7   8
ATOM      8  C   LIG d   1      -2.187  78.883 118.184  0.00  0.00     0.119 C 
BRANCH   8   9
ATOM      9  C   LIG d   1      -2.359  80.072 119.149  0.00  0.00     0.028 C 
ATOM     10  C   LIG d   1      -1.048  80.848 119.364  0.00  0.00     0.006 C 
ENDBRANCH   8   9
BRANCH   8  11
ATOM     11  C   LIG d   1      -2.995  77.739 118.804  0.00  0.00     0.028 C 
ATOM     12  C   LIG d   1      -2.238  77.016 119.929  0.00  0.00     0.006 C 
ENDBRANCH   8  11
ENDBRANCH   7   8
ENDBRANCH   1   7
BRANCH   6  13
ATOM     13  N   LIG d   1       1.190  76.305 117.784  0.00  0.00    -0.311 N 
ATOM     14  C   LIG d   1       1.329  75.354 118.706  0.00  0.00     0.210 C 
ATOM     15  C   LIG d   1       2.691  75.329 119.407  0.00  0.00     0.109 C 
ATOM     16  O   LIG d   1       0.467  74.509 118.986  0.00  0.00    -0.276 OA
ATOM     17  H   LIG d   1       1.952  76.928 117.598  0.00  0.00     0.149 HD
ENDBRANCH   6  13
BRANCH   5  18
ATOM     18  N   LIG d   1       0.098  74.364 115.693  0.00  0.00     0.381 N 
ATOM     19  H   LIG d   1      -0.614  73.945 115.129  0.00  0.00    -0.090 HD
ATOM     20  H   LIG d   1      -0.045  74.078 116.646  0.00  0.00    -0.090 HD
ATOM     21  H   LIG d   1       0.996  74.067 115.381  0.00  0.00    -0.090 HD
ENDBRANCH   5  18
BRANCH   3  22
ATOM     22  C   LIG d   1      -2.248  78.042 113.717  0.00  0.00     0.382 C 
ATOM     23  O   LIG d   1      -2.081  77.526 112.585  0.00  0.00    -0.241 OA
ATOM     24  O   LIG d   1      -2.995  79.031 113.836  0.00  0.00    -0.241 OA
ENDBRANCH   3  22
TORSDOF 7
ENDMDL
