MODEL 1
REMARK VINA RESULT:      -4.7      0.000      0.000
REMARK  7 active torsions:
REMARK  status: ('A' for Active; 'I' for Inactive)
REMARK    1  A    between atoms: C_2  and  C_3 
REMARK    2  A    between atoms: C_3  and  O_6 
REMARK    3  A    between atoms: C_3  and  C_4 
REMARK    4  A    between atoms: C_7  and  O_6 
REMARK    5  A    between atoms: C_9  and  C_10 
REMARK    6  A    between atoms: N_15  and  C_14 
REMARK    7  A    between atoms: N_20  and  C_19 
REMARK       I    between atoms: C_22  and  N_20 
ROOT
ATOM      1  C   LIG d   1      -1.958  76.630 115.798  0.00  0.00     0.161 C 
ATOM      2  C   LIG d   1      -2.676  77.106 114.689  0.00  0.00     0.016 C 
ATOM      3  C   LIG d   1      -2.136  77.177 113.384  0.00  0.00     0.038 C 
ATOM      4  C   LIG d   1      -0.883  76.631 113.070  0.00  0.00     0.028 C 
ATOM      5  C   LIG d   1       0.078  76.598 114.254  0.00  0.00    -0.047 C 
ATOM      6  C   LIG d   1      -0.628  75.927 115.454  0.00  0.00     0.091 C 
ENDROOT
BRANCH   1   7
ATOM      7  O   LIG d   1      -2.795  75.760 116.586  0.00  0.00    -0.368 OA
BRANCH   7   8
ATOM      8  C   LIG d   1      -3.307  76.315 117.822  0.00  0.00     0.119 C 
BRANCH   8   9
ATOM      9  C   LIG d   1      -2.832  77.779 117.903  0.00  0.00     0.028 C 
ATOM     10  C   LIG d   1      -2.258  78.133 119.285  0.00  0.00     0.006 C 
ENDBRANCH   8   9
BRANCH   8  11
ATOM     11  C   LIG d   1      -2.693  75.621 119.041  0.00  0.00     0.028 C 
ATOM     12  C   LIG d   1      -2.248  74.180 118.745  0.00  0.00     0.006 C 
ENDBRANCH   8  11
ENDBRANCH   7   8
ENDBRANCH   1   7
BRANCH   6  13
ATOM     13  N   LIG d   1       0.213  75.929 116.680  0.00  0.00    -0.311 N 
ATOM     14  C   LIG d   1       0.694  77.039 117.236  0.00  0.00     0.210 C 
ATOM     15  C   LIG d   1       1.554  76.817 118.484  0.00  0.00     0.109 C 
ATOM     16  O   LIG d   1       0.464  78.190 116.833  0.00  0.00    -0.276 OA
ATOM     17  H   LIG d   1       0.422  75.041 117.091  0.00  0.00     0.149 HD
ENDBRANCH   6  13
BRANCH   5  18
ATOM     18  N   LIG d   1       1.293  75.882 113.822  0.00  0.00     0.381 N 
ATOM     19  H   LIG d   1       1.165  75.525 112.896  0.00  0.00    -0.090 HD
ATOM     20  H   LIG d   1       1.449  75.105 114.441  0.00  0.00    -0.090 HD
ATOM     21  H   LIG d   1       2.077  76.496 113.844  0.00  0.00    -0.090 HD
ENDBRANCH   5  18
BRANCH   3  22
ATOM     22  C   LIG d   1      -2.837  77.836 112.385  0.00  0.00     0.382 C 
ATOM     23  O   LIG d   1      -2.989  79.080 112.442  0.00  0.00    -0.241 OA
ATOM     24  O   LIG d   1      -3.358  77.196 111.452  0.00  0.00    -0.241 OA
ENDBRANCH   3  22
TORSDOF 7
ENDMDL
MODEL 2
REMARK VINA RESULT:      -4.5      1.855      4.734
REMARK  7 active torsions:
REMARK  status: ('A' for Active; 'I' for Inactive)
REMARK    1  A    between atoms: C_2  and  C_3 
REMARK    2  A    between atoms: C_3  and  O_6 
REMARK    3  A    between atoms: C_3  and  C_4 
REMARK    4  A    between atoms: C_7  and  O_6 
REMARK    5  A    between atoms: C_9  and  C_10 
REMARK    6  A    between atoms: N_15  and  C_14 
REMARK    7  A    between atoms: N_20  and  C_19 
REMARK       I    between atoms: C_22  and  N_20 
ROOT
ATOM      1  C   LIG d   1      -1.244  77.671 115.969  0.00  0.00     0.161 C 
ATOM      2  C   LIG d   1      -1.503  76.791 117.033  0.00  0.00     0.016 C 
ATOM      3  C   LIG d   1      -1.068  75.446 117.054  0.00  0.00     0.038 C 
ATOM      4  C   LIG d   1      -0.209  74.929 116.073  0.00  0.00     0.028 C 
ATOM      5  C   LIG d   1      -0.336  75.631 114.725  0.00  0.00    -0.047 C 
ATOM      6  C   LIG d   1      -0.214  77.157 114.941  0.00  0.00     0.091 C 
ENDROOT
BRANCH   1   7
ATOM      7  O   LIG d   1      -0.840  78.955 116.484  0.00  0.00    -0.368 OA
BRANCH   7   8
ATOM      8  C   LIG d   1      -0.041  78.935 117.692  0.00  0.00     0.119 C 
BRANCH   8   9
ATOM      9  C   LIG d   1      -0.502  80.112 118.572  0.00  0.00     0.028 C 
ATOM     10  C   LIG d   1      -1.854  79.841 119.253  0.00  0.00     0.006 C 
ENDBRANCH   8   9
BRANCH   8  11
ATOM     11  C   LIG d   1       1.435  79.209 117.388  0.00  0.00     0.028 C 
ATOM     12  C   LIG d   1       2.383  78.239 118.112  0.00  0.00     0.006 C 
ENDBRANCH   8  11
ENDBRANCH   7   8
ENDBRANCH   1   7
BRANCH   6  13
ATOM     13  N   LIG d   1      -0.411  77.925 113.684  0.00  0.00    -0.311 N 
ATOM     14  C   LIG d   1      -1.474  77.779 112.895  0.00  0.00     0.210 C 
ATOM     15  C   LIG d   1      -1.470  78.654 111.637  0.00  0.00     0.109 C 
ATOM     16  O   LIG d   1      -2.435  77.033 113.134  0.00  0.00    -0.276 OA
ATOM     17  H   LIG d   1       0.306  78.576 113.430  0.00  0.00     0.149 HD
ENDBRANCH   6  13
BRANCH   5  18
ATOM     18  N   LIG d   1       0.709  75.087 113.838  0.00  0.00     0.381 N 
ATOM     19  H   LIG d   1       0.763  75.634 113.002  0.00  0.00    -0.090 HD
ATOM     20  H   LIG d   1       0.463  74.146 113.585  0.00  0.00    -0.090 HD
ATOM     21  H   LIG d   1       1.589  75.094 114.305  0.00  0.00    -0.090 HD
ENDBRANCH   5  18
BRANCH   3  22
ATOM     22  C   LIG d   1      -1.527  74.591 118.045  0.00  0.00     0.382 C 
ATOM     23  O   LIG d   1      -0.743  74.190 118.939  0.00  0.00    -0.241 OA
ATOM     24  O   LIG d   1      -2.703  74.180 118.030  0.00  0.00    -0.241 OA
ENDBRANCH   3  22
TORSDOF 7
ENDMDL
MODEL 3
REMARK VINA RESULT:      -4.5      2.322      5.070
REMARK  7 active torsions:
REMARK  status: ('A' for Active; 'I' for Inactive)
REMARK    1  A    between atoms: C_2  and  C_3 
REMARK    2  A    between atoms: C_3  and  O_6 
REMARK    3  A    between atoms: C_3  and  C_4 
REMARK    4  A    between atoms: C_7  and  O_6 
REMARK    5  A    between atoms: C_9  and  C_10 
REMARK    6  A    between atoms: N_15  and  C_14 
REMARK    7  A    between atoms: N_20  and  C_19 
REMARK       I    between atoms: C_22  and  N_20 
ROOT
ATOM      1  C   LIG d   1      -0.411  77.791 115.169  0.00  0.00     0.161 C 
ATOM      2  C   LIG d   1      -1.387  76.781 115.161  0.00  0.00     0.016 C 
ATOM      3  C   LIG d   1      -1.958  76.240 116.336  0.00  0.00     0.038 C 
ATOM      4  C   LIG d   1      -1.700  76.784 117.604  0.00  0.00     0.028 C 
ATOM      5  C   LIG d   1      -0.341  77.470 117.703  0.00  0.00    -0.047 C 
ATOM      6  C   LIG d   1      -0.199  78.474 116.537  0.00  0.00     0.091 C 
ENDROOT
BRANCH   1   7
ATOM      7  O   LIG d   1      -0.718  78.775 114.161  0.00  0.00    -0.368 OA
BRANCH   7   8
ATOM      8  C   LIG d   1      -1.838  78.470 113.294  0.00  0.00     0.119 C 
BRANCH   8   9
ATOM      9  C   LIG d   1      -1.296  78.372 111.855  0.00  0.00     0.028 C 
ATOM     10  C   LIG d   1      -0.869  76.942 111.485  0.00  0.00     0.006 C 
ENDBRANCH   8   9
BRANCH   8  11
ATOM     11  C   LIG d   1      -2.851  79.619 113.269  0.00  0.00     0.028 C 
ATOM     12  C   LIG d   1      -2.323  80.863 112.536  0.00  0.00     0.006 C 
ENDBRANCH   8  11
ENDBRANCH   7   8
ENDBRANCH   1   7
BRANCH   6  13
ATOM     13  N   LIG d   1       1.136  79.127 116.511  0.00  0.00    -0.311 N 
ATOM     14  C   LIG d   1       1.411  80.259 117.157  0.00  0.00     0.210 C 
ATOM     15  C   LIG d   1       2.843  80.772 116.981  0.00  0.00     0.109 C 
ATOM     16  O   LIG d   1       0.614  80.869 117.885  0.00  0.00    -0.276 OA
ATOM     17  H   LIG d   1       1.851  78.682 115.970  0.00  0.00     0.149 HD
ENDBRANCH   6  13
BRANCH   5  18
ATOM     18  N   LIG d   1      -0.261  78.109 119.030  0.00  0.00     0.381 N 
ATOM     19  H   LIG d   1      -0.195  77.408 119.741  0.00  0.00    -0.090 HD
ATOM     20  H   LIG d   1      -1.100  78.639 119.187  0.00  0.00    -0.090 HD
ATOM     21  H   LIG d   1       0.533  78.710 119.072  0.00  0.00    -0.090 HD
ENDBRANCH   5  18
BRANCH   3  22
ATOM     22  C   LIG d   1      -2.767  75.118 116.254  0.00  0.00     0.382 C 
ATOM     23  O   LIG d   1      -3.409  74.884 115.202  0.00  0.00    -0.241 OA
ATOM     24  O   LIG d   1      -2.898  74.360 117.234  0.00  0.00    -0.241 OA
ENDBRANCH   3  22
TORSDOF 7
ENDMDL
MODEL 4
REMARK VINA RESULT:      -4.3      2.097      2.536
REMARK  7 active torsions:
REMARK  status: ('A' for Active; 'I' for Inactive)
REMARK    1  A    between atoms: C_2  and  C_3 
REMARK    2  A    between atoms: C_3  and  O_6 
REMARK    3  A    between atoms: C_3  and  C_4 
REMARK    4  A    between atoms: C_7  and  O_6 
REMARK    5  A    between atoms: C_9  and  C_10 
REMARK    6  A    between atoms: N_15  and  C_14 
REMARK    7  A    between atoms: N_20  and  C_19 
REMARK       I    between atoms: C_22  and  N_20 
ROOT
ATOM      1  C   LIG d   1      -2.021  78.120 115.229  0.00  0.00     0.161 C 
ATOM      2  C   LIG d   1      -2.376  79.258 114.487  0.00  0.00     0.016 C 
ATOM      3  C   LIG d   1      -2.049  79.430 113.122  0.00  0.00     0.038 C 
ATOM      4  C   LIG d   1      -1.472  78.401 112.362  0.00  0.00     0.028 C 
ATOM      5  C   LIG d   1      -0.642  77.428 113.192  0.00  0.00    -0.047 C 
ATOM      6  C   LIG d   1      -1.489  76.940 114.389  0.00  0.00     0.091 C 
ENDROOT
BRANCH   1   7
ATOM      7  O   LIG d   1      -3.136  77.697 116.038  0.00  0.00    -0.368 OA
BRANCH   7   8
ATOM      8  C   LIG d   1      -3.048  77.998 117.453  0.00  0.00     0.119 C 
BRANCH   8   9
ATOM      9  C   LIG d   1      -1.571  78.303 117.770  0.00  0.00     0.028 C 
ATOM     10  C   LIG d   1      -1.408  79.540 118.670  0.00  0.00     0.006 C 
ENDBRANCH   8   9
BRANCH   8  11
ATOM     11  C   LIG d   1      -3.401  76.775 118.305  0.00  0.00     0.028 C 
ATOM     12  C   LIG d   1      -2.210  76.258 119.127  0.00  0.00     0.006 C 
ENDBRANCH   8  11
ENDBRANCH   7   8
ENDBRANCH   1   7
BRANCH   6  13
ATOM     13  N   LIG d   1      -0.723  76.049 115.299  0.00  0.00    -0.311 N 
ATOM     14  C   LIG d   1      -1.235  74.949 115.851  0.00  0.00     0.210 C 
ATOM     15  C   LIG d   1      -0.281  74.185 116.774  0.00  0.00     0.109 C 
ATOM     16  O   LIG d   1      -2.378  74.517 115.637  0.00  0.00    -0.276 OA
ATOM     17  H   LIG d   1       0.222  76.307 115.502  0.00  0.00     0.149 HD
ENDBRANCH   6  13
BRANCH   5  18
ATOM     18  N   LIG d   1      -0.216  76.333 112.300  0.00  0.00     0.381 N 
ATOM     19  H   LIG d   1      -1.019  75.865 111.931  0.00  0.00    -0.090 HD
ATOM     20  H   LIG d   1       0.319  75.670 112.833  0.00  0.00    -0.090 HD
ATOM     21  H   LIG d   1       0.338  76.696 111.555  0.00  0.00    -0.090 HD
ENDBRANCH   5  18
BRANCH   3  22
ATOM     22  C   LIG d   1      -2.263  80.657 112.513  0.00  0.00     0.382 C 
ATOM     23  O   LIG d   1      -1.388  81.143 111.756  0.00  0.00    -0.241 OA
ATOM     24  O   LIG d   1      -3.301  81.305 112.746  0.00  0.00    -0.241 OA
ENDBRANCH   3  22
TORSDOF 7
ENDMDL
MODEL 5
REMARK VINA RESULT:      -4.2      1.928      3.490
REMARK  7 active torsions:
REMARK  status: ('A' for Active; 'I' for Inactive)
REMARK    1  A    between atoms: C_2  and  C_3 
REMARK    2  A    between atoms: C_3  and  O_6 
REMARK    3  A    between atoms: C_3  and  C_4 
REMARK    4  A    between atoms: C_7  and  O_6 
REMARK    5  A    between atoms: C_9  and  C_10 
REMARK    6  A    between atoms: N_15  and  C_14 
REMARK    7  A    between atoms: N_20  and  C_19 
REMARK       I    between atoms: C_22  and  N_20 
ROOT
ATOM      1  C   LIG d   1      -0.868  77.805 115.723  0.00  0.00     0.161 C 
ATOM      2  C   LIG d   1      -1.344  78.247 114.477  0.00  0.00     0.016 C 
ATOM      3  C   LIG d   1      -2.423  77.637 113.796  0.00  0.00     0.038 C 
ATOM      4  C   LIG d   1      -3.201  76.632 114.389  0.00  0.00     0.028 C 
ATOM      5  C   LIG d   1      -2.445  75.816 115.431  0.00  0.00    -0.047 C 
ATOM      6  C   LIG d   1      -1.776  76.781 116.436  0.00  0.00     0.091 C 
ENDROOT
BRANCH   1   7
ATOM      7  O   LIG d   1      -0.620  78.937 116.580  0.00  0.00    -0.368 OA
BRANCH   7   8
ATOM      8  C   LIG d   1       0.575  78.869 117.396  0.00  0.00     0.119 C 
BRANCH   8   9
ATOM      9  C   LIG d   1       0.158  79.151 118.853  0.00  0.00     0.028 C 
ATOM     10  C   LIG d   1      -1.281  79.686 118.958  0.00  0.00     0.006 C 
ENDBRANCH   8   9
BRANCH   8  11
ATOM     11  C   LIG d   1       1.561  79.984 117.034  0.00  0.00     0.028 C 
ATOM     12  C   LIG d   1       2.920  79.829 117.735  0.00  0.00     0.006 C 
ENDBRANCH   8  11
ENDBRANCH   7   8
ENDBRANCH   1   7
BRANCH   6  13
ATOM     13  N   LIG d   1      -0.945  76.068 117.441  0.00  0.00    -0.311 N 
ATOM     14  C   LIG d   1      -1.401  75.693 118.636  0.00  0.00     0.210 C 
ATOM     15  C   LIG d   1      -0.374  74.988 119.527  0.00  0.00     0.109 C 
ATOM     16  O   LIG d   1      -2.566  75.850 119.029  0.00  0.00    -0.276 OA
ATOM     17  H   LIG d   1       0.004  75.872 117.192  0.00  0.00     0.149 HD
ENDBRANCH   6  13
BRANCH   5  18
ATOM     18  N   LIG d   1      -3.410  74.899 116.066  0.00  0.00     0.381 N 
ATOM     19  H   LIG d   1      -2.942  74.065 116.361  0.00  0.00    -0.090 HD
ATOM     20  H   LIG d   1      -4.110  74.646 115.391  0.00  0.00    -0.090 HD
ATOM     21  H   LIG d   1      -3.838  75.342 116.849  0.00  0.00    -0.090 HD
ENDBRANCH   5  18
BRANCH   3  22
ATOM     22  C   LIG d   1      -2.707  78.006 112.490  0.00  0.00     0.382 C 
ATOM     23  O   LIG d   1      -2.556  79.198 112.128  0.00  0.00    -0.241 OA
ATOM     24  O   LIG d   1      -3.154  77.171 111.681  0.00  0.00    -0.241 OA
ENDBRANCH   3  22
TORSDOF 7
ENDMDL
MODEL 6
REMARK VINA RESULT:      -4.0      2.524      4.641
REMARK  7 active torsions:
REMARK  status: ('A' for Active; 'I' for Inactive)
REMARK    1  A    between atoms: C_2  and  C_3 
REMARK    2  A    between atoms: C_3  and  O_6 
REMARK    3  A    between atoms: C_3  and  C_4 
REMARK    4  A    between atoms: C_7  and  O_6 
REMARK    5  A    between atoms: C_9  and  C_10 
REMARK    6  A    between atoms: N_15  and  C_14 
REMARK    7  A    between atoms: N_20  and  C_19 
REMARK       I    between atoms: C_22  and  N_20 
ROOT
ATOM      1  C   LIG d   1       0.142  76.965 117.181  0.00  0.00     0.161 C 
ATOM      2  C   LIG d   1      -0.436  77.760 118.185  0.00  0.00     0.016 C 
ATOM      3  C   LIG d   1      -1.648  78.468 118.015  0.00  0.00     0.038 C 
ATOM      4  C   LIG d   1      -2.447  78.306 116.873  0.00  0.00     0.028 C 
ATOM      5  C   LIG d   1      -1.656  77.910 115.631  0.00  0.00    -0.047 C 
ATOM      6  C   LIG d   1      -0.771  76.688 115.969  0.00  0.00     0.091 C 
ENDROOT
BRANCH   1   7
ATOM      7  O   LIG d   1       0.611  75.726 117.749  0.00  0.00    -0.368 OA
BRANCH   7   8
ATOM      8  C   LIG d   1       0.176  75.440 119.101  0.00  0.00     0.119 C 
BRANCH   8   9
ATOM      9  C   LIG d   1       1.431  75.101 119.929  0.00  0.00     0.028 C 
ATOM     10  C   LIG d   1       2.700  75.768 119.370  0.00  0.00     0.006 C 
ENDBRANCH   8   9
BRANCH   8  11
ATOM     11  C   LIG d   1      -0.695  74.181 119.151  0.00  0.00     0.028 C 
ATOM     12  C   LIG d   1      -2.096  74.401 118.559  0.00  0.00     0.006 C 
ENDBRANCH   8  11
ENDBRANCH   7   8
ENDBRANCH   1   7
BRANCH   6  13
ATOM     13  N   LIG d   1       0.099  76.288 114.832  0.00  0.00    -0.311 N 
ATOM     14  C   LIG d   1       0.056  75.083 114.265  0.00  0.00     0.210 C 
ATOM     15  C   LIG d   1       1.053  74.871 113.121  0.00  0.00     0.109 C 
ATOM     16  O   LIG d   1      -0.735  74.181 114.580  0.00  0.00    -0.276 OA
ATOM     17  H   LIG d   1       0.749  76.969 114.493  0.00  0.00     0.149 HD
ENDBRANCH   6  13
BRANCH   5  18
ATOM     18  N   LIG d   1      -2.625  77.641 114.552  0.00  0.00     0.381 N 
ATOM     19  H   LIG d   1      -2.885  78.500 114.108  0.00  0.00    -0.090 HD
ATOM     20  H   LIG d   1      -3.451  77.231 114.952  0.00  0.00    -0.090 HD
ATOM     21  H   LIG d   1      -2.227  77.020 113.883  0.00  0.00    -0.090 HD
ENDBRANCH   5  18
BRANCH   3  22
ATOM     22  C   LIG d   1      -2.052  79.379 118.978  0.00  0.00     0.382 C 
ATOM     23  O   LIG d   1      -3.254  79.423 119.335  0.00  0.00    -0.241 OA
ATOM     24  O   LIG d   1      -1.239  80.189 119.462  0.00  0.00    -0.241 OA
ENDBRANCH   3  22
TORSDOF 7
ENDMDL
MODEL 7
REMARK VINA RESULT:      -3.9      7.393      8.406
REMARK  7 active torsions:
REMARK  status: ('A' for Active; 'I' for Inactive)
REMARK    1  A    between atoms: C_2  and  C_3 
REMARK    2  A    between atoms: C_3  and  O_6 
REMARK    3  A    between atoms: C_3  and  C_4 
REMARK    4  A    between atoms: C_7  and  O_6 
REMARK    5  A    between atoms: C_9  and  C_10 
REMARK    6  A    between atoms: N_15  and  C_14 
REMARK    7  A    between atoms: N_20  and  C_19 
REMARK       I    between atoms: C_22  and  N_20 
ROOT
ATOM      1  C   LIG d   1       3.819  82.116 114.359  0.00  0.00     0.161 C 
ATOM      2  C   LIG d   1       4.369  82.170 113.067  0.00  0.00     0.016 C 
ATOM      3  C   LIG d   1       3.846  82.977 112.032  0.00  0.00     0.038 C 
ATOM      4  C   LIG d   1       2.820  83.906 112.262  0.00  0.00     0.028 C 
ATOM      5  C   LIG d   1       1.904  83.522 113.419  0.00  0.00    -0.047 C 
ATOM      6  C   LIG d   1       2.769  83.205 114.660  0.00  0.00     0.091 C 
ENDROOT
BRANCH   1   7
ATOM      7  O   LIG d   1       4.874  82.151 115.341  0.00  0.00    -0.368 OA
BRANCH   7   8
ATOM      8  C   LIG d   1       4.903  81.051 116.284  0.00  0.00     0.119 C 
BRANCH   8   9
ATOM      9  C   LIG d   1       5.363  81.618 117.641  0.00  0.00     0.028 C 
ATOM     10  C   LIG d   1       4.480  81.139 118.806  0.00  0.00     0.006 C 
ENDBRANCH   8   9
BRANCH   8  11
ATOM     11  C   LIG d   1       5.962  80.014 115.897  0.00  0.00     0.028 C 
ATOM     12  C   LIG d   1       5.554  78.580 116.268  0.00  0.00     0.006 C 
ENDBRANCH   8  11
ENDBRANCH   7   8
ENDBRANCH   1   7
BRANCH   6  13
ATOM     13  N   LIG d   1       1.956  82.739 115.814  0.00  0.00    -0.311 N 
ATOM     14  C   LIG d   1       1.982  83.321 117.012  0.00  0.00     0.210 C 
ATOM     15  C   LIG d   1       1.082  82.669 118.067  0.00  0.00     0.109 C 
ATOM     16  O   LIG d   1       2.641  84.333 117.292  0.00  0.00    -0.276 OA
ATOM     17  H   LIG d   1       1.369  81.942 115.666  0.00  0.00     0.149 HD
ENDBRANCH   6  13
BRANCH   5  18
ATOM     18  N   LIG d   1       0.968  84.641 113.637  0.00  0.00     0.381 N 
ATOM     19  H   LIG d   1       1.103  85.338 112.932  0.00  0.00    -0.090 HD
ATOM     20  H   LIG d   1       1.160  85.057 114.532  0.00  0.00    -0.090 HD
ATOM     21  H   LIG d   1       0.029  84.310 113.612  0.00  0.00    -0.090 HD
ENDBRANCH   5  18
BRANCH   3  22
ATOM     22  C   LIG d   1       4.323  82.831 110.738  0.00  0.00     0.382 C 
ATOM     23  O   LIG d   1       4.139  83.742 109.895  0.00  0.00    -0.241 OA
ATOM     24  O   LIG d   1       4.895  81.780 110.391  0.00  0.00    -0.241 OA
ENDBRANCH   3  22
TORSDOF 7
ENDMDL
MODEL 8
REMARK VINA RESULT:      -3.8      2.747      5.521
REMARK  7 active torsions:
REMARK  status: ('A' for Active; 'I' for Inactive)
REMARK    1  A    between atoms: C_2  and  C_3 
REMARK    2  A    between atoms: C_3  and  O_6 
REMARK    3  A    between atoms: C_3  and  C_4 
REMARK    4  A    between atoms: C_7  and  O_6 
REMARK    5  A    between atoms: C_9  and  C_10 
REMARK    6  A    between atoms: N_15  and  C_14 
REMARK    7  A    between atoms: N_20  and  C_19 
REMARK       I    between atoms: C_22  and  N_20 
ROOT
ATOM      1  C   LIG d   1       0.798  77.877 117.093  0.00  0.00     0.161 C 
ATOM      2  C   LIG d   1       0.254  78.719 118.077  0.00  0.00     0.016 C 
ATOM      3  C   LIG d   1      -1.120  79.044 118.150  0.00  0.00     0.038 C 
ATOM      4  C   LIG d   1      -2.073  78.424 117.329  0.00  0.00     0.028 C 
ATOM      5  C   LIG d   1      -1.507  77.953 115.993  0.00  0.00    -0.047 C 
ATOM      6  C   LIG d   1      -0.242  77.104 116.256  0.00  0.00     0.091 C 
ENDROOT
BRANCH   1   7
ATOM      7  O   LIG d   1       1.736  76.963 117.695  0.00  0.00    -0.368 OA
BRANCH   7   8
ATOM      8  C   LIG d   1       2.847  77.565 118.403  0.00  0.00     0.119 C 
BRANCH   8   9
ATOM      9  C   LIG d   1       3.861  78.047 117.348  0.00  0.00     0.028 C 
ATOM     10  C   LIG d   1       4.103  79.564 117.417  0.00  0.00     0.006 C 
ENDBRANCH   8   9
BRANCH   8  11
ATOM     11  C   LIG d   1       3.599  76.529 119.244  0.00  0.00     0.028 C 
ATOM     12  C   LIG d   1       4.928  76.094 118.606  0.00  0.00     0.006 C 
ENDBRANCH   8  11
ENDBRANCH   7   8
ENDBRANCH   1   7
BRANCH   6  13
ATOM     13  N   LIG d   1       0.422  76.673 114.998  0.00  0.00    -0.311 N 
ATOM     14  C   LIG d   1       0.136  75.533 114.371  0.00  0.00     0.210 C 
ATOM     15  C   LIG d   1       0.952  75.272 113.101  0.00  0.00     0.109 C 
ATOM     16  O   LIG d   1      -0.739  74.730 114.728  0.00  0.00    -0.276 OA
ATOM     17  H   LIG d   1       1.123  77.280 114.622  0.00  0.00     0.149 HD
ENDBRANCH   6  13
BRANCH   5  18
ATOM     18  N   LIG d   1      -2.571  77.205 115.297  0.00  0.00     0.381 N 
ATOM     19  H   LIG d   1      -3.402  77.760 115.254  0.00  0.00    -0.090 HD
ATOM     20  H   LIG d   1      -2.776  76.370 115.818  0.00  0.00    -0.090 HD
ATOM     21  H   LIG d   1      -2.274  76.966 114.377  0.00  0.00    -0.090 HD
ENDBRANCH   5  18
BRANCH   3  22
ATOM     22  C   LIG d   1      -1.548  80.029 119.028  0.00  0.00     0.382 C 
ATOM     23  O   LIG d   1      -2.638  79.897 119.635  0.00  0.00    -0.241 OA
ATOM     24  O   LIG d   1      -0.878  81.067 119.186  0.00  0.00    -0.241 OA
ENDBRANCH   3  22
TORSDOF 7
ENDMDL
MODEL 9
REMARK VINA RESULT:      -3.7      7.045      8.982
REMARK  7 active torsions:
REMARK  status: ('A' for Active; 'I' for Inactive)
REMARK    1  A    between atoms: C_2  and  C_3 
REMARK    2  A    between atoms: C_3  and  O_6 
REMARK    3  A    between atoms: C_3  and  C_4 
REMARK    4  A    between atoms: C_7  and  O_6 
REMARK    5  A    between atoms: C_9  and  C_10 
REMARK    6  A    between atoms: N_15  and  C_14 
REMARK    7  A    between atoms: N_20  and  C_19 
REMARK       I    between atoms: C_22  and  N_20 
ROOT
ATOM      1  C   LIG d   1       4.237  81.664 115.656  0.00  0.00     0.161 C 
ATOM      2  C   LIG d   1       5.175  80.640 115.442  0.00  0.00     0.016 C 
ATOM      3  C   LIG d   1       5.427  79.608 116.374  0.00  0.00     0.038 C 
ATOM      4  C   LIG d   1       4.644  79.442 117.526  0.00  0.00     0.028 C 
ATOM      5  C   LIG d   1       4.025  80.741 118.030  0.00  0.00    -0.047 C 
ATOM      6  C   LIG d   1       3.296  81.437 116.857  0.00  0.00     0.091 C 
ENDROOT
BRANCH   1   7
ATOM      7  O   LIG d   1       3.472  81.885 114.455  0.00  0.00    -0.368 OA
BRANCH   7   8
ATOM      8  C   LIG d   1       3.830  83.054 113.677  0.00  0.00     0.119 C 
BRANCH   8   9
ATOM      9  C   LIG d   1       2.545  83.574 113.004  0.00  0.00     0.028 C 
ATOM     10  C   LIG d   1       1.462  83.959 114.026  0.00  0.00     0.006 C 
ENDBRANCH   8   9
BRANCH   8  11
ATOM     11  C   LIG d   1       4.773  82.690 112.526  0.00  0.00     0.028 C 
ATOM     12  C   LIG d   1       4.302  83.246 111.173  0.00  0.00     0.006 C 
ENDBRANCH   8  11
ENDBRANCH   7   8
ENDBRANCH   1   7
BRANCH   6  13
ATOM     13  N   LIG d   1       2.732  82.757 117.243  0.00  0.00    -0.311 N 
ATOM     14  C   LIG d   1       1.515  82.911 117.760  0.00  0.00     0.210 C 
ATOM     15  C   LIG d   1       1.123  84.360 118.069  0.00  0.00     0.109 C 
ATOM     16  O   LIG d   1       0.735  81.984 118.023  0.00  0.00    -0.276 OA
ATOM     17  H   LIG d   1       3.310  83.561 117.093  0.00  0.00     0.149 HD
ENDBRANCH   6  13
BRANCH   5  18
ATOM     18  N   LIG d   1       3.127  80.402 119.150  0.00  0.00     0.381 N 
ATOM     19  H   LIG d   1       2.227  80.145 118.796  0.00  0.00    -0.090 HD
ATOM     20  H   LIG d   1       3.016  81.212 119.734  0.00  0.00    -0.090 HD
ATOM     21  H   LIG d   1       3.511  79.651 119.679  0.00  0.00    -0.090 HD
ENDBRANCH   5  18
BRANCH   3  22
ATOM     22  C   LIG d   1       6.499  78.750 116.177  0.00  0.00     0.382 C 
ATOM     23  O   LIG d   1       6.881  78.482 115.012  0.00  0.00    -0.241 OA
ATOM     24  O   LIG d   1       7.059  78.206 117.147  0.00  0.00    -0.241 OA
ENDBRANCH   3  22
TORSDOF 7
ENDMDL
