MODEL 1
REMARK VINA RESULT:      -4.7      0.000      0.000
REMARK  7 active torsions:
REMARK  status: ('A' for Active; 'I' for Inactive)
REMARK    1  A    between atoms: C_2  and  C_3 
REMARK    2  A    between atoms: C_3  and  O_6 
REMARK    3  A    between atoms: C_3  and  C_4 
REMARK    4  A    between atoms: C_7  and  O_6 
REMARK    5  A    between atoms: C_9  and  C_10 
REMARK    6  A    between atoms: N_15  and  C_14 
REMARK    7  A    between atoms: N_20  and  C_19 
REMARK       I    between atoms: C_22  and  N_20 
ROOT
ATOM      1  C   LIG d   1      -0.533  80.283 112.946  0.00  0.00     0.161 C 
ATOM      2  C   LIG d   1      -1.025  79.065 112.448  0.00  0.00     0.016 C 
ATOM      3  C   LIG d   1      -0.784  78.608 111.132  0.00  0.00     0.038 C 
ATOM      4  C   LIG d   1       0.098  79.272 110.266  0.00  0.00     0.028 C 
ATOM      5  C   LIG d   1       0.217  80.765 110.551  0.00  0.00    -0.047 C 
ATOM      6  C   LIG d   1       0.523  80.967 112.053  0.00  0.00     0.091 C 
ENDROOT
BRANCH   1   7
ATOM      7  O   LIG d   1      -0.016  80.093 114.277  0.00  0.00    -0.368 OA
BRANCH   7   8
ATOM      8  C   LIG d   1      -0.610  79.017 115.044  0.00  0.00     0.119 C 
BRANCH   8   9
ATOM      9  C   LIG d   1      -1.934  79.543 115.632  0.00  0.00     0.028 C 
ATOM     10  C   LIG d   1      -3.068  78.508 115.542  0.00  0.00     0.006 C 
ENDBRANCH   8   9
BRANCH   8  11
ATOM     11  C   LIG d   1       0.255  78.652 116.255  0.00  0.00     0.028 C 
ATOM     12  C   LIG d   1       0.266  77.143 116.546  0.00  0.00     0.006 C 
ENDBRANCH   8  11
ENDBRANCH   7   8
ENDBRANCH   1   7
BRANCH   6  13
ATOM     13  N   LIG d   1       0.571  82.403 112.433  0.00  0.00    -0.311 N 
ATOM     14  C   LIG d   1       1.688  83.128 112.420  0.00  0.00     0.210 C 
ATOM     15  C   LIG d   1       1.521  84.583 112.868  0.00  0.00     0.109 C 
ATOM     16  O   LIG d   1       2.797  82.712 112.049  0.00  0.00    -0.276 OA
ATOM     17  H   LIG d   1      -0.289  82.829 112.717  0.00  0.00     0.149 HD
ENDBRANCH   6  13
BRANCH   5  18
ATOM     18  N   LIG d   1       1.268  81.305 109.669  0.00  0.00     0.381 N 
ATOM     19  H   LIG d   1       1.340  82.295 109.794  0.00  0.00    -0.090 HD
ATOM     20  H   LIG d   1       1.015  81.125 108.713  0.00  0.00    -0.090 HD
ATOM     21  H   LIG d   1       2.142  80.873 109.875  0.00  0.00    -0.090 HD
ENDBRANCH   5  18
BRANCH   3  22
ATOM     22  C   LIG d   1      -1.460  77.495 110.656  0.00  0.00     0.382 C 
ATOM     23  O   LIG d   1      -0.881  76.383 110.604  0.00  0.00    -0.241 OA
ATOM     24  O   LIG d   1      -2.628  77.597 110.236  0.00  0.00    -0.241 OA
ENDBRANCH   3  22
TORSDOF 7
ENDMDL
MODEL 2
REMARK VINA RESULT:      -4.4      2.432      5.440
REMARK  7 active torsions:
REMARK  status: ('A' for Active; 'I' for Inactive)
REMARK    1  A    between atoms: C_2  and  C_3 
REMARK    2  A    between atoms: C_3  and  O_6 
REMARK    3  A    between atoms: C_3  and  C_4 
REMARK    4  A    between atoms: C_7  and  O_6 
REMARK    5  A    between atoms: C_9  and  C_10 
REMARK    6  A    between atoms: N_15  and  C_14 
REMARK    7  A    between atoms: N_20  and  C_19 
REMARK       I    between atoms: C_22  and  N_20 
ROOT
ATOM      1  C   LIG d   1       1.850  81.453 112.602  0.00  0.00     0.161 C 
ATOM      2  C   LIG d   1       2.645  82.368 111.892  0.00  0.00     0.016 C 
ATOM      3  C   LIG d   1       2.493  82.621 110.509  0.00  0.00     0.038 C 
ATOM      4  C   LIG d   1       1.429  82.083 109.770  0.00  0.00     0.028 C 
ATOM      5  C   LIG d   1       0.908  80.764 110.329  0.00  0.00    -0.047 C 
ATOM      6  C   LIG d   1       0.613  80.939 111.836  0.00  0.00     0.091 C 
ENDROOT
BRANCH   1   7
ATOM      7  O   LIG d   1       1.456  82.025 113.865  0.00  0.00    -0.368 OA
BRANCH   7   8
ATOM      8  C   LIG d   1       2.500  82.150 114.862  0.00  0.00     0.119 C 
BRANCH   8   9
ATOM      9  C   LIG d   1       2.172  81.165 116.001  0.00  0.00     0.028 C 
ATOM     10  C   LIG d   1       3.424  80.743 116.789  0.00  0.00     0.006 C 
ENDBRANCH   8   9
BRANCH   8  11
ATOM     11  C   LIG d   1       2.488  83.538 115.509  0.00  0.00     0.028 C 
ATOM     12  C   LIG d   1       3.516  84.495 114.886  0.00  0.00     0.006 C 
ENDBRANCH   8  11
ENDBRANCH   7   8
ENDBRANCH   1   7
BRANCH   6  13
ATOM     13  N   LIG d   1       0.179  79.672 112.480  0.00  0.00    -0.311 N 
ATOM     14  C   LIG d   1      -1.099  79.334 112.645  0.00  0.00     0.210 C 
ATOM     15  C   LIG d   1      -1.327  77.994 113.350  0.00  0.00     0.109 C 
ATOM     16  O   LIG d   1      -2.065  80.001 112.245  0.00  0.00    -0.276 OA
ATOM     17  H   LIG d   1       0.898  79.057 112.806  0.00  0.00     0.149 HD
ENDBRANCH   6  13
BRANCH   5  18
ATOM     18  N   LIG d   1      -0.284  80.387 109.546  0.00  0.00     0.381 N 
ATOM     19  H   LIG d   1      -1.019  81.046 109.711  0.00  0.00    -0.090 HD
ATOM     20  H   LIG d   1      -0.598  79.482 109.847  0.00  0.00    -0.090 HD
ATOM     21  H   LIG d   1      -0.061  80.364 108.575  0.00  0.00    -0.090 HD
ENDBRANCH   5  18
BRANCH   3  22
ATOM     22  C   LIG d   1       3.436  83.390 109.844  0.00  0.00     0.382 C 
ATOM     23  O   LIG d   1       4.516  82.872 109.470  0.00  0.00    -0.241 OA
ATOM     24  O   LIG d   1       3.239  84.604 109.652  0.00  0.00    -0.241 OA
ENDBRANCH   3  22
TORSDOF 7
ENDMDL
MODEL 3
REMARK VINA RESULT:      -4.3      3.650      5.849
REMARK  7 active torsions:
REMARK  status: ('A' for Active; 'I' for Inactive)
REMARK    1  A    between atoms: C_2  and  C_3 
REMARK    2  A    between atoms: C_3  and  O_6 
REMARK    3  A    between atoms: C_3  and  C_4 
REMARK    4  A    between atoms: C_7  and  O_6 
REMARK    5  A    between atoms: C_9  and  C_10 
REMARK    6  A    between atoms: N_15  and  C_14 
REMARK    7  A    between atoms: N_20  and  C_19 
REMARK       I    between atoms: C_22  and  N_20 
ROOT
ATOM      1  C   LIG d   1      -2.267  78.366 115.854  0.00  0.00     0.161 C 
ATOM      2  C   LIG d   1      -2.508  79.435 114.975  0.00  0.00     0.016 C 
ATOM      3  C   LIG d   1      -2.121  79.426 113.615  0.00  0.00     0.038 C 
ATOM      4  C   LIG d   1      -1.597  78.279 113.000  0.00  0.00     0.028 C 
ATOM      5  C   LIG d   1      -0.873  77.350 113.969  0.00  0.00    -0.047 C 
ATOM      6  C   LIG d   1      -1.797  77.063 115.174  0.00  0.00     0.091 C 
ENDROOT
BRANCH   1   7
ATOM      7  O   LIG d   1      -3.440  78.118 116.655  0.00  0.00    -0.368 OA
BRANCH   7   8
ATOM      8  C   LIG d   1      -3.313  78.392 118.072  0.00  0.00     0.119 C 
BRANCH   8   9
ATOM      9  C   LIG d   1      -1.891  78.934 118.313  0.00  0.00     0.028 C 
ATOM     10  C   LIG d   1      -1.897  80.354 118.903  0.00  0.00     0.006 C 
ENDBRANCH   8   9
BRANCH   8  11
ATOM     11  C   LIG d   1      -3.403  77.106 118.899  0.00  0.00     0.028 C 
ATOM     12  C   LIG d   1      -2.182  76.895 119.807  0.00  0.00     0.006 C 
ENDBRANCH   8  11
ENDBRANCH   7   8
ENDBRANCH   1   7
BRANCH   6  13
ATOM     13  N   LIG d   1      -1.134  76.229 116.211  0.00  0.00    -0.311 N 
ATOM     14  C   LIG d   1      -1.206  74.899 116.238  0.00  0.00     0.210 C 
ATOM     15  C   LIG d   1      -0.466  74.236 117.404  0.00  0.00     0.109 C 
ATOM     16  O   LIG d   1      -1.785  74.205 115.390  0.00  0.00    -0.276 OA
ATOM     17  H   LIG d   1      -0.616  76.710 116.920  0.00  0.00     0.149 HD
ENDBRANCH   6  13
BRANCH   5  18
ATOM     18  N   LIG d   1      -0.499  76.134 113.224  0.00  0.00     0.381 N 
ATOM     19  H   LIG d   1       0.305  76.317 112.656  0.00  0.00    -0.090 HD
ATOM     20  H   LIG d   1      -1.259  75.876 112.620  0.00  0.00    -0.090 HD
ATOM     21  H   LIG d   1      -0.303  75.391 113.859  0.00  0.00    -0.090 HD
ENDBRANCH   5  18
BRANCH   3  22
ATOM     22  C   LIG d   1      -2.220  80.589 112.865  0.00  0.00     0.382 C 
ATOM     23  O   LIG d   1      -1.224  81.012 112.231  0.00  0.00    -0.241 OA
ATOM     24  O   LIG d   1      -3.280  81.243 112.851  0.00  0.00    -0.241 OA
ENDBRANCH   3  22
TORSDOF 7
ENDMDL
MODEL 4
REMARK VINA RESULT:      -4.2      2.648      3.560
REMARK  7 active torsions:
REMARK  status: ('A' for Active; 'I' for Inactive)
REMARK    1  A    between atoms: C_2  and  C_3 
REMARK    2  A    between atoms: C_3  and  O_6 
REMARK    3  A    between atoms: C_3  and  C_4 
REMARK    4  A    between atoms: C_7  and  O_6 
REMARK    5  A    between atoms: C_9  and  C_10 
REMARK    6  A    between atoms: N_15  and  C_14 
REMARK    7  A    between atoms: N_20  and  C_19 
REMARK       I    between atoms: C_22  and  N_20 
ROOT
ATOM      1  C   LIG d   1      -1.216  79.359 114.873  0.00  0.00     0.161 C 
ATOM      2  C   LIG d   1      -1.604  78.156 115.488  0.00  0.00     0.016 C 
ATOM      3  C   LIG d   1      -1.746  76.935 114.790  0.00  0.00     0.038 C 
ATOM      4  C   LIG d   1      -1.362  76.800 113.447  0.00  0.00     0.028 C 
ATOM      5  C   LIG d   1      -1.445  78.103 112.659  0.00  0.00    -0.047 C 
ATOM      6  C   LIG d   1      -0.687  79.206 113.432  0.00  0.00     0.091 C 
ENDROOT
BRANCH   1   7
ATOM      7  O   LIG d   1      -0.246  80.037 115.695  0.00  0.00    -0.368 OA
BRANCH   7   8
ATOM      8  C   LIG d   1      -0.095  79.539 117.047  0.00  0.00     0.119 C 
BRANCH   8   9
ATOM      9  C   LIG d   1      -0.461  80.687 118.007  0.00  0.00     0.028 C 
ATOM     10  C   LIG d   1      -1.856  80.511 118.629  0.00  0.00     0.006 C 
ENDBRANCH   8   9
BRANCH   8  11
ATOM     11  C   LIG d   1       1.366  79.201 117.356  0.00  0.00     0.028 C 
ATOM     12  C   LIG d   1       1.645  77.689 117.338  0.00  0.00     0.006 C 
ENDBRANCH   8  11
ENDBRANCH   7   8
ENDBRANCH   1   7
BRANCH   6  13
ATOM     13  N   LIG d   1      -0.790  80.534 112.772  0.00  0.00    -0.311 N 
ATOM     14  C   LIG d   1       0.113  80.995 111.908  0.00  0.00     0.210 C 
ATOM     15  C   LIG d   1      -0.174  82.397 111.360  0.00  0.00     0.109 C 
ATOM     16  O   LIG d   1       1.107  80.364 111.520  0.00  0.00    -0.276 OA
ATOM     17  H   LIG d   1      -1.582  81.099 113.007  0.00  0.00     0.149 HD
ENDBRANCH   6  13
BRANCH   5  18
ATOM     18  N   LIG d   1      -0.888  77.849 111.317  0.00  0.00     0.381 N 
ATOM     19  H   LIG d   1      -1.193  76.955 110.988  0.00  0.00    -0.090 HD
ATOM     20  H   LIG d   1       0.115  77.838 111.379  0.00  0.00    -0.090 HD
ATOM     21  H   LIG d   1      -1.181  78.562 110.686  0.00  0.00    -0.090 HD
ENDBRANCH   5  18
BRANCH   3  22
ATOM     22  C   LIG d   1      -2.316  75.842 115.425  0.00  0.00     0.382 C 
ATOM     23  O   LIG d   1      -2.982  75.010 114.764  0.00  0.00    -0.241 OA
ATOM     24  O   LIG d   1      -2.208  75.702 116.658  0.00  0.00    -0.241 OA
ENDBRANCH   3  22
TORSDOF 7
ENDMDL
MODEL 5
REMARK VINA RESULT:      -4.2      2.594      3.699
REMARK  7 active torsions:
REMARK  status: ('A' for Active; 'I' for Inactive)
REMARK    1  A    between atoms: C_2  and  C_3 
REMARK    2  A    between atoms: C_3  and  O_6 
REMARK    3  A    between atoms: C_3  and  C_4 
REMARK    4  A    between atoms: C_7  and  O_6 
REMARK    5  A    between atoms: C_9  and  C_10 
REMARK    6  A    between atoms: N_15  and  C_14 
REMARK    7  A    between atoms: N_20  and  C_19 
REMARK       I    between atoms: C_22  and  N_20 
ROOT
ATOM      1  C   LIG d   1      -2.010  78.282 114.418  0.00  0.00     0.161 C 
ATOM      2  C   LIG d   1      -2.200  77.905 113.078  0.00  0.00     0.016 C 
ATOM      3  C   LIG d   1      -1.428  78.416 112.009  0.00  0.00     0.038 C 
ATOM      4  C   LIG d   1      -0.306  79.230 112.228  0.00  0.00     0.028 C 
ATOM      5  C   LIG d   1      -0.386  80.038 113.519  0.00  0.00    -0.047 C 
ATOM      6  C   LIG d   1      -0.719  79.083 114.688  0.00  0.00     0.091 C 
ENDROOT
BRANCH   1   7
ATOM      7  O   LIG d   1      -2.063  77.117 115.265  0.00  0.00    -0.368 OA
BRANCH   7   8
ATOM      8  C   LIG d   1      -1.378  75.939 114.772  0.00  0.00     0.119 C 
BRANCH   8   9
ATOM      9  C   LIG d   1      -2.077  74.708 115.382  0.00  0.00     0.028 C 
ATOM     10  C   LIG d   1      -3.171  75.095 116.392  0.00  0.00     0.006 C 
ENDBRANCH   8   9
BRANCH   8  11
ATOM     11  C   LIG d   1       0.065  75.879 115.280  0.00  0.00     0.028 C 
ATOM     12  C   LIG d   1       0.889  74.770 114.607  0.00  0.00     0.006 C 
ENDBRANCH   8  11
ENDBRANCH   7   8
ENDBRANCH   1   7
BRANCH   6  13
ATOM     13  N   LIG d   1      -0.898  79.804 115.975  0.00  0.00    -0.311 N 
ATOM     14  C   LIG d   1       0.075  79.957 116.872  0.00  0.00     0.210 C 
ATOM     15  C   LIG d   1      -0.328  80.715 118.140  0.00  0.00     0.109 C 
ATOM     16  O   LIG d   1       1.242  79.564 116.723  0.00  0.00    -0.276 OA
ATOM     17  H   LIG d   1      -1.806  80.182 116.164  0.00  0.00     0.149 HD
ENDBRANCH   6  13
BRANCH   5  18
ATOM     18  N   LIG d   1       0.904  80.733 113.690  0.00  0.00     0.381 N 
ATOM     19  H   LIG d   1       1.502  80.196 114.286  0.00  0.00    -0.090 HD
ATOM     20  H   LIG d   1       0.738  81.622 114.128  0.00  0.00    -0.090 HD
ATOM     21  H   LIG d   1       1.339  80.867 112.804  0.00  0.00    -0.090 HD
ENDBRANCH   5  18
BRANCH   3  22
ATOM     22  C   LIG d   1      -1.801  78.146 110.702  0.00  0.00     0.382 C 
ATOM     23  O   LIG d   1      -1.044  78.469 109.754  0.00  0.00    -0.241 OA
ATOM     24  O   LIG d   1      -2.904  77.623 110.454  0.00  0.00    -0.241 OA
ENDBRANCH   3  22
TORSDOF 7
ENDMDL
MODEL 6
REMARK VINA RESULT:      -4.1      4.108      6.211
REMARK  7 active torsions:
REMARK  status: ('A' for Active; 'I' for Inactive)
REMARK    1  A    between atoms: C_2  and  C_3 
REMARK    2  A    between atoms: C_3  and  O_6 
REMARK    3  A    between atoms: C_3  and  C_4 
REMARK    4  A    between atoms: C_7  and  O_6 
REMARK    5  A    between atoms: C_9  and  C_10 
REMARK    6  A    between atoms: N_15  and  C_14 
REMARK    7  A    between atoms: N_20  and  C_19 
REMARK       I    between atoms: C_22  and  N_20 
ROOT
ATOM      1  C   LIG d   1      -0.511  78.006 115.800  0.00  0.00     0.161 C 
ATOM      2  C   LIG d   1      -0.902  78.955 114.841  0.00  0.00     0.016 C 
ATOM      3  C   LIG d   1      -2.035  78.798 114.009  0.00  0.00     0.038 C 
ATOM      4  C   LIG d   1      -2.945  77.745 114.185  0.00  0.00     0.028 C 
ATOM      5  C   LIG d   1      -2.318  76.500 114.802  0.00  0.00    -0.047 C 
ATOM      6  C   LIG d   1      -1.554  76.904 116.083  0.00  0.00     0.091 C 
ENDROOT
BRANCH   1   7
ATOM      7  O   LIG d   1      -0.141  78.672 117.024  0.00  0.00    -0.368 OA
BRANCH   7   8
ATOM      8  C   LIG d   1      -0.709  79.989 117.229  0.00  0.00     0.119 C 
BRANCH   8   9
ATOM      9  C   LIG d   1       0.431  80.918 117.687  0.00  0.00     0.028 C 
ATOM     10  C   LIG d   1      -0.080  82.115 118.507  0.00  0.00     0.006 C 
ENDBRANCH   8   9
BRANCH   8  11
ATOM     11  C   LIG d   1      -1.718  79.986 118.382  0.00  0.00     0.028 C 
ATOM     12  C   LIG d   1      -3.127  79.562 117.940  0.00  0.00     0.006 C 
ENDBRANCH   8  11
ENDBRANCH   7   8
ENDBRANCH   1   7
BRANCH   6  13
ATOM     13  N   LIG d   1      -0.840  75.758 116.703  0.00  0.00    -0.311 N 
ATOM     14  C   LIG d   1      -1.025  75.375 117.966  0.00  0.00     0.210 C 
ATOM     15  C   LIG d   1      -0.174  74.182 118.411  0.00  0.00     0.109 C 
ATOM     16  O   LIG d   1      -1.837  75.890 118.749  0.00  0.00    -0.276 OA
ATOM     17  H   LIG d   1      -0.185  75.264 116.129  0.00  0.00     0.149 HD
ENDBRANCH   6  13
BRANCH   5  18
ATOM     18  N   LIG d   1      -3.403  75.534 115.056  0.00  0.00     0.381 N 
ATOM     19  H   LIG d   1      -3.645  75.544 116.027  0.00  0.00    -0.090 HD
ATOM     20  H   LIG d   1      -3.079  74.612 114.822  0.00  0.00    -0.090 HD
ATOM     21  H   LIG d   1      -4.200  75.764 114.505  0.00  0.00    -0.090 HD
ENDBRANCH   5  18
BRANCH   3  22
ATOM     22  C   LIG d   1      -2.244  79.681 112.960  0.00  0.00     0.382 C 
ATOM     23  O   LIG d   1      -3.216  80.474 112.992  0.00  0.00    -0.241 OA
ATOM     24  O   LIG d   1      -1.499  79.664 111.962  0.00  0.00    -0.241 OA
ENDBRANCH   3  22
TORSDOF 7
ENDMDL
MODEL 7
REMARK VINA RESULT:      -4.1      3.511      5.353
REMARK  7 active torsions:
REMARK  status: ('A' for Active; 'I' for Inactive)
REMARK    1  A    between atoms: C_2  and  C_3 
REMARK    2  A    between atoms: C_3  and  O_6 
REMARK    3  A    between atoms: C_3  and  C_4 
REMARK    4  A    between atoms: C_7  and  O_6 
REMARK    5  A    between atoms: C_9  and  C_10 
REMARK    6  A    between atoms: N_15  and  C_14 
REMARK    7  A    between atoms: N_20  and  C_19 
REMARK       I    between atoms: C_22  and  N_20 
ROOT
ATOM      1  C   LIG d   1      -1.556  77.360 116.149  0.00  0.00     0.161 C 
ATOM      2  C   LIG d   1      -2.245  77.590 114.947  0.00  0.00     0.016 C 
ATOM      3  C   LIG d   1      -1.892  78.607 114.031  0.00  0.00     0.038 C 
ATOM      4  C   LIG d   1      -0.724  79.370 114.184  0.00  0.00     0.028 C 
ATOM      5  C   LIG d   1      -0.280  79.513 115.635  0.00  0.00    -0.047 C 
ATOM      6  C   LIG d   1      -0.214  78.109 116.280  0.00  0.00     0.091 C 
ENDROOT
BRANCH   1   7
ATOM      7  O   LIG d   1      -1.360  75.944 116.336  0.00  0.00    -0.368 OA
BRANCH   7   8
ATOM      8  C   LIG d   1      -1.576  75.111 115.170  0.00  0.00     0.119 C 
BRANCH   8   9
ATOM      9  C   LIG d   1      -2.764  74.180 115.481  0.00  0.00     0.028 C 
ATOM     10  C   LIG d   1      -3.281  74.348 116.920  0.00  0.00     0.006 C 
ENDBRANCH   8   9
BRANCH   8  11
ATOM     11  C   LIG d   1      -0.386  74.181 114.921  0.00  0.00     0.028 C 
ATOM     12  C   LIG d   1       0.936  74.942 114.730  0.00  0.00     0.006 C 
ENDBRANCH   8  11
ENDBRANCH   7   8
ENDBRANCH   1   7
BRANCH   6  13
ATOM     13  N   LIG d   1       0.132  78.165 117.724  0.00  0.00    -0.311 N 
ATOM     14  C   LIG d   1       1.129  77.468 118.266  0.00  0.00     0.210 C 
ATOM     15  C   LIG d   1       1.302  77.655 119.777  0.00  0.00     0.109 C 
ATOM     16  O   LIG d   1       1.908  76.738 117.634  0.00  0.00    -0.276 OA
ATOM     17  H   LIG d   1      -0.429  78.757 118.305  0.00  0.00     0.149 HD
ENDBRANCH   6  13
BRANCH   5  18
ATOM     18  N   LIG d   1       1.019  80.212 115.637  0.00  0.00     0.381 N 
ATOM     19  H   LIG d   1       1.732  79.603 115.286  0.00  0.00    -0.090 HD
ATOM     20  H   LIG d   1       1.254  80.459 116.582  0.00  0.00    -0.090 HD
ATOM     21  H   LIG d   1       0.966  81.032 115.075  0.00  0.00    -0.090 HD
ENDBRANCH   5  18
BRANCH   3  22
ATOM     22  C   LIG d   1      -2.732  78.896 112.967  0.00  0.00     0.382 C 
ATOM     23  O   LIG d   1      -3.070  77.988 112.170  0.00  0.00    -0.241 OA
ATOM     24  O   LIG d   1      -3.122  80.062 112.768  0.00  0.00    -0.241 OA
ENDBRANCH   3  22
TORSDOF 7
ENDMDL
MODEL 8
REMARK VINA RESULT:      -4.0      3.288      5.598
REMARK  7 active torsions:
REMARK  status: ('A' for Active; 'I' for Inactive)
REMARK    1  A    between atoms: C_2  and  C_3 
REMARK    2  A    between atoms: C_3  and  O_6 
REMARK    3  A    between atoms: C_3  and  C_4 
REMARK    4  A    between atoms: C_7  and  O_6 
REMARK    5  A    between atoms: C_9  and  C_10 
REMARK    6  A    between atoms: N_15  and  C_14 
REMARK    7  A    between atoms: N_20  and  C_19 
REMARK       I    between atoms: C_22  and  N_20 
ROOT
ATOM      1  C   LIG d   1      -0.701  77.993 114.782  0.00  0.00     0.161 C 
ATOM      2  C   LIG d   1      -1.548  76.872 114.799  0.00  0.00     0.016 C 
ATOM      3  C   LIG d   1      -1.861  76.152 115.975  0.00  0.00     0.038 C 
ATOM      4  C   LIG d   1      -1.465  76.597 117.245  0.00  0.00     0.028 C 
ATOM      5  C   LIG d   1      -0.191  77.436 117.223  0.00  0.00    -0.047 C 
ATOM      6  C   LIG d   1      -0.349  78.559 116.173  0.00  0.00     0.091 C 
ENDROOT
BRANCH   1   7
ATOM      7  O   LIG d   1      -1.271  79.023 113.951  0.00  0.00    -0.368 OA
BRANCH   7   8
ATOM      8  C   LIG d   1      -0.882  79.005 112.555  0.00  0.00     0.119 C 
BRANCH   8   9
ATOM      9  C   LIG d   1      -0.602  80.460 112.133  0.00  0.00     0.028 C 
ATOM     10  C   LIG d   1       0.884  80.835 112.270  0.00  0.00     0.006 C 
ENDBRANCH   8   9
BRANCH   8  11
ATOM     11  C   LIG d   1      -2.035  78.538 111.661  0.00  0.00     0.028 C 
ATOM     12  C   LIG d   1      -1.551  77.915 110.342  0.00  0.00     0.006 C 
ENDBRANCH   8  11
ENDBRANCH   7   8
ENDBRANCH   1   7
BRANCH   6  13
ATOM     13  N   LIG d   1       0.885  79.376 116.028  0.00  0.00    -0.311 N 
ATOM     14  C   LIG d   1       1.082  80.527 116.668  0.00  0.00     0.210 C 
ATOM     15  C   LIG d   1       2.414  81.218 116.361  0.00  0.00     0.109 C 
ATOM     16  O   LIG d   1       0.294  81.024 117.487  0.00  0.00    -0.276 OA
ATOM     17  H   LIG d   1       1.590  79.030 115.406  0.00  0.00     0.149 HD
ENDBRANCH   6  13
BRANCH   5  18
ATOM     18  N   LIG d   1       0.029  77.947 118.589  0.00  0.00     0.381 N 
ATOM     19  H   LIG d   1       0.608  78.762 118.556  0.00  0.00    -0.090 HD
ATOM     20  H   LIG d   1       0.504  77.244 119.127  0.00  0.00    -0.090 HD
ATOM     21  H   LIG d   1      -0.844  78.168 119.015  0.00  0.00    -0.090 HD
ENDBRANCH   5  18
BRANCH   3  22
ATOM     22  C   LIG d   1      -2.544  74.949 115.882  0.00  0.00     0.382 C 
ATOM     23  O   LIG d   1      -2.604  74.183 116.874  0.00  0.00    -0.241 OA
ATOM     24  O   LIG d   1      -3.065  74.599 114.806  0.00  0.00    -0.241 OA
ENDBRANCH   3  22
TORSDOF 7
ENDMDL
MODEL 9
REMARK VINA RESULT:      -4.0      3.924      6.250
REMARK  7 active torsions:
REMARK  status: ('A' for Active; 'I' for Inactive)
REMARK    1  A    between atoms: C_2  and  C_3 
REMARK    2  A    between atoms: C_3  and  O_6 
REMARK    3  A    between atoms: C_3  and  C_4 
REMARK    4  A    between atoms: C_7  and  O_6 
REMARK    5  A    between atoms: C_9  and  C_10 
REMARK    6  A    between atoms: N_15  and  C_14 
REMARK    7  A    between atoms: N_20  and  C_19 
REMARK       I    between atoms: C_22  and  N_20 
ROOT
ATOM      1  C   LIG d   1      -0.443  78.154 115.699  0.00  0.00     0.161 C 
ATOM      2  C   LIG d   1      -0.896  79.033 114.702  0.00  0.00     0.016 C 
ATOM      3  C   LIG d   1      -2.032  78.780 113.898  0.00  0.00     0.038 C 
ATOM      4  C   LIG d   1      -2.885  77.694 114.141  0.00  0.00     0.028 C 
ATOM      5  C   LIG d   1      -2.187  76.513 114.807  0.00  0.00    -0.047 C 
ATOM      6  C   LIG d   1      -1.425  77.018 116.054  0.00  0.00     0.091 C 
ENDROOT
BRANCH   1   7
ATOM      7  O   LIG d   1      -0.089  78.897 116.882  0.00  0.00    -0.368 OA
BRANCH   7   8
ATOM      8  C   LIG d   1       1.315  78.899 117.237  0.00  0.00     0.119 C 
BRANCH   8   9
ATOM      9  C   LIG d   1       1.447  78.214 118.611  0.00  0.00     0.028 C 
ATOM     10  C   LIG d   1       2.373  76.987 118.569  0.00  0.00     0.006 C 
ENDBRANCH   8   9
BRANCH   8  11
ATOM     11  C   LIG d   1       1.836  80.324 117.443  0.00  0.00     0.028 C 
ATOM     12  C   LIG d   1       2.151  81.041 116.121  0.00  0.00     0.006 C 
ENDBRANCH   8  11
ENDBRANCH   7   8
ENDBRANCH   1   7
BRANCH   6  13
ATOM     13  N   LIG d   1      -0.645  75.940 116.717  0.00  0.00    -0.311 N 
ATOM     14  C   LIG d   1      -1.105  75.230 117.746  0.00  0.00     0.210 C 
ATOM     15  C   LIG d   1      -0.131  74.181 118.293  0.00  0.00     0.109 C 
ATOM     16  O   LIG d   1      -2.237  75.347 118.237  0.00  0.00    -0.276 OA
ATOM     17  H   LIG d   1       0.273  75.757 116.362  0.00  0.00     0.149 HD
ENDBRANCH   6  13
BRANCH   5  18
ATOM     18  N   LIG d   1      -3.218  75.508 115.127  0.00  0.00     0.381 N 
ATOM     19  H   LIG d   1      -3.118  74.715 114.525  0.00  0.00    -0.090 HD
ATOM     20  H   LIG d   1      -4.125  75.911 114.969  0.00  0.00    -0.090 HD
ATOM     21  H   LIG d   1      -3.135  75.224 116.078  0.00  0.00    -0.090 HD
ENDBRANCH   5  18
BRANCH   3  22
ATOM     22  C   LIG d   1      -2.300  79.598 112.811  0.00  0.00     0.382 C 
ATOM     23  O   LIG d   1      -3.183  80.486 112.898  0.00  0.00    -0.241 OA
ATOM     24  O   LIG d   1      -1.703  79.431 111.731  0.00  0.00    -0.241 OA
ENDBRANCH   3  22
TORSDOF 7
ENDMDL
