MODEL 1
REMARK VINA RESULT:      -4.9      0.000      0.000
REMARK  7 active torsions:
REMARK  status: ('A' for Active; 'I' for Inactive)
REMARK    1  A    between atoms: C_2  and  C_3 
REMARK    2  A    between atoms: C_3  and  O_6 
REMARK    3  A    between atoms: C_3  and  C_4 
REMARK    4  A    between atoms: C_7  and  O_6 
REMARK    5  A    between atoms: C_9  and  C_10 
REMARK    6  A    between atoms: N_15  and  C_14 
REMARK    7  A    between atoms: N_20  and  C_19 
REMARK       I    between atoms: C_22  and  N_20 
ROOT
ATOM      1  C   LIG d   1       0.194  80.935 113.025  0.00  0.00     0.161 C 
ATOM      2  C   LIG d   1       1.089  81.926 112.589  0.00  0.00     0.016 C 
ATOM      3  C   LIG d   1       1.342  82.201 111.225  0.00  0.00     0.038 C 
ATOM      4  C   LIG d   1       0.599  81.600 110.198  0.00  0.00     0.028 C 
ATOM      5  C   LIG d   1       0.043  80.231 110.573  0.00  0.00    -0.047 C 
ATOM      6  C   LIG d   1      -0.708  80.346 111.920  0.00  0.00     0.091 C 
ENDROOT
BRANCH   1   7
ATOM      7  O   LIG d   1      -0.609  81.444 114.109  0.00  0.00    -0.368 OA
BRANCH   7   8
ATOM      8  C   LIG d   1      -1.676  82.352 113.740  0.00  0.00     0.119 C 
BRANCH   8   9
ATOM      9  C   LIG d   1      -1.265  83.762 114.205  0.00  0.00     0.028 C 
ATOM     10  C   LIG d   1      -0.809  83.786 115.673  0.00  0.00     0.006 C 
ENDBRANCH   8   9
BRANCH   8  11
ATOM     11  C   LIG d   1      -2.966  82.034 114.501  0.00  0.00     0.028 C 
ATOM     12  C   LIG d   1      -2.842  80.785 115.389  0.00  0.00     0.006 C 
ENDBRANCH   8  11
ENDBRANCH   7   8
ENDBRANCH   1   7
BRANCH   6  13
ATOM     13  N   LIG d   1      -1.211  79.034 112.402  0.00  0.00    -0.311 N 
ATOM     14  C   LIG d   1      -2.506  78.727 112.476  0.00  0.00     0.210 C 
ATOM     15  C   LIG d   1      -2.809  77.328 113.020  0.00  0.00     0.109 C 
ATOM     16  O   LIG d   1      -3.430  79.470 112.112  0.00  0.00    -0.276 OA
ATOM     17  H   LIG d   1      -0.528  78.360 112.688  0.00  0.00     0.149 HD
ENDBRANCH   6  13
BRANCH   5  18
ATOM     18  N   LIG d   1      -0.823  79.783 109.466  0.00  0.00     0.381 N 
ATOM     19  H   LIG d   1      -1.536  79.176 109.818  0.00  0.00    -0.090 HD
ATOM     20  H   LIG d   1      -0.266  79.266 108.808  0.00  0.00    -0.090 HD
ATOM     21  H   LIG d   1      -1.237  80.569 109.017  0.00  0.00    -0.090 HD
ENDBRANCH   5  18
BRANCH   3  22
ATOM     22  C   LIG d   1       2.376  83.056 110.877  0.00  0.00     0.382 C 
ATOM     23  O   LIG d   1       2.120  84.205 110.443  0.00  0.00    -0.241 OA
ATOM     24  O   LIG d   1       3.561  82.678 110.950  0.00  0.00    -0.241 OA
ENDBRANCH   3  22
TORSDOF 7
ENDMDL
MODEL 2
REMARK VINA RESULT:      -4.7      1.046      1.833
REMARK  7 active torsions:
REMARK  status: ('A' for Active; 'I' for Inactive)
REMARK    1  A    between atoms: C_2  and  C_3 
REMARK    2  A    between atoms: C_3  and  O_6 
REMARK    3  A    between atoms: C_3  and  C_4 
REMARK    4  A    between atoms: C_7  and  O_6 
REMARK    5  A    between atoms: C_9  and  C_10 
REMARK    6  A    between atoms: N_15  and  C_14 
REMARK    7  A    between atoms: N_20  and  C_19 
REMARK       I    between atoms: C_22  and  N_20 
ROOT
ATOM      1  C   LIG d   1       0.177  81.930 112.505  0.00  0.00     0.161 C 
ATOM      2  C   LIG d   1       1.110  82.846 111.992  0.00  0.00     0.016 C 
ATOM      3  C   LIG d   1       1.911  82.588 110.856  0.00  0.00     0.038 C 
ATOM      4  C   LIG d   1       1.724  81.447 110.061  0.00  0.00     0.028 C 
ATOM      5  C   LIG d   1       1.144  80.263 110.828  0.00  0.00    -0.047 C 
ATOM      6  C   LIG d   1      -0.120  80.727 111.586  0.00  0.00     0.091 C 
ENDROOT
BRANCH   1   7
ATOM      7  O   LIG d   1      -1.045  82.616 112.844  0.00  0.00    -0.368 OA
BRANCH   7   8
ATOM      8  C   LIG d   1      -1.400  82.629 114.248  0.00  0.00     0.119 C 
BRANCH   8   9
ATOM      9  C   LIG d   1      -2.831  82.071 114.369  0.00  0.00     0.028 C 
ATOM     10  C   LIG d   1      -3.378  82.162 115.804  0.00  0.00     0.006 C 
ENDBRANCH   8   9
BRANCH   8  11
ATOM     11  C   LIG d   1      -1.475  84.059 114.791  0.00  0.00     0.028 C 
ATOM     12  C   LIG d   1      -0.353  84.376 115.792  0.00  0.00     0.006 C 
ENDBRANCH   8  11
ENDBRANCH   7   8
ENDBRANCH   1   7
BRANCH   6  13
ATOM     13  N   LIG d   1      -0.703  79.650 112.429  0.00  0.00    -0.311 N 
ATOM     14  C   LIG d   1      -1.906  79.121 112.214  0.00  0.00     0.210 C 
ATOM     15  C   LIG d   1      -2.323  78.037 113.213  0.00  0.00     0.109 C 
ATOM     16  O   LIG d   1      -2.654  79.424 111.272  0.00  0.00    -0.276 OA
ATOM     17  H   LIG d   1      -0.150  79.323 113.197  0.00  0.00     0.149 HD
ENDBRANCH   6  13
BRANCH   5  18
ATOM     18  N   LIG d   1       0.872  79.191 109.852  0.00  0.00     0.381 N 
ATOM     19  H   LIG d   1       0.703  78.330 110.333  0.00  0.00    -0.090 HD
ATOM     20  H   LIG d   1       1.680  79.071 109.267  0.00  0.00    -0.090 HD
ATOM     21  H   LIG d   1       0.082  79.429 109.294  0.00  0.00    -0.090 HD
ENDBRANCH   5  18
BRANCH   3  22
ATOM     22  C   LIG d   1       2.940  83.457 110.528  0.00  0.00     0.382 C 
ATOM     23  O   LIG d   1       4.034  83.394 111.141  0.00  0.00    -0.241 OA
ATOM     24  O   LIG d   1       2.775  84.333 109.659  0.00  0.00    -0.241 OA
ENDBRANCH   3  22
TORSDOF 7
ENDMDL
MODEL 3
REMARK VINA RESULT:      -4.4      2.077      4.700
REMARK  7 active torsions:
REMARK  status: ('A' for Active; 'I' for Inactive)
REMARK    1  A    between atoms: C_2  and  C_3 
REMARK    2  A    between atoms: C_3  and  O_6 
REMARK    3  A    between atoms: C_3  and  C_4 
REMARK    4  A    between atoms: C_7  and  O_6 
REMARK    5  A    between atoms: C_9  and  C_10 
REMARK    6  A    between atoms: N_15  and  C_14 
REMARK    7  A    between atoms: N_20  and  C_19 
REMARK       I    between atoms: C_22  and  N_20 
ROOT
ATOM      1  C   LIG d   1       0.732  81.994 112.553  0.00  0.00     0.161 C 
ATOM      2  C   LIG d   1      -0.595  81.840 112.986  0.00  0.00     0.016 C 
ATOM      3  C   LIG d   1      -1.492  80.901 112.428  0.00  0.00     0.038 C 
ATOM      4  C   LIG d   1      -1.074  79.941 111.495  0.00  0.00     0.028 C 
ATOM      5  C   LIG d   1       0.124  80.386 110.663  0.00  0.00    -0.047 C 
ATOM      6  C   LIG d   1       1.238  80.880 111.613  0.00  0.00     0.091 C 
ENDROOT
BRANCH   1   7
ATOM      7  O   LIG d   1       1.606  82.123 113.692  0.00  0.00    -0.368 OA
BRANCH   7   8
ATOM      8  C   LIG d   1       0.963  82.133 114.991  0.00  0.00     0.119 C 
BRANCH   8   9
ATOM      9  C   LIG d   1       1.396  83.424 115.712  0.00  0.00     0.028 C 
ATOM     10  C   LIG d   1       0.224  84.394 115.932  0.00  0.00     0.006 C 
ENDBRANCH   8   9
BRANCH   8  11
ATOM     11  C   LIG d   1       1.470  80.987 115.872  0.00  0.00     0.028 C 
ATOM     12  C   LIG d   1       2.969  81.097 116.189  0.00  0.00     0.006 C 
ENDBRANCH   8  11
ENDBRANCH   7   8
ENDBRANCH   1   7
BRANCH   6  13
ATOM     13  N   LIG d   1       2.415  81.412 110.878  0.00  0.00    -0.311 N 
ATOM     14  C   LIG d   1       2.371  82.503 110.115  0.00  0.00     0.210 C 
ATOM     15  C   LIG d   1       3.692  82.867 109.430  0.00  0.00     0.109 C 
ATOM     16  O   LIG d   1       1.372  83.223 109.967  0.00  0.00    -0.276 OA
ATOM     17  H   LIG d   1       3.275  80.907 110.967  0.00  0.00     0.149 HD
ENDBRANCH   6  13
BRANCH   5  18
ATOM     18  N   LIG d   1       0.538  79.240 109.831  0.00  0.00     0.381 N 
ATOM     19  H   LIG d   1       0.295  78.384 110.288  0.00  0.00    -0.090 HD
ATOM     20  H   LIG d   1       1.537  79.265 109.719  0.00  0.00    -0.090 HD
ATOM     21  H   LIG d   1       0.095  79.288 108.940  0.00  0.00    -0.090 HD
ENDBRANCH   5  18
BRANCH   3  22
ATOM     22  C   LIG d   1      -2.834  80.942 112.775  0.00  0.00     0.382 C 
ATOM     23  O   LIG d   1      -3.436  82.042 112.821  0.00  0.00    -0.241 OA
ATOM     24  O   LIG d   1      -3.439  79.899 113.084  0.00  0.00    -0.241 OA
ENDBRANCH   3  22
TORSDOF 7
ENDMDL
MODEL 4
REMARK VINA RESULT:      -4.2      2.051      5.037
REMARK  7 active torsions:
REMARK  status: ('A' for Active; 'I' for Inactive)
REMARK    1  A    between atoms: C_2  and  C_3 
REMARK    2  A    between atoms: C_3  and  O_6 
REMARK    3  A    between atoms: C_3  and  C_4 
REMARK    4  A    between atoms: C_7  and  O_6 
REMARK    5  A    between atoms: C_9  and  C_10 
REMARK    6  A    between atoms: N_15  and  C_14 
REMARK    7  A    between atoms: N_20  and  C_19 
REMARK       I    between atoms: C_22  and  N_20 
ROOT
ATOM      1  C   LIG d   1      -2.276  81.302 113.402  0.00  0.00     0.161 C 
ATOM      2  C   LIG d   1      -2.691  80.066 113.925  0.00  0.00     0.016 C 
ATOM      3  C   LIG d   1      -2.475  78.832 113.270  0.00  0.00     0.038 C 
ATOM      4  C   LIG d   1      -1.690  78.736 112.111  0.00  0.00     0.028 C 
ATOM      5  C   LIG d   1      -1.679  80.013 111.279  0.00  0.00    -0.047 C 
ATOM      6  C   LIG d   1      -1.321  81.206 112.194  0.00  0.00     0.091 C 
ENDROOT
BRANCH   1   7
ATOM      7  O   LIG d   1      -1.685  82.101 114.447  0.00  0.00    -0.368 OA
BRANCH   7   8
ATOM      8  C   LIG d   1      -1.607  81.483 115.755  0.00  0.00     0.119 C 
BRANCH   8   9
ATOM      9  C   LIG d   1      -2.419  82.359 116.729  0.00  0.00     0.028 C 
ATOM     10  C   LIG d   1      -1.543  82.979 117.830  0.00  0.00     0.006 C 
ENDBRANCH   8   9
BRANCH   8  11
ATOM     11  C   LIG d   1      -0.174  81.498 116.294  0.00  0.00     0.028 C 
ATOM     12  C   LIG d   1       0.883  81.473 115.179  0.00  0.00     0.006 C 
ENDBRANCH   8  11
ENDBRANCH   7   8
ENDBRANCH   1   7
BRANCH   6  13
ATOM     13  N   LIG d   1      -1.371  82.507 111.477  0.00  0.00    -0.311 N 
ATOM     14  C   LIG d   1      -0.297  83.100 110.959  0.00  0.00     0.210 C 
ATOM     15  C   LIG d   1      -0.567  84.446 110.278  0.00  0.00     0.109 C 
ATOM     16  O   LIG d   1       0.848  82.625 110.971  0.00  0.00    -0.276 OA
ATOM     17  H   LIG d   1      -2.266  82.948 111.394  0.00  0.00     0.149 HD
ENDBRANCH   6  13
BRANCH   5  18
ATOM     18  N   LIG d   1      -0.716  79.820 110.178  0.00  0.00     0.381 N 
ATOM     19  H   LIG d   1      -0.281  78.923 110.262  0.00  0.00    -0.090 HD
ATOM     20  H   LIG d   1      -0.002  80.525 110.243  0.00  0.00    -0.090 HD
ATOM     21  H   LIG d   1      -1.183  79.890 109.300  0.00  0.00    -0.090 HD
ENDBRANCH   5  18
BRANCH   3  22
ATOM     22  C   LIG d   1      -3.080  77.682 113.752  0.00  0.00     0.382 C 
ATOM     23  O   LIG d   1      -3.311  76.722 112.978  0.00  0.00    -0.241 OA
ATOM     24  O   LIG d   1      -3.440  77.610 114.943  0.00  0.00    -0.241 OA
ENDBRANCH   3  22
TORSDOF 7
ENDMDL
MODEL 5
REMARK VINA RESULT:      -4.1      2.861      4.791
REMARK  7 active torsions:
REMARK  status: ('A' for Active; 'I' for Inactive)
REMARK    1  A    between atoms: C_2  and  C_3 
REMARK    2  A    between atoms: C_3  and  O_6 
REMARK    3  A    between atoms: C_3  and  C_4 
REMARK    4  A    between atoms: C_7  and  O_6 
REMARK    5  A    between atoms: C_9  and  C_10 
REMARK    6  A    between atoms: N_15  and  C_14 
REMARK    7  A    between atoms: N_20  and  C_19 
REMARK       I    between atoms: C_22  and  N_20 
ROOT
ATOM      1  C   LIG d   1      -2.960  81.512 113.800  0.00  0.00     0.161 C 
ATOM      2  C   LIG d   1      -2.430  81.649 112.507  0.00  0.00     0.016 C 
ATOM      3  C   LIG d   1      -1.219  82.323 112.229  0.00  0.00     0.038 C 
ATOM      4  C   LIG d   1      -0.372  82.777 113.251  0.00  0.00     0.028 C 
ATOM      5  C   LIG d   1      -1.108  83.107 114.545  0.00  0.00    -0.047 C 
ATOM      6  C   LIG d   1      -1.995  81.904 114.939  0.00  0.00     0.091 C 
ENDROOT
BRANCH   1   7
ATOM      7  O   LIG d   1      -3.440  80.166 113.992  0.00  0.00    -0.368 OA
BRANCH   7   8
ATOM      8  C   LIG d   1      -2.515  79.243 114.617  0.00  0.00     0.119 C 
BRANCH   8   9
ATOM      9  C   LIG d   1      -1.951  78.331 113.510  0.00  0.00     0.028 C 
ATOM     10  C   LIG d   1      -3.055  77.561 112.765  0.00  0.00     0.006 C 
ENDBRANCH   8   9
BRANCH   8  11
ATOM     11  C   LIG d   1      -3.238  78.303 115.588  0.00  0.00     0.028 C 
ATOM     12  C   LIG d   1      -2.424  78.022 116.861  0.00  0.00     0.006 C 
ENDBRANCH   8  11
ENDBRANCH   7   8
ENDBRANCH   1   7
BRANCH   6  13
ATOM     13  N   LIG d   1      -2.814  82.176 116.149  0.00  0.00    -0.311 N 
ATOM     14  C   LIG d   1      -2.438  81.836 117.381  0.00  0.00     0.210 C 
ATOM     15  C   LIG d   1      -3.440  82.191 118.484  0.00  0.00     0.109 C 
ATOM     16  O   LIG d   1      -1.355  81.303 117.668  0.00  0.00    -0.276 OA
ATOM     17  H   LIG d   1      -3.694  82.633 116.011  0.00  0.00     0.149 HD
ENDBRANCH   6  13
BRANCH   5  18
ATOM     18  N   LIG d   1      -0.093  83.435 115.564  0.00  0.00     0.381 N 
ATOM     19  H   LIG d   1       0.224  84.375 115.436  0.00  0.00    -0.090 HD
ATOM     20  H   LIG d   1       0.692  82.819 115.451  0.00  0.00    -0.090 HD
ATOM     21  H   LIG d   1      -0.479  83.329 116.476  0.00  0.00    -0.090 HD
ENDBRANCH   5  18
BRANCH   3  22
ATOM     22  C   LIG d   1      -0.862  82.583 110.914  0.00  0.00     0.382 C 
ATOM     23  O   LIG d   1      -0.280  81.702 110.237  0.00  0.00    -0.241 OA
ATOM     24  O   LIG d   1      -1.076  83.702 110.412  0.00  0.00    -0.241 OA
ENDBRANCH   3  22
TORSDOF 7
ENDMDL
MODEL 6
REMARK VINA RESULT:      -4.0      2.578      4.087
REMARK  7 active torsions:
REMARK  status: ('A' for Active; 'I' for Inactive)
REMARK    1  A    between atoms: C_2  and  C_3 
REMARK    2  A    between atoms: C_3  and  O_6 
REMARK    3  A    between atoms: C_3  and  C_4 
REMARK    4  A    between atoms: C_7  and  O_6 
REMARK    5  A    between atoms: C_9  and  C_10 
REMARK    6  A    between atoms: N_15  and  C_14 
REMARK    7  A    between atoms: N_20  and  C_19 
REMARK       I    between atoms: C_22  and  N_20 
ROOT
ATOM      1  C   LIG d   1      -1.297  83.281 112.919  0.00  0.00     0.161 C 
ATOM      2  C   LIG d   1      -0.756  83.446 111.633  0.00  0.00     0.016 C 
ATOM      3  C   LIG d   1       0.633  83.482 111.372  0.00  0.00     0.038 C 
ATOM      4  C   LIG d   1       1.582  83.202 112.366  0.00  0.00     0.028 C 
ATOM      5  C   LIG d   1       1.098  83.530 113.775  0.00  0.00    -0.047 C 
ATOM      6  C   LIG d   1      -0.279  82.863 114.000  0.00  0.00     0.091 C 
ENDROOT
BRANCH   1   7
ATOM      7  O   LIG d   1      -2.391  82.344 112.873  0.00  0.00    -0.368 OA
BRANCH   7   8
ATOM      8  C   LIG d   1      -2.060  80.963 113.161  0.00  0.00     0.119 C 
BRANCH   8   9
ATOM      9  C   LIG d   1      -2.329  80.146 111.882  0.00  0.00     0.028 C 
ATOM     10  C   LIG d   1      -1.034  79.776 111.139  0.00  0.00     0.006 C 
ENDBRANCH   8   9
BRANCH   8  11
ATOM     11  C   LIG d   1      -2.996  80.375 114.221  0.00  0.00     0.028 C 
ATOM     12  C   LIG d   1      -2.366  79.199 114.985  0.00  0.00     0.006 C 
ENDBRANCH   8  11
ENDBRANCH   7   8
ENDBRANCH   1   7
BRANCH   6  13
ATOM     13  N   LIG d   1      -0.863  83.203 115.324  0.00  0.00    -0.311 N 
ATOM     14  C   LIG d   1      -0.713  82.444 116.408  0.00  0.00     0.210 C 
ATOM     15  C   LIG d   1      -1.414  82.967 117.666  0.00  0.00     0.109 C 
ATOM     16  O   LIG d   1      -0.039  81.404 116.456  0.00  0.00    -0.276 OA
ATOM     17  H   LIG d   1      -1.399  84.047 115.383  0.00  0.00     0.149 HD
ENDBRANCH   6  13
BRANCH   5  18
ATOM     18  N   LIG d   1       2.129  83.063 114.720  0.00  0.00     0.381 N 
ATOM     19  H   LIG d   1       2.689  83.835 115.020  0.00  0.00    -0.090 HD
ATOM     20  H   LIG d   1       2.725  82.404 114.252  0.00  0.00    -0.090 HD
ATOM     21  H   LIG d   1       1.698  82.631 115.508  0.00  0.00    -0.090 HD
ENDBRANCH   5  18
BRANCH   3  22
ATOM     22  C   LIG d   1       1.086  83.840 110.111  0.00  0.00     0.382 C 
ATOM     23  O   LIG d   1       0.448  84.679 109.430  0.00  0.00    -0.241 OA
ATOM     24  O   LIG d   1       2.100  83.302 109.628  0.00  0.00    -0.241 OA
ENDBRANCH   3  22
TORSDOF 7
ENDMDL
MODEL 7
REMARK VINA RESULT:      -3.9      2.071      2.825
REMARK  7 active torsions:
REMARK  status: ('A' for Active; 'I' for Inactive)
REMARK    1  A    between atoms: C_2  and  C_3 
REMARK    2  A    between atoms: C_3  and  O_6 
REMARK    3  A    between atoms: C_3  and  C_4 
REMARK    4  A    between atoms: C_7  and  O_6 
REMARK    5  A    between atoms: C_9  and  C_10 
REMARK    6  A    between atoms: N_15  and  C_14 
REMARK    7  A    between atoms: N_20  and  C_19 
REMARK       I    between atoms: C_22  and  N_20 
ROOT
ATOM      1  C   LIG d   1      -0.861  81.144 114.148  0.00  0.00     0.161 C 
ATOM      2  C   LIG d   1      -0.636  82.375 113.509  0.00  0.00     0.016 C 
ATOM      3  C   LIG d   1      -0.783  82.568 112.116  0.00  0.00     0.038 C 
ATOM      4  C   LIG d   1      -1.315  81.573 111.283  0.00  0.00     0.028 C 
ATOM      5  C   LIG d   1      -1.078  80.158 111.801  0.00  0.00    -0.047 C 
ATOM      6  C   LIG d   1      -1.548  80.077 113.271  0.00  0.00     0.091 C 
ENDROOT
BRANCH   1   7
ATOM      7  O   LIG d   1      -1.609  81.353 115.362  0.00  0.00    -0.368 OA
BRANCH   7   8
ATOM      8  C   LIG d   1      -0.829  81.512 116.572  0.00  0.00     0.119 C 
BRANCH   8   9
ATOM      9  C   LIG d   1      -1.506  80.674 117.674  0.00  0.00     0.028 C 
ATOM     10  C   LIG d   1      -2.617  79.766 117.120  0.00  0.00     0.006 C 
ENDBRANCH   8   9
BRANCH   8  11
ATOM     11  C   LIG d   1      -0.873  82.957 117.078  0.00  0.00     0.028 C 
ATOM     12  C   LIG d   1      -0.830  83.054 118.611  0.00  0.00     0.006 C 
ENDBRANCH   8  11
ENDBRANCH   7   8
ENDBRANCH   1   7
BRANCH   6  13
ATOM     13  N   LIG d   1      -1.275  78.750 113.881  0.00  0.00    -0.311 N 
ATOM     14  C   LIG d   1      -2.200  77.802 114.022  0.00  0.00     0.210 C 
ATOM     15  C   LIG d   1      -1.712  76.516 114.694  0.00  0.00     0.109 C 
ATOM     16  O   LIG d   1      -3.372  77.894 113.624  0.00  0.00    -0.276 OA
ATOM     17  H   LIG d   1      -0.342  78.579 114.203  0.00  0.00     0.149 HD
ENDBRANCH   6  13
BRANCH   5  18
ATOM     18  N   LIG d   1      -1.801  79.230 110.910  0.00  0.00     0.381 N 
ATOM     19  H   LIG d   1      -1.152  78.609 110.470  0.00  0.00    -0.090 HD
ATOM     20  H   LIG d   1      -2.265  79.762 110.195  0.00  0.00    -0.090 HD
ATOM     21  H   LIG d   1      -2.469  78.708 111.433  0.00  0.00    -0.090 HD
ENDBRANCH   5  18
BRANCH   3  22
ATOM     22  C   LIG d   1      -0.359  83.754 111.538  0.00  0.00     0.382 C 
ATOM     23  O   LIG d   1      -0.378  83.885 110.290  0.00  0.00    -0.241 OA
ATOM     24  O   LIG d   1       0.084  84.679 112.245  0.00  0.00    -0.241 OA
ENDBRANCH   3  22
TORSDOF 7
ENDMDL
MODEL 8
REMARK VINA RESULT:      -3.9      2.219      2.983
REMARK  7 active torsions:
REMARK  status: ('A' for Active; 'I' for Inactive)
REMARK    1  A    between atoms: C_2  and  C_3 
REMARK    2  A    between atoms: C_3  and  O_6 
REMARK    3  A    between atoms: C_3  and  C_4 
REMARK    4  A    between atoms: C_7  and  O_6 
REMARK    5  A    between atoms: C_9  and  C_10 
REMARK    6  A    between atoms: N_15  and  C_14 
REMARK    7  A    between atoms: N_20  and  C_19 
REMARK       I    between atoms: C_22  and  N_20 
ROOT
ATOM      1  C   LIG d   1       0.899  82.947 113.724  0.00  0.00     0.161 C 
ATOM      2  C   LIG d   1       2.051  83.592 113.246  0.00  0.00     0.016 C 
ATOM      3  C   LIG d   1       2.292  83.838 111.875  0.00  0.00     0.038 C 
ATOM      4  C   LIG d   1       1.321  83.589 110.894  0.00  0.00     0.028 C 
ATOM      5  C   LIG d   1       0.349  82.476 111.274  0.00  0.00    -0.047 C 
ATOM      6  C   LIG d   1      -0.223  82.768 112.680  0.00  0.00     0.091 C 
ENDROOT
BRANCH   1   7
ATOM      7  O   LIG d   1       0.397  83.640 114.884  0.00  0.00    -0.368 OA
BRANCH   7   8
ATOM      8  C   LIG d   1       0.868  83.160 116.167  0.00  0.00     0.119 C 
BRANCH   8   9
ATOM      9  C   LIG d   1       0.675  81.631 116.188  0.00  0.00     0.028 C 
ATOM     10  C   LIG d   1       1.951  80.884 116.609  0.00  0.00     0.006 C 
ENDBRANCH   8   9
BRANCH   8  11
ATOM     11  C   LIG d   1       0.004  83.693 117.314  0.00  0.00     0.028 C 
ATOM     12  C   LIG d   1      -1.333  82.947 117.450  0.00  0.00     0.006 C 
ENDBRANCH   8  11
ENDBRANCH   7   8
ENDBRANCH   1   7
BRANCH   6  13
ATOM     13  N   LIG d   1      -1.119  81.685 113.163  0.00  0.00    -0.311 N 
ATOM     14  C   LIG d   1      -2.247  81.911 113.833  0.00  0.00     0.210 C 
ATOM     15  C   LIG d   1      -3.012  80.653 114.257  0.00  0.00     0.109 C 
ATOM     16  O   LIG d   1      -2.705  83.035 114.089  0.00  0.00    -0.276 OA
ATOM     17  H   LIG d   1      -0.840  80.742 112.972  0.00  0.00     0.149 HD
ENDBRANCH   6  13
BRANCH   5  18
ATOM     18  N   LIG d   1      -0.690  82.416 110.228  0.00  0.00     0.381 N 
ATOM     19  H   LIG d   1      -1.585  82.262 110.648  0.00  0.00    -0.090 HD
ATOM     20  H   LIG d   1      -0.491  81.643 109.617  0.00  0.00    -0.090 HD
ATOM     21  H   LIG d   1      -0.701  83.266 109.709  0.00  0.00    -0.090 HD
ENDBRANCH   5  18
BRANCH   3  22
ATOM     22  C   LIG d   1       3.534  84.303 111.468  0.00  0.00     0.382 C 
ATOM     23  O   LIG d   1       3.705  84.680 110.284  0.00  0.00    -0.241 OA
ATOM     24  O   LIG d   1       4.497  84.308 112.258  0.00  0.00    -0.241 OA
ENDBRANCH   3  22
TORSDOF 7
ENDMDL
MODEL 9
REMARK VINA RESULT:      -3.8      3.468      5.109
REMARK  7 active torsions:
REMARK  status: ('A' for Active; 'I' for Inactive)
REMARK    1  A    between atoms: C_2  and  C_3 
REMARK    2  A    between atoms: C_3  and  O_6 
REMARK    3  A    between atoms: C_3  and  C_4 
REMARK    4  A    between atoms: C_7  and  O_6 
REMARK    5  A    between atoms: C_9  and  C_10 
REMARK    6  A    between atoms: N_15  and  C_14 
REMARK    7  A    between atoms: N_20  and  C_19 
REMARK       I    between atoms: C_22  and  N_20 
ROOT
ATOM      1  C   LIG d   1       0.776  83.723 114.081  0.00  0.00     0.161 C 
ATOM      2  C   LIG d   1       0.058  83.612 112.879  0.00  0.00     0.016 C 
ATOM      3  C   LIG d   1       0.645  83.780 111.604  0.00  0.00     0.038 C 
ATOM      4  C   LIG d   1       2.031  83.923 111.439  0.00  0.00     0.028 C 
ATOM      5  C   LIG d   1       2.725  84.544 112.646  0.00  0.00    -0.047 C 
ATOM      6  C   LIG d   1       2.310  83.768 113.917  0.00  0.00     0.091 C 
ENDROOT
BRANCH   1   7
ATOM      7  O   LIG d   1       0.398  82.658 114.976  0.00  0.00    -0.368 OA
BRANCH   7   8
ATOM      8  C   LIG d   1      -0.889  82.042 114.726  0.00  0.00     0.119 C 
BRANCH   8   9
ATOM      9  C   LIG d   1      -1.811  82.401 115.908  0.00  0.00     0.028 C 
ATOM     10  C   LIG d   1      -3.255  82.683 115.461  0.00  0.00     0.006 C 
ENDBRANCH   8   9
BRANCH   8  11
ATOM     11  C   LIG d   1      -0.788  80.514 114.740  0.00  0.00     0.028 C 
ATOM     12  C   LIG d   1      -1.200  79.878 113.403  0.00  0.00     0.006 C 
ENDBRANCH   8  11
ENDBRANCH   7   8
ENDBRANCH   1   7
BRANCH   6  13
ATOM     13  N   LIG d   1       2.877  84.363 115.155  0.00  0.00    -0.311 N 
ATOM     14  C   LIG d   1       3.533  83.656 116.074  0.00  0.00     0.210 C 
ATOM     15  C   LIG d   1       4.018  84.461 117.284  0.00  0.00     0.109 C 
ATOM     16  O   LIG d   1       3.787  82.445 115.987  0.00  0.00    -0.276 OA
ATOM     17  H   LIG d   1       2.744  85.346 115.292  0.00  0.00     0.149 HD
ENDBRANCH   6  13
BRANCH   5  18
ATOM     18  N   LIG d   1       4.177  84.506 112.395  0.00  0.00     0.381 N 
ATOM     19  H   LIG d   1       4.585  83.731 112.878  0.00  0.00    -0.090 HD
ATOM     20  H   LIG d   1       4.591  85.351 112.748  0.00  0.00    -0.090 HD
ATOM     21  H   LIG d   1       4.352  84.426 111.417  0.00  0.00    -0.090 HD
ENDBRANCH   5  18
BRANCH   3  22
ATOM     22  C   LIG d   1      -0.162  83.847 110.479  0.00  0.00     0.382 C 
ATOM     23  O   LIG d   1       0.243  84.442 109.451  0.00  0.00    -0.241 OA
ATOM     24  O   LIG d   1      -1.308  83.359 110.494  0.00  0.00    -0.241 OA
ENDBRANCH   3  22
TORSDOF 7
ENDMDL
