MODEL 1
REMARK VINA RESULT:      -4.6      0.000      0.000
REMARK  7 active torsions:
REMARK  status: ('A' for Active; 'I' for Inactive)
REMARK    1  A    between atoms: C_2  and  C_3 
REMARK    2  A    between atoms: C_3  and  O_6 
REMARK    3  A    between atoms: C_3  and  C_4 
REMARK    4  A    between atoms: C_7  and  O_6 
REMARK    5  A    between atoms: C_9  and  C_10 
REMARK    6  A    between atoms: N_15  and  C_14 
REMARK    7  A    between atoms: N_20  and  C_19 
REMARK       I    between atoms: C_22  and  N_20 
ROOT
ATOM      1  C   LIG d   1       1.582  81.754 112.943  0.00  0.00     0.161 C 
ATOM      2  C   LIG d   1       2.445  82.771 112.502  0.00  0.00     0.016 C 
ATOM      3  C   LIG d   1       2.486  83.231 111.165  0.00  0.00     0.038 C 
ATOM      4  C   LIG d   1       1.554  82.806 110.206  0.00  0.00     0.028 C 
ATOM      5  C   LIG d   1       0.995  81.414 110.480  0.00  0.00    -0.047 C 
ATOM      6  C   LIG d   1       0.482  81.357 111.937  0.00  0.00     0.091 C 
ENDROOT
BRANCH   1   7
ATOM      7  O   LIG d   1       0.995  82.126 114.206  0.00  0.00    -0.368 OA
BRANCH   7   8
ATOM      8  C   LIG d   1       1.832  81.947 115.375  0.00  0.00     0.119 C 
BRANCH   8   9
ATOM      9  C   LIG d   1       1.378  80.651 116.076  0.00  0.00     0.028 C 
ATOM     10  C   LIG d   1       2.407  79.517 115.938  0.00  0.00     0.006 C 
ENDBRANCH   8   9
BRANCH   8  11
ATOM     11  C   LIG d   1       1.605  83.062 116.399  0.00  0.00     0.028 C 
ATOM     12  C   LIG d   1       2.693  84.147 116.350  0.00  0.00     0.006 C 
ENDBRANCH   8  11
ENDBRANCH   7   8
ENDBRANCH   1   7
BRANCH   6  13
ATOM     13  N   LIG d   1      -0.004  80.004 112.314  0.00  0.00    -0.311 N 
ATOM     14  C   LIG d   1      -1.286  79.644 112.259  0.00  0.00     0.210 C 
ATOM     15  C   LIG d   1      -1.574  78.209 112.712  0.00  0.00     0.109 C 
ATOM     16  O   LIG d   1      -2.206  80.367 111.849  0.00  0.00    -0.276 OA
ATOM     17  H   LIG d   1       0.680  79.344 112.629  0.00  0.00     0.149 HD
ENDBRANCH   6  13
BRANCH   5  18
ATOM     18  N   LIG d   1      -0.062  81.154 109.484  0.00  0.00     0.381 N 
ATOM     19  H   LIG d   1       0.342  80.767 108.655  0.00  0.00    -0.090 HD
ATOM     20  H   LIG d   1      -0.503  82.024 109.244  0.00  0.00    -0.090 HD
ATOM     21  H   LIG d   1      -0.736  80.524 109.859  0.00  0.00    -0.090 HD
ENDBRANCH   5  18
BRANCH   3  22
ATOM     22  C   LIG d   1       3.493  84.097 110.767  0.00  0.00     0.382 C 
ATOM     23  O   LIG d   1       3.730  84.264 109.546  0.00  0.00    -0.241 OA
ATOM     24  O   LIG d   1       4.196  84.680 111.613  0.00  0.00    -0.241 OA
ENDBRANCH   3  22
TORSDOF 7
ENDMDL
MODEL 2
REMARK VINA RESULT:      -4.4      3.014      6.500
REMARK  7 active torsions:
REMARK  status: ('A' for Active; 'I' for Inactive)
REMARK    1  A    between atoms: C_2  and  C_3 
REMARK    2  A    between atoms: C_3  and  O_6 
REMARK    3  A    between atoms: C_3  and  C_4 
REMARK    4  A    between atoms: C_7  and  O_6 
REMARK    5  A    between atoms: C_9  and  C_10 
REMARK    6  A    between atoms: N_15  and  C_14 
REMARK    7  A    between atoms: N_20  and  C_19 
REMARK       I    between atoms: C_22  and  N_20 
ROOT
ATOM      1  C   LIG d   1      -0.469  78.355 114.427  0.00  0.00     0.161 C 
ATOM      2  C   LIG d   1      -0.930  77.150 114.984  0.00  0.00     0.016 C 
ATOM      3  C   LIG d   1      -1.895  76.325 114.362  0.00  0.00     0.038 C 
ATOM      4  C   LIG d   1      -2.356  76.574 113.060  0.00  0.00     0.028 C 
ATOM      5  C   LIG d   1      -2.297  78.047 112.669  0.00  0.00    -0.047 C 
ATOM      6  C   LIG d   1      -0.878  78.587 112.958  0.00  0.00     0.091 C 
ENDROOT
BRANCH   1   7
ATOM      7  O   LIG d   1       0.962  78.442 114.569  0.00  0.00    -0.368 OA
BRANCH   7   8
ATOM      8  C   LIG d   1       1.456  79.511 115.413  0.00  0.00     0.119 C 
BRANCH   8   9
ATOM      9  C   LIG d   1       2.358  80.409 114.544  0.00  0.00     0.028 C 
ATOM     10  C   LIG d   1       1.927  81.885 114.580  0.00  0.00     0.006 C 
ENDBRANCH   8   9
BRANCH   8  11
ATOM     11  C   LIG d   1       2.366  78.973 116.520  0.00  0.00     0.028 C 
ATOM     12  C   LIG d   1       2.724  77.490 116.329  0.00  0.00     0.006 C 
ENDBRANCH   8  11
ENDBRANCH   7   8
ENDBRANCH   1   7
BRANCH   6  13
ATOM     13  N   LIG d   1      -0.758  80.042 112.682  0.00  0.00    -0.311 N 
ATOM     14  C   LIG d   1      -0.501  80.540 111.473  0.00  0.00     0.210 C 
ATOM     15  C   LIG d   1      -0.399  82.068 111.412  0.00  0.00     0.109 C 
ATOM     16  O   LIG d   1      -0.380  79.865 110.441  0.00  0.00    -0.276 OA
ATOM     17  H   LIG d   1      -0.873  80.665 113.457  0.00  0.00     0.149 HD
ENDBRANCH   6  13
BRANCH   5  18
ATOM     18  N   LIG d   1      -2.675  78.145 111.246  0.00  0.00     0.381 N 
ATOM     19  H   LIG d   1      -2.685  77.233 110.835  0.00  0.00    -0.090 HD
ATOM     20  H   LIG d   1      -1.990  78.701 110.766  0.00  0.00    -0.090 HD
ATOM     21  H   LIG d   1      -3.574  78.566 111.161  0.00  0.00    -0.090 HD
ENDBRANCH   5  18
BRANCH   3  22
ATOM     22  C   LIG d   1      -2.439  75.257 115.060  0.00  0.00     0.382 C 
ATOM     23  O   LIG d   1      -2.087  75.038 116.244  0.00  0.00    -0.241 OA
ATOM     24  O   LIG d   1      -3.244  74.484 114.506  0.00  0.00    -0.241 OA
ENDBRANCH   3  22
TORSDOF 7
ENDMDL
MODEL 3
REMARK VINA RESULT:      -4.3      2.203      5.472
REMARK  7 active torsions:
REMARK  status: ('A' for Active; 'I' for Inactive)
REMARK    1  A    between atoms: C_2  and  C_3 
REMARK    2  A    between atoms: C_3  and  O_6 
REMARK    3  A    between atoms: C_3  and  C_4 
REMARK    4  A    between atoms: C_7  and  O_6 
REMARK    5  A    between atoms: C_9  and  C_10 
REMARK    6  A    between atoms: N_15  and  C_14 
REMARK    7  A    between atoms: N_20  and  C_19 
REMARK       I    between atoms: C_22  and  N_20 
ROOT
ATOM      1  C   LIG d   1       0.235  79.465 113.993  0.00  0.00     0.161 C 
ATOM      2  C   LIG d   1      -0.541  78.347 113.642  0.00  0.00     0.016 C 
ATOM      3  C   LIG d   1      -1.190  78.212 112.394  0.00  0.00     0.038 C 
ATOM      4  C   LIG d   1      -0.982  79.123 111.347  0.00  0.00     0.028 C 
ATOM      5  C   LIG d   1      -0.613  80.522 111.827  0.00  0.00    -0.047 C 
ATOM      6  C   LIG d   1       0.564  80.416 112.824  0.00  0.00     0.091 C 
ENDROOT
BRANCH   1   7
ATOM      7  O   LIG d   1       1.446  79.033 114.645  0.00  0.00    -0.368 OA
BRANCH   7   8
ATOM      8  C   LIG d   1       1.611  79.448 116.023  0.00  0.00     0.119 C 
BRANCH   8   9
ATOM      9  C   LIG d   1       2.908  80.276 116.106  0.00  0.00     0.028 C 
ATOM     10  C   LIG d   1       3.877  79.966 114.952  0.00  0.00     0.006 C 
ENDBRANCH   8   9
BRANCH   8  11
ATOM     11  C   LIG d   1       1.839  78.245 116.943  0.00  0.00     0.028 C 
ATOM     12  C   LIG d   1       1.931  76.917 116.175  0.00  0.00     0.006 C 
ENDBRANCH   8  11
ENDBRANCH   7   8
ENDBRANCH   1   7
BRANCH   6  13
ATOM     13  N   LIG d   1       0.933  81.733 113.407  0.00  0.00    -0.311 N 
ATOM     14  C   LIG d   1       1.941  82.477 112.955  0.00  0.00     0.210 C 
ATOM     15  C   LIG d   1       2.164  83.791 113.711  0.00  0.00     0.109 C 
ATOM     16  O   LIG d   1       2.651  82.190 111.980  0.00  0.00    -0.276 OA
ATOM     17  H   LIG d   1       0.389  82.058 114.182  0.00  0.00     0.149 HD
ENDBRANCH   6  13
BRANCH   5  18
ATOM     18  N   LIG d   1      -0.290  81.331 110.636  0.00  0.00     0.381 N 
ATOM     19  H   LIG d   1       0.182  82.168 110.913  0.00  0.00    -0.090 HD
ATOM     20  H   LIG d   1      -1.146  81.589 110.177  0.00  0.00    -0.090 HD
ATOM     21  H   LIG d   1       0.284  80.807 110.014  0.00  0.00    -0.090 HD
ENDBRANCH   5  18
BRANCH   3  22
ATOM     22  C   LIG d   1      -2.090  77.176 112.196  0.00  0.00     0.382 C 
ATOM     23  O   LIG d   1      -1.698  75.985 112.252  0.00  0.00    -0.241 OA
ATOM     24  O   LIG d   1      -3.280  77.417 111.919  0.00  0.00    -0.241 OA
ENDBRANCH   3  22
TORSDOF 7
ENDMDL
MODEL 4
REMARK VINA RESULT:      -4.2      6.194      7.813
REMARK  7 active torsions:
REMARK  status: ('A' for Active; 'I' for Inactive)
REMARK    1  A    between atoms: C_2  and  C_3 
REMARK    2  A    between atoms: C_3  and  O_6 
REMARK    3  A    between atoms: C_3  and  C_4 
REMARK    4  A    between atoms: C_7  and  O_6 
REMARK    5  A    between atoms: C_9  and  C_10 
REMARK    6  A    between atoms: N_15  and  C_14 
REMARK    7  A    between atoms: N_20  and  C_19 
REMARK       I    between atoms: C_22  and  N_20 
ROOT
ATOM      1  C   LIG d   1      -0.739  76.722 116.050  0.00  0.00     0.161 C 
ATOM      2  C   LIG d   1      -1.651  77.442 115.260  0.00  0.00     0.016 C 
ATOM      3  C   LIG d   1      -1.798  77.248 113.868  0.00  0.00     0.038 C 
ATOM      4  C   LIG d   1      -1.144  76.207 113.191  0.00  0.00     0.028 C 
ATOM      5  C   LIG d   1       0.164  75.783 113.851  0.00  0.00    -0.047 C 
ATOM      6  C   LIG d   1      -0.097  75.506 115.349  0.00  0.00     0.091 C 
ENDROOT
BRANCH   1   7
ATOM      7  O   LIG d   1      -1.371  76.315 117.279  0.00  0.00    -0.368 OA
BRANCH   7   8
ATOM      8  C   LIG d   1      -2.812  76.171 117.238  0.00  0.00     0.119 C 
BRANCH   8   9
ATOM      9  C   LIG d   1      -3.368  76.689 118.578  0.00  0.00     0.028 C 
ATOM     10  C   LIG d   1      -2.920  78.128 118.883  0.00  0.00     0.006 C 
ENDBRANCH   8   9
BRANCH   8  11
ATOM     11  C   LIG d   1      -3.223  74.697 117.170  0.00  0.00     0.028 C 
ATOM     12  C   LIG d   1      -3.440  74.204 115.731  0.00  0.00     0.006 C 
ENDBRANCH   8  11
ENDBRANCH   7   8
ENDBRANCH   1   7
BRANCH   6  13
ATOM     13  N   LIG d   1       1.148  75.167 116.088  0.00  0.00    -0.311 N 
ATOM     14  C   LIG d   1       2.164  76.014 116.240  0.00  0.00     0.210 C 
ATOM     15  C   LIG d   1       3.359  75.457 117.019  0.00  0.00     0.109 C 
ATOM     16  O   LIG d   1       2.175  77.185 115.832  0.00  0.00    -0.276 OA
ATOM     17  H   LIG d   1       1.210  74.247 116.479  0.00  0.00     0.149 HD
ENDBRANCH   6  13
BRANCH   5  18
ATOM     18  N   LIG d   1       0.668  74.603 113.124  0.00  0.00     0.381 N 
ATOM     19  H   LIG d   1       0.823  74.838 112.164  0.00  0.00    -0.090 HD
ATOM     20  H   LIG d   1      -0.025  73.877 113.163  0.00  0.00    -0.090 HD
ATOM     21  H   LIG d   1       1.517  74.285 113.537  0.00  0.00    -0.090 HD
ENDBRANCH   5  18
BRANCH   3  22
ATOM     22  C   LIG d   1      -2.576  78.126 113.129  0.00  0.00     0.382 C 
ATOM     23  O   LIG d   1      -2.845  79.263 113.588  0.00  0.00    -0.241 OA
ATOM     24  O   LIG d   1      -3.050  77.780 112.030  0.00  0.00    -0.241 OA
ENDBRANCH   3  22
TORSDOF 7
ENDMDL
MODEL 5
REMARK VINA RESULT:      -4.2      5.852      7.046
REMARK  7 active torsions:
REMARK  status: ('A' for Active; 'I' for Inactive)
REMARK    1  A    between atoms: C_2  and  C_3 
REMARK    2  A    between atoms: C_3  and  O_6 
REMARK    3  A    between atoms: C_3  and  C_4 
REMARK    4  A    between atoms: C_7  and  O_6 
REMARK    5  A    between atoms: C_9  and  C_10 
REMARK    6  A    between atoms: N_15  and  C_14 
REMARK    7  A    between atoms: N_20  and  C_19 
REMARK       I    between atoms: C_22  and  N_20 
ROOT
ATOM      1  C   LIG d   1      -1.268  77.656 115.857  0.00  0.00     0.161 C 
ATOM      2  C   LIG d   1      -2.087  78.272 114.897  0.00  0.00     0.016 C 
ATOM      3  C   LIG d   1      -2.133  77.872 113.541  0.00  0.00     0.038 C 
ATOM      4  C   LIG d   1      -1.470  76.724 113.084  0.00  0.00     0.028 C 
ATOM      5  C   LIG d   1      -0.234  76.370 113.906  0.00  0.00    -0.047 C 
ATOM      6  C   LIG d   1      -0.621  76.331 115.402  0.00  0.00     0.091 C 
ENDROOT
BRANCH   1   7
ATOM      7  O   LIG d   1      -2.009  77.459 117.077  0.00  0.00    -0.368 OA
BRANCH   7   8
ATOM      8  C   LIG d   1      -1.619  78.286 118.201  0.00  0.00     0.119 C 
BRANCH   8   9
ATOM      9  C   LIG d   1      -1.314  77.347 119.384  0.00  0.00     0.028 C 
ATOM     10  C   LIG d   1      -2.272  76.145 119.441  0.00  0.00     0.006 C 
ENDBRANCH   8   9
BRANCH   8  11
ATOM     11  C   LIG d   1      -2.779  79.168 118.672  0.00  0.00     0.028 C 
ATOM     12  C   LIG d   1      -2.313  80.532 119.204  0.00  0.00     0.006 C 
ENDBRANCH   8  11
ENDBRANCH   7   8
ENDBRANCH   1   7
BRANCH   6  13
ATOM     13  N   LIG d   1       0.548  76.075 116.283  0.00  0.00    -0.311 N 
ATOM     14  C   LIG d   1       0.613  75.054 117.136  0.00  0.00     0.210 C 
ATOM     15  C   LIG d   1       1.900  74.985 117.964  0.00  0.00     0.109 C 
ATOM     16  O   LIG d   1      -0.258  74.180 117.261  0.00  0.00    -0.276 OA
ATOM     17  H   LIG d   1       1.314  76.717 116.223  0.00  0.00     0.149 HD
ENDBRANCH   6  13
BRANCH   5  18
ATOM     18  N   LIG d   1       0.278  75.080 113.407  0.00  0.00     0.381 N 
ATOM     19  H   LIG d   1       0.765  75.220 112.544  0.00  0.00    -0.090 HD
ATOM     20  H   LIG d   1      -0.498  74.466 113.236  0.00  0.00    -0.090 HD
ATOM     21  H   LIG d   1       0.891  74.674 114.080  0.00  0.00    -0.090 HD
ENDBRANCH   5  18
BRANCH   3  22
ATOM     22  C   LIG d   1      -2.817  78.649 112.618  0.00  0.00     0.382 C 
ATOM     23  O   LIG d   1      -3.155  78.159 111.514  0.00  0.00    -0.241 OA
ATOM     24  O   LIG d   1      -3.061  79.847 112.858  0.00  0.00    -0.241 OA
ENDBRANCH   3  22
TORSDOF 7
ENDMDL
MODEL 6
REMARK VINA RESULT:      -4.2      5.115      6.748
REMARK  7 active torsions:
REMARK  status: ('A' for Active; 'I' for Inactive)
REMARK    1  A    between atoms: C_2  and  C_3 
REMARK    2  A    between atoms: C_3  and  O_6 
REMARK    3  A    between atoms: C_3  and  C_4 
REMARK    4  A    between atoms: C_7  and  O_6 
REMARK    5  A    between atoms: C_9  and  C_10 
REMARK    6  A    between atoms: N_15  and  C_14 
REMARK    7  A    between atoms: N_20  and  C_19 
REMARK       I    between atoms: C_22  and  N_20 
ROOT
ATOM      1  C   LIG d   1       0.935  77.829 115.433  0.00  0.00     0.161 C 
ATOM      2  C   LIG d   1       0.032  78.507 114.598  0.00  0.00     0.016 C 
ATOM      3  C   LIG d   1      -0.837  77.851 113.696  0.00  0.00     0.038 C 
ATOM      4  C   LIG d   1      -0.969  76.455 113.676  0.00  0.00     0.028 C 
ATOM      5  C   LIG d   1       0.284  75.721 114.143  0.00  0.00    -0.047 C 
ATOM      6  C   LIG d   1       0.727  76.302 115.505  0.00  0.00     0.091 C 
ENDROOT
BRANCH   1   7
ATOM      7  O   LIG d   1       0.903  78.402 116.755  0.00  0.00    -0.368 OA
BRANCH   7   8
ATOM      8  C   LIG d   1      -0.349  79.010 117.156  0.00  0.00     0.119 C 
BRANCH   8   9
ATOM      9  C   LIG d   1      -0.011  80.289 117.946  0.00  0.00     0.028 C 
ATOM     10  C   LIG d   1      -1.202  80.798 118.776  0.00  0.00     0.006 C 
ENDBRANCH   8   9
BRANCH   8  11
ATOM     11  C   LIG d   1      -1.112  78.116 118.139  0.00  0.00     0.028 C 
ATOM     12  C   LIG d   1      -2.281  77.367 117.479  0.00  0.00     0.006 C 
ENDBRANCH   8  11
ENDBRANCH   7   8
ENDBRANCH   1   7
BRANCH   6  13
ATOM     13  N   LIG d   1       1.994  75.698 115.994  0.00  0.00    -0.311 N 
ATOM     14  C   LIG d   1       2.157  75.239 117.234  0.00  0.00     0.210 C 
ATOM     15  C   LIG d   1       3.548  74.674 117.536  0.00  0.00     0.109 C 
ATOM     16  O   LIG d   1       1.272  75.218 118.102  0.00  0.00    -0.276 OA
ATOM     17  H   LIG d   1       2.755  75.647 115.345  0.00  0.00     0.149 HD
ENDBRANCH   6  13
BRANCH   5  18
ATOM     18  N   LIG d   1      -0.039  74.283 114.204  0.00  0.00     0.381 N 
ATOM     19  H   LIG d   1      -0.944  74.122 113.810  0.00  0.00    -0.090 HD
ATOM     20  H   LIG d   1      -0.058  73.995 115.167  0.00  0.00    -0.090 HD
ATOM     21  H   LIG d   1       0.647  73.759 113.707  0.00  0.00    -0.090 HD
ENDBRANCH   5  18
BRANCH   3  22
ATOM     22  C   LIG d   1      -1.557  78.594 112.772  0.00  0.00     0.382 C 
ATOM     23  O   LIG d   1      -1.143  78.699 111.592  0.00  0.00    -0.241 OA
ATOM     24  O   LIG d   1      -2.592  79.196 113.114  0.00  0.00    -0.241 OA
ENDBRANCH   3  22
TORSDOF 7
ENDMDL
MODEL 7
REMARK VINA RESULT:      -4.2      4.537      7.810
REMARK  7 active torsions:
REMARK  status: ('A' for Active; 'I' for Inactive)
REMARK    1  A    between atoms: C_2  and  C_3 
REMARK    2  A    between atoms: C_3  and  O_6 
REMARK    3  A    between atoms: C_3  and  C_4 
REMARK    4  A    between atoms: C_7  and  O_6 
REMARK    5  A    between atoms: C_9  and  C_10 
REMARK    6  A    between atoms: N_15  and  C_14 
REMARK    7  A    between atoms: N_20  and  C_19 
REMARK       I    between atoms: C_22  and  N_20 
ROOT
ATOM      1  C   LIG d   1       2.438  76.707 116.187  0.00  0.00     0.161 C 
ATOM      2  C   LIG d   1       1.380  75.834 115.887  0.00  0.00     0.016 C 
ATOM      3  C   LIG d   1       0.265  76.204 115.100  0.00  0.00     0.038 C 
ATOM      4  C   LIG d   1       0.207  77.436 114.430  0.00  0.00     0.028 C 
ATOM      5  C   LIG d   1       1.013  78.535 115.113  0.00  0.00    -0.047 C 
ATOM      6  C   LIG d   1       2.446  78.018 115.374  0.00  0.00     0.091 C 
ENDROOT
BRANCH   1   7
ATOM      7  O   LIG d   1       3.696  76.019 116.040  0.00  0.00    -0.368 OA
BRANCH   7   8
ATOM      8  C   LIG d   1       4.395  75.698 117.268  0.00  0.00     0.119 C 
BRANCH   8   9
ATOM      9  C   LIG d   1       5.905  75.731 116.964  0.00  0.00     0.028 C 
ATOM     10  C   LIG d   1       6.264  76.770 115.888  0.00  0.00     0.006 C 
ENDBRANCH   8   9
BRANCH   8  11
ATOM     11  C   LIG d   1       4.103  74.262 117.716  0.00  0.00     0.028 C 
ATOM     12  C   LIG d   1       3.611  74.180 119.170  0.00  0.00     0.006 C 
ENDBRANCH   8  11
ENDBRANCH   7   8
ENDBRANCH   1   7
BRANCH   6  13
ATOM     13  N   LIG d   1       3.277  79.003 116.115  0.00  0.00    -0.311 N 
ATOM     14  C   LIG d   1       4.077  79.884 115.518  0.00  0.00     0.210 C 
ATOM     15  C   LIG d   1       4.861  80.794 116.468  0.00  0.00     0.109 C 
ATOM     16  O   LIG d   1       4.187  80.021 114.290  0.00  0.00    -0.276 OA
ATOM     17  H   LIG d   1       3.225  78.982 117.115  0.00  0.00     0.149 HD
ENDBRANCH   6  13
BRANCH   5  18
ATOM     18  N   LIG d   1       0.977  79.723 114.238  0.00  0.00     0.381 N 
ATOM     19  H   LIG d   1       0.280  80.363 114.565  0.00  0.00    -0.090 HD
ATOM     20  H   LIG d   1       0.729  79.434 113.309  0.00  0.00    -0.090 HD
ATOM     21  H   LIG d   1       1.868  80.167 114.229  0.00  0.00    -0.090 HD
ENDBRANCH   5  18
BRANCH   3  22
ATOM     22  C   LIG d   1      -0.825  75.353 115.009  0.00  0.00     0.382 C 
ATOM     23  O   LIG d   1      -1.567  75.389 113.998  0.00  0.00    -0.241 OA
ATOM     24  O   LIG d   1      -1.103  74.580 115.946  0.00  0.00    -0.241 OA
ENDBRANCH   3  22
TORSDOF 7
ENDMDL
MODEL 8
REMARK VINA RESULT:      -4.1      4.892      6.513
REMARK  7 active torsions:
REMARK  status: ('A' for Active; 'I' for Inactive)
REMARK    1  A    between atoms: C_2  and  C_3 
REMARK    2  A    between atoms: C_3  and  O_6 
REMARK    3  A    between atoms: C_3  and  C_4 
REMARK    4  A    between atoms: C_7  and  O_6 
REMARK    5  A    between atoms: C_9  and  C_10 
REMARK    6  A    between atoms: N_15  and  C_14 
REMARK    7  A    between atoms: N_20  and  C_19 
REMARK       I    between atoms: C_22  and  N_20 
ROOT
ATOM      1  C   LIG d   1       1.118  77.833 115.362  0.00  0.00     0.161 C 
ATOM      2  C   LIG d   1       0.179  78.516 114.572  0.00  0.00     0.016 C 
ATOM      3  C   LIG d   1      -0.786  77.864 113.770  0.00  0.00     0.038 C 
ATOM      4  C   LIG d   1      -0.975  76.475 113.822  0.00  0.00     0.028 C 
ATOM      5  C   LIG d   1       0.281  75.706 114.220  0.00  0.00    -0.047 C 
ATOM      6  C   LIG d   1       0.855  76.320 115.517  0.00  0.00     0.091 C 
ENDROOT
BRANCH   1   7
ATOM      7  O   LIG d   1       1.216  78.460 116.656  0.00  0.00    -0.368 OA
BRANCH   7   8
ATOM      8  C   LIG d   1       2.441  79.188 116.921  0.00  0.00     0.119 C 
BRANCH   8   9
ATOM      9  C   LIG d   1       2.103  80.691 116.880  0.00  0.00     0.028 C 
ATOM     10  C   LIG d   1       0.690  80.989 117.409  0.00  0.00     0.006 C 
ENDBRANCH   8   9
BRANCH   8  11
ATOM     11  C   LIG d   1       3.469  78.973 115.806  0.00  0.00     0.028 C 
ATOM     12  C   LIG d   1       4.738  78.258 116.296  0.00  0.00     0.006 C 
ENDBRANCH   8  11
ENDBRANCH   7   8
ENDBRANCH   1   7
BRANCH   6  13
ATOM     13  N   LIG d   1       2.132  75.682 115.930  0.00  0.00    -0.311 N 
ATOM     14  C   LIG d   1       2.402  75.328 117.185  0.00  0.00     0.210 C 
ATOM     15  C   LIG d   1       3.785  74.703 117.397  0.00  0.00     0.109 C 
ATOM     16  O   LIG d   1       1.616  75.444 118.138  0.00  0.00    -0.276 OA
ATOM     17  H   LIG d   1       2.814  75.522 115.215  0.00  0.00     0.149 HD
ENDBRANCH   6  13
BRANCH   5  18
ATOM     18  N   LIG d   1      -0.093  74.287 114.368  0.00  0.00     0.381 N 
ATOM     19  H   LIG d   1       0.728  73.717 114.353  0.00  0.00    -0.090 HD
ATOM     20  H   LIG d   1      -0.676  74.022 113.594  0.00  0.00    -0.090 HD
ATOM     21  H   LIG d   1      -0.585  74.152 115.224  0.00  0.00    -0.090 HD
ENDBRANCH   5  18
BRANCH   3  22
ATOM     22  C   LIG d   1      -1.547  78.599 112.875  0.00  0.00     0.382 C 
ATOM     23  O   LIG d   1      -2.600  79.161 113.261  0.00  0.00    -0.241 OA
ATOM     24  O   LIG d   1      -1.217  78.672 111.676  0.00  0.00    -0.241 OA
ENDBRANCH   3  22
TORSDOF 7
ENDMDL
MODEL 9
REMARK VINA RESULT:      -4.1      4.747      7.185
REMARK  7 active torsions:
REMARK  status: ('A' for Active; 'I' for Inactive)
REMARK    1  A    between atoms: C_2  and  C_3 
REMARK    2  A    between atoms: C_3  and  O_6 
REMARK    3  A    between atoms: C_3  and  C_4 
REMARK    4  A    between atoms: C_7  and  O_6 
REMARK    5  A    between atoms: C_9  and  C_10 
REMARK    6  A    between atoms: N_15  and  C_14 
REMARK    7  A    between atoms: N_20  and  C_19 
REMARK       I    between atoms: C_22  and  N_20 
ROOT
ATOM      1  C   LIG d   1      -1.289  77.619 115.768  0.00  0.00     0.161 C 
ATOM      2  C   LIG d   1      -2.064  77.903 114.631  0.00  0.00     0.016 C 
ATOM      3  C   LIG d   1      -1.584  78.642 113.526  0.00  0.00     0.038 C 
ATOM      4  C   LIG d   1      -0.237  79.020 113.416  0.00  0.00     0.028 C 
ATOM      5  C   LIG d   1       0.455  79.194 114.764  0.00  0.00    -0.047 C 
ATOM      6  C   LIG d   1       0.215  77.928 115.618  0.00  0.00     0.091 C 
ENDROOT
BRANCH   1   7
ATOM      7  O   LIG d   1      -1.482  76.245 116.160  0.00  0.00    -0.368 OA
BRANCH   7   8
ATOM      8  C   LIG d   1      -1.761  75.310 115.089  0.00  0.00     0.119 C 
BRANCH   8   9
ATOM      9  C   LIG d   1      -2.815  74.313 115.609  0.00  0.00     0.028 C 
ATOM     10  C   LIG d   1      -3.438  74.759 116.942  0.00  0.00     0.006 C 
ENDBRANCH   8   9
BRANCH   8  11
ATOM     11  C   LIG d   1      -0.531  74.462 114.755  0.00  0.00     0.028 C 
ATOM     12  C   LIG d   1       0.227  74.973 113.520  0.00  0.00     0.006 C 
ENDBRANCH   8  11
ENDBRANCH   7   8
ENDBRANCH   1   7
BRANCH   6  13
ATOM     13  N   LIG d   1       0.788  78.048 116.984  0.00  0.00    -0.311 N 
ATOM     14  C   LIG d   1       2.006  77.618 117.309  0.00  0.00     0.210 C 
ATOM     15  C   LIG d   1       2.393  77.822 118.777  0.00  0.00     0.109 C 
ATOM     16  O   LIG d   1       2.815  77.117 116.514  0.00  0.00    -0.276 OA
ATOM     17  H   LIG d   1       0.211  78.472 117.685  0.00  0.00     0.149 HD
ENDBRANCH   6  13
BRANCH   5  18
ATOM     18  N   LIG d   1       1.883  79.452 114.502  0.00  0.00     0.381 N 
ATOM     19  H   LIG d   1       2.432  79.138 115.277  0.00  0.00    -0.090 HD
ATOM     20  H   LIG d   1       2.021  80.442 114.399  0.00  0.00    -0.090 HD
ATOM     21  H   LIG d   1       2.168  78.982 113.671  0.00  0.00    -0.090 HD
ENDBRANCH   5  18
BRANCH   3  22
ATOM     22  C   LIG d   1      -2.464  79.045 112.533  0.00  0.00     0.382 C 
ATOM     23  O   LIG d   1      -3.129  80.099 112.675  0.00  0.00    -0.241 OA
ATOM     24  O   LIG d   1      -2.634  78.344 111.518  0.00  0.00    -0.241 OA
ENDBRANCH   3  22
TORSDOF 7
ENDMDL
