MODEL 1
REMARK VINA RESULT:      -5.5      0.000      0.000
REMARK  7 active torsions:
REMARK  status: ('A' for Active; 'I' for Inactive)
REMARK    1  A    between atoms: C_2  and  C_3 
REMARK    2  A    between atoms: C_3  and  O_6 
REMARK    3  A    between atoms: C_3  and  C_4 
REMARK    4  A    between atoms: C_7  and  O_6 
REMARK    5  A    between atoms: C_9  and  C_10 
REMARK    6  A    between atoms: N_15  and  C_14 
REMARK    7  A    between atoms: N_20  and  C_19 
REMARK       I    between atoms: C_22  and  N_20 
ROOT
ATOM      1  C   LIG d   1      -0.303  81.067 112.234  0.00  0.00     0.161 C 
ATOM      2  C   LIG d   1      -1.379  80.183 112.417  0.00  0.00     0.016 C 
ATOM      3  C   LIG d   1      -1.531  78.981 111.688  0.00  0.00     0.038 C 
ATOM      4  C   LIG d   1      -0.532  78.504 110.827  0.00  0.00     0.028 C 
ATOM      5  C   LIG d   1       0.335  79.610 110.234  0.00  0.00    -0.047 C 
ATOM      6  C   LIG d   1       0.854  80.509 111.379  0.00  0.00     0.091 C 
ENDROOT
BRANCH   1   7
ATOM      7  O   LIG d   1       0.189  81.510 113.514  0.00  0.00    -0.368 OA
BRANCH   7   8
ATOM      8  C   LIG d   1       1.224  80.695 114.117  0.00  0.00     0.119 C 
BRANCH   8   9
ATOM      9  C   LIG d   1       0.543  79.762 115.137  0.00  0.00     0.028 C 
ATOM     10  C   LIG d   1      -0.386  80.522 116.098  0.00  0.00     0.006 C 
ENDBRANCH   8   9
BRANCH   8  11
ATOM     11  C   LIG d   1       2.199  81.547 114.934  0.00  0.00     0.028 C 
ATOM     12  C   LIG d   1       2.592  82.851 114.222  0.00  0.00     0.006 C 
ENDBRANCH   8  11
ENDBRANCH   7   8
ENDBRANCH   1   7
BRANCH   6  13
ATOM     13  N   LIG d   1       1.642  81.666 110.878  0.00  0.00    -0.311 N 
ATOM     14  C   LIG d   1       2.973  81.686 110.843  0.00  0.00     0.210 C 
ATOM     15  C   LIG d   1       3.586  82.984 110.308  0.00  0.00     0.109 C 
ATOM     16  O   LIG d   1       3.704  80.739 111.172  0.00  0.00    -0.276 OA
ATOM     17  H   LIG d   1       1.128  82.465 110.562  0.00  0.00     0.149 HD
ENDBRANCH   6  13
BRANCH   5  18
ATOM     18  N   LIG d   1       1.418  78.965 109.468  0.00  0.00     0.381 N 
ATOM     19  H   LIG d   1       2.295  79.123 109.923  0.00  0.00    -0.090 HD
ATOM     20  H   LIG d   1       1.459  79.377 108.553  0.00  0.00    -0.090 HD
ATOM     21  H   LIG d   1       1.246  77.986 109.393  0.00  0.00    -0.090 HD
ENDBRANCH   5  18
BRANCH   3  22
ATOM     22  C   LIG d   1      -2.713  78.262 111.788  0.00  0.00     0.382 C 
ATOM     23  O   LIG d   1      -3.413  78.346 112.826  0.00  0.00    -0.241 OA
ATOM     24  O   LIG d   1      -3.066  77.496 110.871  0.00  0.00    -0.241 OA
ENDBRANCH   3  22
TORSDOF 7
ENDMDL
MODEL 2
REMARK VINA RESULT:      -5.4      1.940      3.843
REMARK  7 active torsions:
REMARK  status: ('A' for Active; 'I' for Inactive)
REMARK    1  A    between atoms: C_2  and  C_3 
REMARK    2  A    between atoms: C_3  and  O_6 
REMARK    3  A    between atoms: C_3  and  C_4 
REMARK    4  A    between atoms: C_7  and  O_6 
REMARK    5  A    between atoms: C_9  and  C_10 
REMARK    6  A    between atoms: N_15  and  C_14 
REMARK    7  A    between atoms: N_20  and  C_19 
REMARK       I    between atoms: C_22  and  N_20 
ROOT
ATOM      1  C   LIG d   1       0.544  80.425 111.406  0.00  0.00     0.161 C 
ATOM      2  C   LIG d   1      -0.422  79.431 111.173  0.00  0.00     0.016 C 
ATOM      3  C   LIG d   1      -1.292  78.941 112.175  0.00  0.00     0.038 C 
ATOM      4  C   LIG d   1      -1.357  79.523 113.450  0.00  0.00     0.028 C 
ATOM      5  C   LIG d   1      -0.053  80.187 113.880  0.00  0.00    -0.047 C 
ATOM      6  C   LIG d   1       0.412  81.149 112.762  0.00  0.00     0.091 C 
ENDROOT
BRANCH   1   7
ATOM      7  O   LIG d   1       0.534  81.378 110.326  0.00  0.00    -0.368 OA
BRANCH   7   8
ATOM      8  C   LIG d   1       1.685  81.355 109.445  0.00  0.00     0.119 C 
BRANCH   8   9
ATOM      9  C   LIG d   1       2.693  80.346 110.027  0.00  0.00     0.028 C 
ATOM     10  C   LIG d   1       4.059  80.986 110.326  0.00  0.00     0.006 C 
ENDBRANCH   8   9
BRANCH   8  11
ATOM     11  C   LIG d   1       2.414  82.702 109.446  0.00  0.00     0.028 C 
ATOM     12  C   LIG d   1       1.451  83.901 109.436  0.00  0.00     0.006 C 
ENDBRANCH   8  11
ENDBRANCH   7   8
ENDBRANCH   1   7
BRANCH   6  13
ATOM     13  N   LIG d   1       1.724  81.778 113.066  0.00  0.00    -0.311 N 
ATOM     14  C   LIG d   1       1.933  83.093 113.031  0.00  0.00     0.210 C 
ATOM     15  C   LIG d   1       3.364  83.529 113.357  0.00  0.00     0.109 C 
ATOM     16  O   LIG d   1       1.060  83.941 112.791  0.00  0.00    -0.276 OA
ATOM     17  H   LIG d   1       2.480  81.165 113.301  0.00  0.00     0.149 HD
ENDBRANCH   6  13
BRANCH   5  18
ATOM     18  N   LIG d   1      -0.303  80.870 115.163  0.00  0.00     0.381 N 
ATOM     19  H   LIG d   1      -1.021  81.557 115.047  0.00  0.00    -0.090 HD
ATOM     20  H   LIG d   1       0.538  81.338 115.452  0.00  0.00    -0.090 HD
ATOM     21  H   LIG d   1      -0.577  80.207 115.854  0.00  0.00    -0.090 HD
ENDBRANCH   5  18
BRANCH   3  22
ATOM     22  C   LIG d   1      -2.080  77.831 111.916  0.00  0.00     0.382 C 
ATOM     23  O   LIG d   1      -1.572  76.806 111.401  0.00  0.00    -0.241 OA
ATOM     24  O   LIG d   1      -3.303  77.856 112.152  0.00  0.00    -0.241 OA
ENDBRANCH   3  22
TORSDOF 7
ENDMDL
MODEL 3
REMARK VINA RESULT:      -5.1      1.696      4.751
REMARK  7 active torsions:
REMARK  status: ('A' for Active; 'I' for Inactive)
REMARK    1  A    between atoms: C_2  and  C_3 
REMARK    2  A    between atoms: C_3  and  O_6 
REMARK    3  A    between atoms: C_3  and  C_4 
REMARK    4  A    between atoms: C_7  and  O_6 
REMARK    5  A    between atoms: C_9  and  C_10 
REMARK    6  A    between atoms: N_15  and  C_14 
REMARK    7  A    between atoms: N_20  and  C_19 
REMARK       I    between atoms: C_22  and  N_20 
ROOT
ATOM      1  C   LIG d   1       0.770  80.222 112.979  0.00  0.00     0.161 C 
ATOM      2  C   LIG d   1       1.925  80.890 112.538  0.00  0.00     0.016 C 
ATOM      3  C   LIG d   1       2.275  81.022 111.174  0.00  0.00     0.038 C 
ATOM      4  C   LIG d   1       1.410  80.621 110.145  0.00  0.00     0.028 C 
ATOM      5  C   LIG d   1       0.470  79.491 110.549  0.00  0.00    -0.047 C 
ATOM      6  C   LIG d   1      -0.241  79.876 111.866  0.00  0.00     0.091 C 
ENDROOT
BRANCH   1   7
ATOM      7  O   LIG d   1       0.130  80.988 114.018  0.00  0.00    -0.368 OA
BRANCH   7   8
ATOM      8  C   LIG d   1       0.020  80.341 115.310  0.00  0.00     0.119 C 
BRANCH   8   9
ATOM      9  C   LIG d   1      -1.398  80.617 115.847  0.00  0.00     0.028 C 
ATOM     10  C   LIG d   1      -2.073  79.351 116.401  0.00  0.00     0.006 C 
ENDBRANCH   8   9
BRANCH   8  11
ATOM     11  C   LIG d   1       0.970  80.973 116.332  0.00  0.00     0.028 C 
ATOM     12  C   LIG d   1       2.360  80.317 116.338  0.00  0.00     0.006 C 
ENDBRANCH   8  11
ENDBRANCH   7   8
ENDBRANCH   1   7
BRANCH   6  13
ATOM     13  N   LIG d   1      -1.117  78.789 112.377  0.00  0.00    -0.311 N 
ATOM     14  C   LIG d   1      -2.414  78.951 112.631  0.00  0.00     0.210 C 
ATOM     15  C   LIG d   1      -3.128  77.707 113.170  0.00  0.00     0.109 C 
ATOM     16  O   LIG d   1      -3.049  79.998 112.432  0.00  0.00    -0.276 OA
ATOM     17  H   LIG d   1      -0.690  77.897 112.537  0.00  0.00     0.149 HD
ENDBRANCH   6  13
BRANCH   5  18
ATOM     18  N   LIG d   1      -0.466  79.268 109.430  0.00  0.00     0.381 N 
ATOM     19  H   LIG d   1       0.045  79.031 108.604  0.00  0.00    -0.090 HD
ATOM     20  H   LIG d   1      -0.972  80.119 109.256  0.00  0.00    -0.090 HD
ATOM     21  H   LIG d   1      -1.102  78.536 109.658  0.00  0.00    -0.090 HD
ENDBRANCH   5  18
BRANCH   3  22
ATOM     22  C   LIG d   1       3.521  81.523 110.830  0.00  0.00     0.382 C 
ATOM     23  O   LIG d   1       4.174  82.202 111.658  0.00  0.00    -0.241 OA
ATOM     24  O   LIG d   1       3.981  81.342 109.687  0.00  0.00    -0.241 OA
ENDBRANCH   3  22
TORSDOF 7
ENDMDL
MODEL 4
REMARK VINA RESULT:      -5.0      1.752      2.549
REMARK  7 active torsions:
REMARK  status: ('A' for Active; 'I' for Inactive)
REMARK    1  A    between atoms: C_2  and  C_3 
REMARK    2  A    between atoms: C_3  and  O_6 
REMARK    3  A    between atoms: C_3  and  C_4 
REMARK    4  A    between atoms: C_7  and  O_6 
REMARK    5  A    between atoms: C_9  and  C_10 
REMARK    6  A    between atoms: N_15  and  C_14 
REMARK    7  A    between atoms: N_20  and  C_19 
REMARK       I    between atoms: C_22  and  N_20 
ROOT
ATOM      1  C   LIG d   1       1.264  81.315 112.679  0.00  0.00     0.161 C 
ATOM      2  C   LIG d   1      -0.057  81.229 113.148  0.00  0.00     0.016 C 
ATOM      3  C   LIG d   1      -1.044  80.412 112.549  0.00  0.00     0.038 C 
ATOM      4  C   LIG d   1      -0.734  79.505 111.525  0.00  0.00     0.028 C 
ATOM      5  C   LIG d   1       0.469  79.926 110.687  0.00  0.00    -0.047 C 
ATOM      6  C   LIG d   1       1.649  80.250 111.632  0.00  0.00     0.091 C 
ENDROOT
BRANCH   1   7
ATOM      7  O   LIG d   1       2.181  81.280 113.791  0.00  0.00    -0.368 OA
BRANCH   7   8
ATOM      8  C   LIG d   1       2.187  82.447 114.649  0.00  0.00     0.119 C 
BRANCH   8   9
ATOM      9  C   LIG d   1       3.553  83.140 114.477  0.00  0.00     0.028 C 
ATOM     10  C   LIG d   1       3.680  83.859 113.123  0.00  0.00     0.006 C 
ENDBRANCH   8   9
BRANCH   8  11
ATOM     11  C   LIG d   1       2.116  82.052 116.127  0.00  0.00     0.028 C 
ATOM     12  C   LIG d   1       3.110  80.939 116.495  0.00  0.00     0.006 C 
ENDBRANCH   8  11
ENDBRANCH   7   8
ENDBRANCH   1   7
BRANCH   6  13
ATOM     13  N   LIG d   1       2.841  80.750 110.898  0.00  0.00    -0.311 N 
ATOM     14  C   LIG d   1       2.821  81.827 110.115  0.00  0.00     0.210 C 
ATOM     15  C   LIG d   1       4.154  82.158 109.436  0.00  0.00     0.109 C 
ATOM     16  O   LIG d   1       1.834  82.559 109.943  0.00  0.00    -0.276 OA
ATOM     17  H   LIG d   1       3.693  80.235 111.006  0.00  0.00     0.149 HD
ENDBRANCH   6  13
BRANCH   5  18
ATOM     18  N   LIG d   1       0.765  78.827 109.749  0.00  0.00     0.381 N 
ATOM     19  H   LIG d   1       1.602  79.031 109.241  0.00  0.00    -0.090 HD
ATOM     20  H   LIG d   1       0.009  78.749 109.091  0.00  0.00    -0.090 HD
ATOM     21  H   LIG d   1       0.870  77.971 110.248  0.00  0.00    -0.090 HD
ENDBRANCH   5  18
BRANCH   3  22
ATOM     22  C   LIG d   1      -2.367  80.527 112.949  0.00  0.00     0.382 C 
ATOM     23  O   LIG d   1      -2.896  79.619 113.633  0.00  0.00    -0.241 OA
ATOM     24  O   LIG d   1      -3.050  81.507 112.596  0.00  0.00    -0.241 OA
ENDBRANCH   3  22
TORSDOF 7
ENDMDL
MODEL 5
REMARK VINA RESULT:      -5.0      2.899      5.828
REMARK  7 active torsions:
REMARK  status: ('A' for Active; 'I' for Inactive)
REMARK    1  A    between atoms: C_2  and  C_3 
REMARK    2  A    between atoms: C_3  and  O_6 
REMARK    3  A    between atoms: C_3  and  C_4 
REMARK    4  A    between atoms: C_7  and  O_6 
REMARK    5  A    between atoms: C_9  and  C_10 
REMARK    6  A    between atoms: N_15  and  C_14 
REMARK    7  A    between atoms: N_20  and  C_19 
REMARK       I    between atoms: C_22  and  N_20 
ROOT
ATOM      1  C   LIG d   1      -1.976  80.246 114.382  0.00  0.00     0.161 C 
ATOM      2  C   LIG d   1      -1.805  81.072 113.259  0.00  0.00     0.016 C 
ATOM      3  C   LIG d   1      -0.539  81.411 112.729  0.00  0.00     0.038 C 
ATOM      4  C   LIG d   1       0.644  80.820 113.197  0.00  0.00     0.028 C 
ATOM      5  C   LIG d   1       0.562  80.371 114.652  0.00  0.00    -0.047 C 
ATOM      6  C   LIG d   1      -0.703  79.502 114.838  0.00  0.00     0.091 C 
ENDROOT
BRANCH   1   7
ATOM      7  O   LIG d   1      -3.044  79.309 114.140  0.00  0.00    -0.368 OA
BRANCH   7   8
ATOM      8  C   LIG d   1      -2.651  78.011 113.629  0.00  0.00     0.119 C 
BRANCH   8   9
ATOM      9  C   LIG d   1      -3.051  77.959 112.142  0.00  0.00     0.028 C 
ATOM     10  C   LIG d   1      -1.831  77.927 111.206  0.00  0.00     0.006 C 
ENDBRANCH   8   9
BRANCH   8  11
ATOM     11  C   LIG d   1      -3.440  76.884 114.302  0.00  0.00     0.028 C 
ATOM     12  C   LIG d   1      -2.534  75.789 114.886  0.00  0.00     0.006 C 
ENDBRANCH   8  11
ENDBRANCH   7   8
ENDBRANCH   1   7
BRANCH   6  13
ATOM     13  N   LIG d   1      -0.905  79.091 116.252  0.00  0.00    -0.311 N 
ATOM     14  C   LIG d   1      -0.387  77.980 116.773  0.00  0.00     0.210 C 
ATOM     15  C   LIG d   1      -0.734  77.733 118.245  0.00  0.00     0.109 C 
ATOM     16  O   LIG d   1       0.354  77.192 116.166  0.00  0.00    -0.276 OA
ATOM     17  H   LIG d   1      -1.468  79.688 116.825  0.00  0.00     0.149 HD
ENDBRANCH   6  13
BRANCH   5  18
ATOM     18  N   LIG d   1       1.809  79.650 114.967  0.00  0.00     0.381 N 
ATOM     19  H   LIG d   1       1.605  78.692 115.172  0.00  0.00    -0.090 HD
ATOM     20  H   LIG d   1       2.227  80.064 115.782  0.00  0.00    -0.090 HD
ATOM     21  H   LIG d   1       2.439  79.705 114.197  0.00  0.00    -0.090 HD
ENDBRANCH   5  18
BRANCH   3  22
ATOM     22  C   LIG d   1      -0.444  82.382 111.743  0.00  0.00     0.382 C 
ATOM     23  O   LIG d   1      -0.034  82.075 110.598  0.00  0.00    -0.241 OA
ATOM     24  O   LIG d   1      -0.722  83.569 111.998  0.00  0.00    -0.241 OA
ENDBRANCH   3  22
TORSDOF 7
ENDMDL
MODEL 6
REMARK VINA RESULT:      -4.8      1.107      1.960
REMARK  7 active torsions:
REMARK  status: ('A' for Active; 'I' for Inactive)
REMARK    1  A    between atoms: C_2  and  C_3 
REMARK    2  A    between atoms: C_3  and  O_6 
REMARK    3  A    between atoms: C_3  and  C_4 
REMARK    4  A    between atoms: C_7  and  O_6 
REMARK    5  A    between atoms: C_9  and  C_10 
REMARK    6  A    between atoms: N_15  and  C_14 
REMARK    7  A    between atoms: N_20  and  C_19 
REMARK       I    between atoms: C_22  and  N_20 
ROOT
ATOM      1  C   LIG d   1       0.142  80.112 113.169  0.00  0.00     0.161 C 
ATOM      2  C   LIG d   1      -0.858  79.130 113.073  0.00  0.00     0.016 C 
ATOM      3  C   LIG d   1      -1.177  78.459 111.871  0.00  0.00     0.038 C 
ATOM      4  C   LIG d   1      -0.410  78.617 110.707  0.00  0.00     0.028 C 
ATOM      5  C   LIG d   1       0.289  79.970 110.622  0.00  0.00    -0.047 C 
ATOM      6  C   LIG d   1       1.064  80.218 111.936  0.00  0.00     0.091 C 
ENDROOT
BRANCH   1   7
ATOM      7  O   LIG d   1       0.923  79.900 114.362  0.00  0.00    -0.368 OA
BRANCH   7   8
ATOM      8  C   LIG d   1       0.779  80.897 115.403  0.00  0.00     0.119 C 
BRANCH   8   9
ATOM      9  C   LIG d   1       2.184  81.186 115.965  0.00  0.00     0.028 C 
ATOM     10  C   LIG d   1       2.785  82.485 115.402  0.00  0.00     0.006 C 
ENDBRANCH   8   9
BRANCH   8  11
ATOM     11  C   LIG d   1      -0.027  80.353 116.587  0.00  0.00     0.028 C 
ATOM     12  C   LIG d   1      -0.539  81.463 117.519  0.00  0.00     0.006 C 
ENDBRANCH   8  11
ENDBRANCH   7   8
ENDBRANCH   1   7
BRANCH   6  13
ATOM     13  N   LIG d   1       1.708  81.557 111.970  0.00  0.00    -0.311 N 
ATOM     14  C   LIG d   1       2.981  81.767 111.641  0.00  0.00     0.210 C 
ATOM     15  C   LIG d   1       3.450  83.220 111.765  0.00  0.00     0.109 C 
ATOM     16  O   LIG d   1       3.758  80.893 111.228  0.00  0.00    -0.276 OA
ATOM     17  H   LIG d   1       1.141  82.329 112.264  0.00  0.00     0.149 HD
ENDBRANCH   6  13
BRANCH   5  18
ATOM     18  N   LIG d   1       1.160  79.947 109.432  0.00  0.00     0.381 N 
ATOM     19  H   LIG d   1       1.624  79.063 109.369  0.00  0.00    -0.090 HD
ATOM     20  H   LIG d   1       1.859  80.663 109.527  0.00  0.00    -0.090 HD
ATOM     21  H   LIG d   1       0.620  80.107 108.610  0.00  0.00    -0.090 HD
ENDBRANCH   5  18
BRANCH   3  22
ATOM     22  C   LIG d   1      -2.300  77.647 111.814  0.00  0.00     0.382 C 
ATOM     23  O   LIG d   1      -3.029  77.656 110.793  0.00  0.00    -0.241 OA
ATOM     24  O   LIG d   1      -2.619  76.940 112.789  0.00  0.00    -0.241 OA
ENDBRANCH   3  22
TORSDOF 7
ENDMDL
MODEL 7
REMARK VINA RESULT:      -4.6      1.992      2.806
REMARK  7 active torsions:
REMARK  status: ('A' for Active; 'I' for Inactive)
REMARK    1  A    between atoms: C_2  and  C_3 
REMARK    2  A    between atoms: C_3  and  O_6 
REMARK    3  A    between atoms: C_3  and  C_4 
REMARK    4  A    between atoms: C_7  and  O_6 
REMARK    5  A    between atoms: C_9  and  C_10 
REMARK    6  A    between atoms: N_15  and  C_14 
REMARK    7  A    between atoms: N_20  and  C_19 
REMARK       I    between atoms: C_22  and  N_20 
ROOT
ATOM      1  C   LIG d   1      -0.154  79.915 113.468  0.00  0.00     0.161 C 
ATOM      2  C   LIG d   1      -0.850  78.785 113.926  0.00  0.00     0.016 C 
ATOM      3  C   LIG d   1      -1.429  77.825 113.065  0.00  0.00     0.038 C 
ATOM      4  C   LIG d   1      -1.218  77.850 111.678  0.00  0.00     0.028 C 
ATOM      5  C   LIG d   1      -0.948  79.248 111.132  0.00  0.00    -0.047 C 
ATOM      6  C   LIG d   1       0.181  79.901 111.961  0.00  0.00     0.091 C 
ENDROOT
BRANCH   1   7
ATOM      7  O   LIG d   1       1.045  80.100 114.246  0.00  0.00    -0.368 OA
BRANCH   7   8
ATOM      8  C   LIG d   1       0.883  80.777 115.516  0.00  0.00     0.119 C 
BRANCH   8   9
ATOM      9  C   LIG d   1       2.036  81.790 115.651  0.00  0.00     0.028 C 
ATOM     10  C   LIG d   1       2.420  82.426 114.305  0.00  0.00     0.006 C 
ENDBRANCH   8   9
BRANCH   8  11
ATOM     11  C   LIG d   1       1.054  79.809 116.690  0.00  0.00     0.028 C 
ATOM     12  C   LIG d   1       2.042  78.672 116.386  0.00  0.00     0.006 C 
ENDBRANCH   8  11
ENDBRANCH   7   8
ENDBRANCH   1   7
BRANCH   6  13
ATOM     13  N   LIG d   1       0.451  81.303 111.547  0.00  0.00    -0.311 N 
ATOM     14  C   LIG d   1      -0.400  82.306 111.758  0.00  0.00     0.210 C 
ATOM     15  C   LIG d   1       0.065  83.668 111.234  0.00  0.00     0.109 C 
ATOM     16  O   LIG d   1      -1.481  82.203 112.357  0.00  0.00    -0.276 OA
ATOM     17  H   LIG d   1       1.319  81.482 111.082  0.00  0.00     0.149 HD
ENDBRANCH   6  13
BRANCH   5  18
ATOM     18  N   LIG d   1      -0.611  79.111 109.703  0.00  0.00     0.381 N 
ATOM     19  H   LIG d   1      -1.450  79.028 109.164  0.00  0.00    -0.090 HD
ATOM     20  H   LIG d   1      -0.070  78.274 109.575  0.00  0.00    -0.090 HD
ATOM     21  H   LIG d   1      -0.089  79.903 109.398  0.00  0.00    -0.090 HD
ENDBRANCH   5  18
BRANCH   3  22
ATOM     22  C   LIG d   1      -2.262  76.846 113.587  0.00  0.00     0.382 C 
ATOM     23  O   LIG d   1      -1.817  76.027 114.426  0.00  0.00    -0.241 OA
ATOM     24  O   LIG d   1      -3.440  76.746 113.196  0.00  0.00    -0.241 OA
ENDBRANCH   3  22
TORSDOF 7
ENDMDL
MODEL 8
REMARK VINA RESULT:      -4.5      3.754      5.775
REMARK  7 active torsions:
REMARK  status: ('A' for Active; 'I' for Inactive)
REMARK    1  A    between atoms: C_2  and  C_3 
REMARK    2  A    between atoms: C_3  and  O_6 
REMARK    3  A    between atoms: C_3  and  C_4 
REMARK    4  A    between atoms: C_7  and  O_6 
REMARK    5  A    between atoms: C_9  and  C_10 
REMARK    6  A    between atoms: N_15  and  C_14 
REMARK    7  A    between atoms: N_20  and  C_19 
REMARK       I    between atoms: C_22  and  N_20 
ROOT
ATOM      1  C   LIG d   1      -1.189  78.804 115.446  0.00  0.00     0.161 C 
ATOM      2  C   LIG d   1      -1.830  79.562 114.453  0.00  0.00     0.016 C 
ATOM      3  C   LIG d   1      -1.209  80.633 113.769  0.00  0.00     0.038 C 
ATOM      4  C   LIG d   1       0.155  80.922 113.927  0.00  0.00     0.028 C 
ATOM      5  C   LIG d   1       0.708  80.509 115.287  0.00  0.00    -0.047 C 
ATOM      6  C   LIG d   1       0.334  79.033 115.554  0.00  0.00     0.091 C 
ENDROOT
BRANCH   1   7
ATOM      7  O   LIG d   1      -1.472  77.404 115.252  0.00  0.00    -0.368 OA
BRANCH   7   8
ATOM      8  C   LIG d   1      -2.003  76.696 116.399  0.00  0.00     0.119 C 
BRANCH   8   9
ATOM      9  C   LIG d   1      -2.228  75.232 115.975  0.00  0.00     0.028 C 
ATOM     10  C   LIG d   1      -1.025  74.333 116.309  0.00  0.00     0.006 C 
ENDBRANCH   8   9
BRANCH   8  11
ATOM     11  C   LIG d   1      -3.387  77.223 116.787  0.00  0.00     0.028 C 
ATOM     12  C   LIG d   1      -3.436  77.766 118.224  0.00  0.00     0.006 C 
ENDBRANCH   8  11
ENDBRANCH   7   8
ENDBRANCH   1   7
BRANCH   6  13
ATOM     13  N   LIG d   1       0.764  78.574 116.900  0.00  0.00    -0.311 N 
ATOM     14  C   LIG d   1       1.946  78.009 117.138  0.00  0.00     0.210 C 
ATOM     15  C   LIG d   1       2.181  77.590 118.593  0.00  0.00     0.109 C 
ATOM     16  O   LIG d   1       2.835  77.844 116.290  0.00  0.00    -0.276 OA
ATOM     17  H   LIG d   1       0.116  78.698 117.653  0.00  0.00     0.149 HD
ENDBRANCH   6  13
BRANCH   5  18
ATOM     18  N   LIG d   1       2.164  80.742 115.265  0.00  0.00     0.381 N 
ATOM     19  H   LIG d   1       2.358  81.699 115.483  0.00  0.00    -0.090 HD
ATOM     20  H   LIG d   1       2.510  80.553 114.341  0.00  0.00    -0.090 HD
ATOM     21  H   LIG d   1       2.615  80.146 115.924  0.00  0.00    -0.090 HD
ENDBRANCH   5  18
BRANCH   3  22
ATOM     22  C   LIG d   1      -1.965  81.453 112.945  0.00  0.00     0.382 C 
ATOM     23  O   LIG d   1      -1.490  82.540 112.537  0.00  0.00    -0.241 OA
ATOM     24  O   LIG d   1      -3.131  81.139 112.640  0.00  0.00    -0.241 OA
ENDBRANCH   3  22
TORSDOF 7
ENDMDL
MODEL 9
REMARK VINA RESULT:      -4.5      3.140      6.438
REMARK  7 active torsions:
REMARK  status: ('A' for Active; 'I' for Inactive)
REMARK    1  A    between atoms: C_2  and  C_3 
REMARK    2  A    between atoms: C_3  and  O_6 
REMARK    3  A    between atoms: C_3  and  C_4 
REMARK    4  A    between atoms: C_7  and  O_6 
REMARK    5  A    between atoms: C_9  and  C_10 
REMARK    6  A    between atoms: N_15  and  C_14 
REMARK    7  A    between atoms: N_20  and  C_19 
REMARK       I    between atoms: C_22  and  N_20 
ROOT
ATOM      1  C   LIG d   1      -0.914  79.654 114.450  0.00  0.00     0.161 C 
ATOM      2  C   LIG d   1       0.122  80.595 114.575  0.00  0.00     0.016 C 
ATOM      3  C   LIG d   1       1.302  80.359 115.317  0.00  0.00     0.038 C 
ATOM      4  C   LIG d   1       1.595  79.101 115.864  0.00  0.00     0.028 C 
ATOM      5  C   LIG d   1       0.353  78.279 116.191  0.00  0.00    -0.047 C 
ATOM      6  C   LIG d   1      -0.563  78.236 114.947  0.00  0.00     0.091 C 
ENDROOT
BRANCH   1   7
ATOM      7  O   LIG d   1      -1.370  79.608 113.083  0.00  0.00    -0.368 OA
BRANCH   7   8
ATOM      8  C   LIG d   1      -0.504  78.921 112.146  0.00  0.00     0.119 C 
BRANCH   8   9
ATOM      9  C   LIG d   1      -0.077  79.945 111.076  0.00  0.00     0.028 C 
ATOM     10  C   LIG d   1       1.447  80.149 111.033  0.00  0.00     0.006 C 
ENDBRANCH   8   9
BRANCH   8  11
ATOM     11  C   LIG d   1      -1.262  77.830 111.384  0.00  0.00     0.028 C 
ATOM     12  C   LIG d   1      -2.785  77.924 111.566  0.00  0.00     0.006 C 
ENDBRANCH   8  11
ENDBRANCH   7   8
ENDBRANCH   1   7
BRANCH   6  13
ATOM     13  N   LIG d   1      -1.840  77.522 115.208  0.00  0.00    -0.311 N 
ATOM     14  C   LIG d   1      -2.045  76.246 114.886  0.00  0.00     0.210 C 
ATOM     15  C   LIG d   1      -3.440  75.711 115.224  0.00  0.00     0.109 C 
ATOM     16  O   LIG d   1      -1.194  75.498 114.381  0.00  0.00    -0.276 OA
ATOM     17  H   LIG d   1      -2.574  78.045 115.643  0.00  0.00     0.149 HD
ENDBRANCH   6  13
BRANCH   5  18
ATOM     18  N   LIG d   1       0.805  76.943 116.623  0.00  0.00     0.381 N 
ATOM     19  H   LIG d   1       0.277  76.649 117.421  0.00  0.00    -0.090 HD
ATOM     20  H   LIG d   1       1.773  76.997 116.888  0.00  0.00    -0.090 HD
ATOM     21  H   LIG d   1       0.692  76.288 115.881  0.00  0.00    -0.090 HD
ENDBRANCH   5  18
BRANCH   3  22
ATOM     22  C   LIG d   1       2.186  81.402 115.552  0.00  0.00     0.382 C 
ATOM     23  O   LIG d   1       1.841  82.583 115.307  0.00  0.00    -0.241 OA
ATOM     24  O   LIG d   1       3.339  81.172 115.963  0.00  0.00    -0.241 OA
ENDBRANCH   3  22
TORSDOF 7
ENDMDL
