MODEL 1
REMARK VINA RESULT:      -4.0      0.000      0.000
REMARK  7 active torsions:
REMARK  status: ('A' for Active; 'I' for Inactive)
REMARK    1  A    between atoms: C_2  and  C_3 
REMARK    2  A    between atoms: C_3  and  O_6 
REMARK    3  A    between atoms: C_3  and  C_4 
REMARK    4  A    between atoms: C_7  and  O_6 
REMARK    5  A    between atoms: C_9  and  C_10 
REMARK    6  A    between atoms: N_15  and  C_14 
REMARK    7  A    between atoms: N_20  and  C_19 
REMARK       I    between atoms: C_22  and  N_20 
ROOT
ATOM      1  C   LIG d   1      -0.340  77.560 116.383  0.00  0.00     0.161 C 
ATOM      2  C   LIG d   1      -1.114  78.172 115.382  0.00  0.00     0.016 C 
ATOM      3  C   LIG d   1      -1.478  77.527 114.177  0.00  0.00     0.038 C 
ATOM      4  C   LIG d   1      -1.220  76.166 113.957  0.00  0.00     0.028 C 
ATOM      5  C   LIG d   1      -0.004  75.649 114.720  0.00  0.00    -0.047 C 
ATOM      6  C   LIG d   1      -0.143  76.040 116.209  0.00  0.00     0.091 C 
ENDROOT
BRANCH   1   7
ATOM      7  O   LIG d   1      -0.902  77.848 117.678  0.00  0.00    -0.368 OA
BRANCH   7   8
ATOM      8  C   LIG d   1      -2.342  78.003 117.729  0.00  0.00     0.119 C 
BRANCH   8   9
ATOM      9  C   LIG d   1      -2.652  79.128 118.735  0.00  0.00     0.028 C 
ATOM     10  C   LIG d   1      -1.493  80.130 118.871  0.00  0.00     0.006 C 
ENDBRANCH   8   9
BRANCH   8  11
ATOM     11  C   LIG d   1      -3.017  76.752 118.298  0.00  0.00     0.028 C 
ATOM     12  C   LIG d   1      -3.439  75.754 117.208  0.00  0.00     0.006 C 
ENDBRANCH   8  11
ENDBRANCH   7   8
ENDBRANCH   1   7
BRANCH   6  13
ATOM     13  N   LIG d   1       1.044  75.646 117.012  0.00  0.00    -0.311 N 
ATOM     14  C   LIG d   1       0.961  75.032 118.191  0.00  0.00     0.210 C 
ATOM     15  C   LIG d   1       2.306  74.733 118.861  0.00  0.00     0.109 C 
ATOM     16  O   LIG d   1      -0.098  74.679 118.731  0.00  0.00    -0.276 OA
ATOM     17  H   LIG d   1       1.944  75.867 116.633  0.00  0.00     0.149 HD
ENDBRANCH   6  13
BRANCH   5  18
ATOM     18  N   LIG d   1       0.068  74.191 114.509  0.00  0.00     0.381 N 
ATOM     19  H   LIG d   1       0.034  73.719 115.390  0.00  0.00    -0.090 HD
ATOM     20  H   LIG d   1       0.942  73.969 114.066  0.00  0.00    -0.090 HD
ATOM     21  H   LIG d   1      -0.690  73.892 113.935  0.00  0.00    -0.090 HD
ENDBRANCH   5  18
BRANCH   3  22
ATOM     22  C   LIG d   1      -2.075  78.257 113.160  0.00  0.00     0.382 C 
ATOM     23  O   LIG d   1      -3.325  78.296 113.067  0.00  0.00    -0.241 OA
ATOM     24  O   LIG d   1      -1.377  78.841 112.309  0.00  0.00    -0.241 OA
ENDBRANCH   3  22
TORSDOF 7
ENDMDL
MODEL 2
REMARK VINA RESULT:      -3.8      2.658      5.007
REMARK  7 active torsions:
REMARK  status: ('A' for Active; 'I' for Inactive)
REMARK    1  A    between atoms: C_2  and  C_3 
REMARK    2  A    between atoms: C_3  and  O_6 
REMARK    3  A    between atoms: C_3  and  C_4 
REMARK    4  A    between atoms: C_7  and  O_6 
REMARK    5  A    between atoms: C_9  and  C_10 
REMARK    6  A    between atoms: N_15  and  C_14 
REMARK    7  A    between atoms: N_20  and  C_19 
REMARK       I    between atoms: C_22  and  N_20 
ROOT
ATOM      1  C   LIG d   1      -0.877  78.319 114.847  0.00  0.00     0.161 C 
ATOM      2  C   LIG d   1      -1.759  77.243 114.653  0.00  0.00     0.016 C 
ATOM      3  C   LIG d   1      -2.161  76.368 115.689  0.00  0.00     0.038 C 
ATOM      4  C   LIG d   1      -1.823  76.604 117.030  0.00  0.00     0.028 C 
ATOM      5  C   LIG d   1      -0.524  77.385 117.199  0.00  0.00    -0.047 C 
ATOM      6  C   LIG d   1      -0.586  78.658 116.324  0.00  0.00     0.091 C 
ENDROOT
BRANCH   1   7
ATOM      7  O   LIG d   1      -1.366  79.483 114.153  0.00  0.00    -0.368 OA
BRANCH   7   8
ATOM      8  C   LIG d   1      -1.407  79.393 112.707  0.00  0.00     0.119 C 
BRANCH   8   9
ATOM      9  C   LIG d   1      -0.655  80.615 112.146  0.00  0.00     0.028 C 
ATOM     10  C   LIG d   1       0.100  80.293 110.845  0.00  0.00     0.006 C 
ENDBRANCH   8   9
BRANCH   8  11
ATOM     11  C   LIG d   1      -2.840  79.521 112.181  0.00  0.00     0.028 C 
ATOM     12  C   LIG d   1      -3.335  78.244 111.483  0.00  0.00     0.006 C 
ENDBRANCH   8  11
ENDBRANCH   7   8
ENDBRANCH   1   7
BRANCH   6  13
ATOM     13  N   LIG d   1       0.679  79.437 116.366  0.00  0.00    -0.311 N 
ATOM     14  C   LIG d   1       0.872  80.478 117.173  0.00  0.00     0.210 C 
ATOM     15  C   LIG d   1       2.241  81.153 117.043  0.00  0.00     0.109 C 
ATOM     16  O   LIG d   1       0.051  80.888 118.008  0.00  0.00    -0.276 OA
ATOM     17  H   LIG d   1       1.410  79.153 115.744  0.00  0.00     0.149 HD
ENDBRANCH   6  13
BRANCH   5  18
ATOM     18  N   LIG d   1      -0.365  77.679 118.636  0.00  0.00     0.381 N 
ATOM     19  H   LIG d   1       0.601  77.615 118.890  0.00  0.00    -0.090 HD
ATOM     20  H   LIG d   1      -0.876  76.995 119.166  0.00  0.00    -0.090 HD
ATOM     21  H   LIG d   1      -0.710  78.592 118.838  0.00  0.00    -0.090 HD
ENDBRANCH   5  18
BRANCH   3  22
ATOM     22  C   LIG d   1      -2.876  75.221 115.382  0.00  0.00     0.382 C 
ATOM     23  O   LIG d   1      -2.924  74.273 116.203  0.00  0.00    -0.241 OA
ATOM     24  O   LIG d   1      -3.437  75.104 114.276  0.00  0.00    -0.241 OA
ENDBRANCH   3  22
TORSDOF 7
ENDMDL
MODEL 3
REMARK VINA RESULT:      -3.8      1.266      1.928
REMARK  7 active torsions:
REMARK  status: ('A' for Active; 'I' for Inactive)
REMARK    1  A    between atoms: C_2  and  C_3 
REMARK    2  A    between atoms: C_3  and  O_6 
REMARK    3  A    between atoms: C_3  and  C_4 
REMARK    4  A    between atoms: C_7  and  O_6 
REMARK    5  A    between atoms: C_9  and  C_10 
REMARK    6  A    between atoms: N_15  and  C_14 
REMARK    7  A    between atoms: N_20  and  C_19 
REMARK       I    between atoms: C_22  and  N_20 
ROOT
ATOM      1  C   LIG d   1      -0.443  77.408 116.606  0.00  0.00     0.161 C 
ATOM      2  C   LIG d   1      -1.162  78.137 115.644  0.00  0.00     0.016 C 
ATOM      3  C   LIG d   1      -1.454  77.643 114.352  0.00  0.00     0.038 C 
ATOM      4  C   LIG d   1      -1.177  76.318 113.985  0.00  0.00     0.028 C 
ATOM      5  C   LIG d   1      -0.005  75.710 114.748  0.00  0.00    -0.047 C 
ATOM      6  C   LIG d   1      -0.230  75.919 116.263  0.00  0.00     0.091 C 
ENDROOT
BRANCH   1   7
ATOM      7  O   LIG d   1      -1.079  77.538 117.893  0.00  0.00    -0.368 OA
BRANCH   7   8
ATOM      8  C   LIG d   1      -0.354  78.302 118.888  0.00  0.00     0.119 C 
BRANCH   8   9
ATOM      9  C   LIG d   1      -1.063  79.662 119.036  0.00  0.00     0.028 C 
ATOM     10  C   LIG d   1      -0.209  80.829 118.513  0.00  0.00     0.006 C 
ENDBRANCH   8   9
BRANCH   8  11
ATOM     11  C   LIG d   1       1.063  78.634 118.411  0.00  0.00     0.028 C 
ATOM     12  C   LIG d   1       2.151  78.071 119.340  0.00  0.00     0.006 C 
ENDBRANCH   8  11
ENDBRANCH   7   8
ENDBRANCH   1   7
BRANCH   6  13
ATOM     13  N   LIG d   1       0.912  75.428 117.078  0.00  0.00    -0.311 N 
ATOM     14  C   LIG d   1       0.763  74.718 118.195  0.00  0.00     0.210 C 
ATOM     15  C   LIG d   1       2.070  74.330 118.893  0.00  0.00     0.109 C 
ATOM     16  O   LIG d   1      -0.326  74.345 118.656  0.00  0.00    -0.276 OA
ATOM     17  H   LIG d   1       1.833  75.659 116.759  0.00  0.00     0.149 HD
ENDBRANCH   6  13
BRANCH   5  18
ATOM     18  N   LIG d   1       0.086  74.288 114.367  0.00  0.00     0.381 N 
ATOM     19  H   LIG d   1       0.832  73.850 114.869  0.00  0.00    -0.090 HD
ATOM     20  H   LIG d   1       0.288  74.227 113.384  0.00  0.00    -0.090 HD
ATOM     21  H   LIG d   1      -0.774  73.826 114.566  0.00  0.00    -0.090 HD
ENDBRANCH   5  18
BRANCH   3  22
ATOM     22  C   LIG d   1      -1.995  78.491 113.398  0.00  0.00     0.382 C 
ATOM     23  O   LIG d   1      -3.028  79.153 113.661  0.00  0.00    -0.241 OA
ATOM     24  O   LIG d   1      -1.489  78.570 112.263  0.00  0.00    -0.241 OA
ENDBRANCH   3  22
TORSDOF 7
ENDMDL
MODEL 4
REMARK VINA RESULT:      -3.7      2.483      4.814
REMARK  7 active torsions:
REMARK  status: ('A' for Active; 'I' for Inactive)
REMARK    1  A    between atoms: C_2  and  C_3 
REMARK    2  A    between atoms: C_3  and  O_6 
REMARK    3  A    between atoms: C_3  and  C_4 
REMARK    4  A    between atoms: C_7  and  O_6 
REMARK    5  A    between atoms: C_9  and  C_10 
REMARK    6  A    between atoms: N_15  and  C_14 
REMARK    7  A    between atoms: N_20  and  C_19 
REMARK       I    between atoms: C_22  and  N_20 
ROOT
ATOM      1  C   LIG d   1       1.510  76.803 116.613  0.00  0.00     0.161 C 
ATOM      2  C   LIG d   1       1.249  77.798 117.569  0.00  0.00     0.016 C 
ATOM      3  C   LIG d   1       0.031  78.513 117.636  0.00  0.00     0.038 C 
ATOM      4  C   LIG d   1      -1.073  78.173 116.840  0.00  0.00     0.028 C 
ATOM      5  C   LIG d   1      -0.687  77.514 115.519  0.00  0.00    -0.047 C 
ATOM      6  C   LIG d   1       0.278  76.342 115.807  0.00  0.00     0.091 C 
ENDROOT
BRANCH   1   7
ATOM      7  O   LIG d   1       2.148  75.675 117.243  0.00  0.00    -0.368 OA
BRANCH   7   8
ATOM      8  C   LIG d   1       1.936  75.538 118.670  0.00  0.00     0.119 C 
BRANCH   8   9
ATOM      9  C   LIG d   1       3.224  74.947 119.274  0.00  0.00     0.028 C 
ATOM     10  C   LIG d   1       4.398  74.960 118.281  0.00  0.00     0.006 C 
ENDBRANCH   8   9
BRANCH   8  11
ATOM     11  C   LIG d   1       0.838  74.514 118.974  0.00  0.00     0.028 C 
ATOM     12  C   LIG d   1      -0.404  75.147 119.622  0.00  0.00     0.006 C 
ENDBRANCH   8  11
ENDBRANCH   7   8
ENDBRANCH   1   7
BRANCH   6  13
ATOM     13  N   LIG d   1       0.770  75.695 114.562  0.00  0.00    -0.311 N 
ATOM     14  C   LIG d   1       0.115  74.721 113.933  0.00  0.00     0.210 C 
ATOM     15  C   LIG d   1       0.809  74.180 112.679  0.00  0.00     0.109 C 
ATOM     16  O   LIG d   1      -0.990  74.275 114.277  0.00  0.00    -0.276 OA
ATOM     17  H   LIG d   1       1.645  76.017 114.196  0.00  0.00     0.149 HD
ENDBRANCH   6  13
BRANCH   5  18
ATOM     18  N   LIG d   1      -1.933  77.089 114.853  0.00  0.00     0.381 N 
ATOM     19  H   LIG d   1      -2.428  76.447 115.440  0.00  0.00    -0.090 HD
ATOM     20  H   LIG d   1      -1.699  76.617 113.997  0.00  0.00    -0.090 HD
ATOM     21  H   LIG d   1      -2.504  77.881 114.659  0.00  0.00    -0.090 HD
ENDBRANCH   5  18
BRANCH   3  22
ATOM     22  C   LIG d   1      -0.078  79.607 118.480  0.00  0.00     0.382 C 
ATOM     23  O   LIG d   1      -0.052  79.445 119.724  0.00  0.00    -0.241 OA
ATOM     24  O   LIG d   1      -0.247  80.750 118.014  0.00  0.00    -0.241 OA
ENDBRANCH   3  22
TORSDOF 7
ENDMDL
MODEL 5
REMARK VINA RESULT:      -3.6      3.373      6.208
REMARK  7 active torsions:
REMARK  status: ('A' for Active; 'I' for Inactive)
REMARK    1  A    between atoms: C_2  and  C_3 
REMARK    2  A    between atoms: C_3  and  O_6 
REMARK    3  A    between atoms: C_3  and  C_4 
REMARK    4  A    between atoms: C_7  and  O_6 
REMARK    5  A    between atoms: C_9  and  C_10 
REMARK    6  A    between atoms: N_15  and  C_14 
REMARK    7  A    between atoms: N_20  and  C_19 
REMARK       I    between atoms: C_22  and  N_20 
ROOT
ATOM      1  C   LIG d   1       1.957  77.784 118.248  0.00  0.00     0.161 C 
ATOM      2  C   LIG d   1       1.450  76.474 118.266  0.00  0.00     0.016 C 
ATOM      3  C   LIG d   1       0.387  76.040 117.441  0.00  0.00     0.038 C 
ATOM      4  C   LIG d   1      -0.144  76.851 116.427  0.00  0.00     0.028 C 
ATOM      5  C   LIG d   1      -0.006  78.343 116.711  0.00  0.00    -0.047 C 
ATOM      6  C   LIG d   1       1.465  78.652 117.071  0.00  0.00     0.091 C 
ENDROOT
BRANCH   1   7
ATOM      7  O   LIG d   1       3.398  77.750 118.278  0.00  0.00    -0.368 OA
BRANCH   7   8
ATOM      8  C   LIG d   1       4.030  76.768 117.421  0.00  0.00     0.119 C 
BRANCH   8   9
ATOM      9  C   LIG d   1       5.077  76.020 118.269  0.00  0.00     0.028 C 
ATOM     10  C   LIG d   1       4.727  74.534 118.456  0.00  0.00     0.006 C 
ENDBRANCH   8   9
BRANCH   8  11
ATOM     11  C   LIG d   1       4.824  77.439 116.296  0.00  0.00     0.028 C 
ATOM     12  C   LIG d   1       6.258  77.803 116.714  0.00  0.00     0.006 C 
ENDBRANCH   8  11
ENDBRANCH   7   8
ENDBRANCH   1   7
BRANCH   6  13
ATOM     13  N   LIG d   1       1.670  80.075 117.445  0.00  0.00    -0.311 N 
ATOM     14  C   LIG d   1       2.592  80.856 116.883  0.00  0.00     0.210 C 
ATOM     15  C   LIG d   1       2.649  82.286 117.430  0.00  0.00     0.109 C 
ATOM     16  O   LIG d   1       3.346  80.509 115.961  0.00  0.00    -0.276 OA
ATOM     17  H   LIG d   1       1.080  80.448 118.163  0.00  0.00     0.149 HD
ENDBRANCH   6  13
BRANCH   5  18
ATOM     18  N   LIG d   1      -0.474  79.070 115.515  0.00  0.00     0.381 N 
ATOM     19  H   LIG d   1      -1.027  78.462 114.944  0.00  0.00    -0.090 HD
ATOM     20  H   LIG d   1       0.325  79.364 114.981  0.00  0.00    -0.090 HD
ATOM     21  H   LIG d   1      -1.011  79.863 115.786  0.00  0.00    -0.090 HD
ENDBRANCH   5  18
BRANCH   3  22
ATOM     22  C   LIG d   1      -0.183  74.794 117.653  0.00  0.00     0.382 C 
ATOM     23  O   LIG d   1       0.033  74.180 118.726  0.00  0.00    -0.241 OA
ATOM     24  O   LIG d   1      -0.873  74.255 116.766  0.00  0.00    -0.241 OA
ENDBRANCH   3  22
TORSDOF 7
ENDMDL
MODEL 6
REMARK VINA RESULT:      -3.6      1.777      2.752
REMARK  7 active torsions:
REMARK  status: ('A' for Active; 'I' for Inactive)
REMARK    1  A    between atoms: C_2  and  C_3 
REMARK    2  A    between atoms: C_3  and  O_6 
REMARK    3  A    between atoms: C_3  and  C_4 
REMARK    4  A    between atoms: C_7  and  O_6 
REMARK    5  A    between atoms: C_9  and  C_10 
REMARK    6  A    between atoms: N_15  and  C_14 
REMARK    7  A    between atoms: N_20  and  C_19 
REMARK       I    between atoms: C_22  and  N_20 
ROOT
ATOM      1  C   LIG d   1       0.117  77.897 116.541  0.00  0.00     0.161 C 
ATOM      2  C   LIG d   1      -1.044  78.319 115.873  0.00  0.00     0.016 C 
ATOM      3  C   LIG d   1      -1.843  77.461 115.082  0.00  0.00     0.038 C 
ATOM      4  C   LIG d   1      -1.615  76.078 115.028  0.00  0.00     0.028 C 
ATOM      5  C   LIG d   1      -0.161  75.692 115.279  0.00  0.00    -0.047 C 
ATOM      6  C   LIG d   1       0.319  76.367 116.584  0.00  0.00     0.091 C 
ENDROOT
BRANCH   1   7
ATOM      7  O   LIG d   1       0.139  78.443 117.875  0.00  0.00    -0.368 OA
BRANCH   7   8
ATOM      8  C   LIG d   1       1.134  79.465 118.128  0.00  0.00     0.119 C 
BRANCH   8   9
ATOM      9  C   LIG d   1       0.391  80.806 118.283  0.00  0.00     0.028 C 
ATOM     10  C   LIG d   1      -0.955  80.651 119.009  0.00  0.00     0.006 C 
ENDBRANCH   8   9
BRANCH   8  11
ATOM     11  C   LIG d   1       2.061  79.651 116.923  0.00  0.00     0.028 C 
ATOM     12  C   LIG d   1       2.111  81.106 116.429  0.00  0.00     0.006 C 
ENDBRANCH   8  11
ENDBRANCH   7   8
ENDBRANCH   1   7
BRANCH   6  13
ATOM     13  N   LIG d   1       1.756  76.111 116.859  0.00  0.00    -0.311 N 
ATOM     14  C   LIG d   1       2.226  75.790 118.063  0.00  0.00     0.210 C 
ATOM     15  C   LIG d   1       3.743  75.587 118.133  0.00  0.00     0.109 C 
ATOM     16  O   LIG d   1       1.527  75.622 119.074  0.00  0.00    -0.276 OA
ATOM     17  H   LIG d   1       2.390  76.195 116.089  0.00  0.00     0.149 HD
ENDBRANCH   6  13
BRANCH   5  18
ATOM     18  N   LIG d   1      -0.093  74.220 115.330  0.00  0.00     0.381 N 
ATOM     19  H   LIG d   1       0.646  73.894 114.740  0.00  0.00    -0.090 HD
ATOM     20  H   LIG d   1      -0.959  73.842 114.989  0.00  0.00    -0.090 HD
ATOM     21  H   LIG d   1       0.063  73.918 116.267  0.00  0.00    -0.090 HD
ENDBRANCH   5  18
BRANCH   3  22
ATOM     22  C   LIG d   1      -2.859  77.992 114.302  0.00  0.00     0.382 C 
ATOM     23  O   LIG d   1      -3.297  79.143 114.543  0.00  0.00    -0.241 OA
ATOM     24  O   LIG d   1      -3.373  77.318 113.390  0.00  0.00    -0.241 OA
ENDBRANCH   3  22
TORSDOF 7
ENDMDL
MODEL 7
REMARK VINA RESULT:      -3.5      4.655      5.979
REMARK  7 active torsions:
REMARK  status: ('A' for Active; 'I' for Inactive)
REMARK    1  A    between atoms: C_2  and  C_3 
REMARK    2  A    between atoms: C_3  and  O_6 
REMARK    3  A    between atoms: C_3  and  C_4 
REMARK    4  A    between atoms: C_7  and  O_6 
REMARK    5  A    between atoms: C_9  and  C_10 
REMARK    6  A    between atoms: N_15  and  C_14 
REMARK    7  A    between atoms: N_20  and  C_19 
REMARK       I    between atoms: C_22  and  N_20 
ROOT
ATOM      1  C   LIG d   1       3.023  79.913 116.276  0.00  0.00     0.161 C 
ATOM      2  C   LIG d   1       1.718  80.020 116.786  0.00  0.00     0.016 C 
ATOM      3  C   LIG d   1       1.012  78.933 117.350  0.00  0.00     0.038 C 
ATOM      4  C   LIG d   1       1.623  77.692 117.582  0.00  0.00     0.028 C 
ATOM      5  C   LIG d   1       2.772  77.394 116.626  0.00  0.00    -0.047 C 
ATOM      6  C   LIG d   1       3.746  78.594 116.622  0.00  0.00     0.091 C 
ENDROOT
BRANCH   1   7
ATOM      7  O   LIG d   1       3.809  81.043 116.705  0.00  0.00    -0.368 OA
BRANCH   7   8
ATOM      8  C   LIG d   1       3.098  82.074 117.433  0.00  0.00     0.119 C 
BRANCH   8   9
ATOM      9  C   LIG d   1       3.240  83.385 116.636  0.00  0.00     0.028 C 
ATOM     10  C   LIG d   1       2.206  83.498 115.503  0.00  0.00     0.006 C 
ENDBRANCH   8   9
BRANCH   8  11
ATOM     11  C   LIG d   1       3.753  82.351 118.789  0.00  0.00     0.028 C 
ATOM     12  C   LIG d   1       3.646  81.162 119.757  0.00  0.00     0.006 C 
ENDBRANCH   8  11
ENDBRANCH   7   8
ENDBRANCH   1   7
BRANCH   6  13
ATOM     13  N   LIG d   1       4.856  78.421 115.649  0.00  0.00    -0.311 N 
ATOM     14  C   LIG d   1       6.052  77.938 115.979  0.00  0.00     0.210 C 
ATOM     15  C   LIG d   1       7.059  77.861 114.827  0.00  0.00     0.109 C 
ATOM     16  O   LIG d   1       6.365  77.536 117.110  0.00  0.00    -0.276 OA
ATOM     17  H   LIG d   1       4.678  78.693 114.702  0.00  0.00     0.149 HD
ENDBRANCH   6  13
BRANCH   5  18
ATOM     18  N   LIG d   1       3.405  76.137 117.067  0.00  0.00     0.381 N 
ATOM     19  H   LIG d   1       4.175  75.916 116.467  0.00  0.00    -0.090 HD
ATOM     20  H   LIG d   1       2.732  75.394 117.003  0.00  0.00    -0.090 HD
ATOM     21  H   LIG d   1       3.723  76.227 118.007  0.00  0.00    -0.090 HD
ENDBRANCH   5  18
BRANCH   3  22
ATOM     22  C   LIG d   1      -0.335  79.071 117.652  0.00  0.00     0.382 C 
ATOM     23  O   LIG d   1      -0.746  78.821 118.811  0.00  0.00    -0.241 OA
ATOM     24  O   LIG d   1      -1.150  79.399 116.769  0.00  0.00    -0.241 OA
ENDBRANCH   3  22
TORSDOF 7
ENDMDL
MODEL 8
REMARK VINA RESULT:      -3.5      4.384      6.111
REMARK  7 active torsions:
REMARK  status: ('A' for Active; 'I' for Inactive)
REMARK    1  A    between atoms: C_2  and  C_3 
REMARK    2  A    between atoms: C_3  and  O_6 
REMARK    3  A    between atoms: C_3  and  C_4 
REMARK    4  A    between atoms: C_7  and  O_6 
REMARK    5  A    between atoms: C_9  and  C_10 
REMARK    6  A    between atoms: N_15  and  C_14 
REMARK    7  A    between atoms: N_20  and  C_19 
REMARK       I    between atoms: C_22  and  N_20 
ROOT
ATOM      1  C   LIG d   1       2.732  79.681 117.099  0.00  0.00     0.161 C 
ATOM      2  C   LIG d   1       4.006  79.417 116.569  0.00  0.00     0.016 C 
ATOM      3  C   LIG d   1       4.441  78.125 116.197  0.00  0.00     0.038 C 
ATOM      4  C   LIG d   1       3.572  77.024 116.188  0.00  0.00     0.028 C 
ATOM      5  C   LIG d   1       2.430  77.146 117.191  0.00  0.00    -0.047 C 
ATOM      6  C   LIG d   1       1.732  78.511 116.993  0.00  0.00     0.091 C 
ENDROOT
BRANCH   1   7
ATOM      7  O   LIG d   1       2.184  80.866 116.487  0.00  0.00    -0.368 OA
BRANCH   7   8
ATOM      8  C   LIG d   1       2.360  82.102 117.221  0.00  0.00     0.119 C 
BRANCH   8   9
ATOM      9  C   LIG d   1       1.080  82.336 118.047  0.00  0.00     0.028 C 
ATOM     10  C   LIG d   1       1.303  82.109 119.551  0.00  0.00     0.006 C 
ENDBRANCH   8   9
BRANCH   8  11
ATOM     11  C   LIG d   1       2.457  83.303 116.275  0.00  0.00     0.028 C 
ATOM     12  C   LIG d   1       2.039  82.963 114.835  0.00  0.00     0.006 C 
ENDBRANCH   8  11
ENDBRANCH   7   8
ENDBRANCH   1   7
BRANCH   6  13
ATOM     13  N   LIG d   1       0.655  78.747 117.990  0.00  0.00    -0.311 N 
ATOM     14  C   LIG d   1      -0.573  79.144 117.662  0.00  0.00     0.210 C 
ATOM     15  C   LIG d   1      -1.524  79.348 118.846  0.00  0.00     0.109 C 
ATOM     16  O   LIG d   1      -0.975  79.316 116.502  0.00  0.00    -0.276 OA
ATOM     17  H   LIG d   1       0.886  78.601 118.953  0.00  0.00     0.149 HD
ENDBRANCH   6  13
BRANCH   5  18
ATOM     18  N   LIG d   1       1.526  75.999 116.979  0.00  0.00     0.381 N 
ATOM     19  H   LIG d   1       2.063  75.170 116.817  0.00  0.00    -0.090 HD
ATOM     20  H   LIG d   1       0.963  76.174 116.166  0.00  0.00    -0.090 HD
ATOM     21  H   LIG d   1       0.941  75.874 117.776  0.00  0.00    -0.090 HD
ENDBRANCH   5  18
BRANCH   3  22
ATOM     22  C   LIG d   1       5.771  77.917 115.865  0.00  0.00     0.382 C 
ATOM     23  O   LIG d   1       6.625  77.756 116.770  0.00  0.00    -0.241 OA
ATOM     24  O   LIG d   1       6.135  77.931 114.674  0.00  0.00    -0.241 OA
ENDBRANCH   3  22
TORSDOF 7
ENDMDL
MODEL 9
REMARK VINA RESULT:      -3.3      1.660      2.669
REMARK  7 active torsions:
REMARK  status: ('A' for Active; 'I' for Inactive)
REMARK    1  A    between atoms: C_2  and  C_3 
REMARK    2  A    between atoms: C_3  and  O_6 
REMARK    3  A    between atoms: C_3  and  C_4 
REMARK    4  A    between atoms: C_7  and  O_6 
REMARK    5  A    between atoms: C_9  and  C_10 
REMARK    6  A    between atoms: N_15  and  C_14 
REMARK    7  A    between atoms: N_20  and  C_19 
REMARK       I    between atoms: C_22  and  N_20 
ROOT
ATOM      1  C   LIG d   1       0.373  77.817 116.904  0.00  0.00     0.161 C 
ATOM      2  C   LIG d   1      -0.588  78.456 116.102  0.00  0.00     0.016 C 
ATOM      3  C   LIG d   1      -1.382  77.776 115.149  0.00  0.00     0.038 C 
ATOM      4  C   LIG d   1      -1.375  76.378 115.041  0.00  0.00     0.028 C 
ATOM      5  C   LIG d   1      -0.059  75.743 115.476  0.00  0.00    -0.047 C 
ATOM      6  C   LIG d   1       0.316  76.276 116.878  0.00  0.00     0.091 C 
ENDROOT
BRANCH   1   7
ATOM      7  O   LIG d   1       0.277  78.300 118.258  0.00  0.00    -0.368 OA
BRANCH   7   8
ATOM      8  C   LIG d   1       0.660  79.680 118.472  0.00  0.00     0.119 C 
BRANCH   8   9
ATOM      9  C   LIG d   1       2.111  79.683 118.993  0.00  0.00     0.028 C 
ATOM     10  C   LIG d   1       2.400  78.496 119.928  0.00  0.00     0.006 C 
ENDBRANCH   8   9
BRANCH   8  11
ATOM     11  C   LIG d   1      -0.172  80.324 119.586  0.00  0.00     0.028 C 
ATOM     12  C   LIG d   1      -0.547  81.782 119.282  0.00  0.00     0.006 C 
ENDBRANCH   8  11
ENDBRANCH   7   8
ENDBRANCH   1   7
BRANCH   6  13
ATOM     13  N   LIG d   1       1.633  75.769 117.343  0.00  0.00    -0.311 N 
ATOM     14  C   LIG d   1       1.812  75.159 118.513  0.00  0.00     0.210 C 
ATOM     15  C   LIG d   1       3.254  74.733 118.807  0.00  0.00     0.109 C 
ATOM     16  O   LIG d   1       0.908  74.901 119.322  0.00  0.00    -0.276 OA
ATOM     17  H   LIG d   1       2.416  75.908 116.735  0.00  0.00     0.149 HD
ENDBRANCH   6  13
BRANCH   5  18
ATOM     18  N   LIG d   1      -0.238  74.279 115.443  0.00  0.00     0.381 N 
ATOM     19  H   LIG d   1       0.655  73.828 115.458  0.00  0.00    -0.090 HD
ATOM     20  H   LIG d   1      -0.704  74.027 114.589  0.00  0.00    -0.090 HD
ATOM     21  H   LIG d   1      -0.781  73.984 116.225  0.00  0.00    -0.090 HD
ENDBRANCH   5  18
BRANCH   3  22
ATOM     22  C   LIG d   1      -2.166  78.502 114.265  0.00  0.00     0.382 C 
ATOM     23  O   LIG d   1      -3.312  78.093 113.963  0.00  0.00    -0.241 OA
ATOM     24  O   LIG d   1      -1.723  79.537 113.732  0.00  0.00    -0.241 OA
ENDBRANCH   3  22
TORSDOF 7
ENDMDL
