MODEL 1
REMARK VINA RESULT:      -5.7      0.000      0.000
REMARK  7 active torsions:
REMARK  status: ('A' for Active; 'I' for Inactive)
REMARK    1  A    between atoms: C_2  and  C_3 
REMARK    2  A    between atoms: C_3  and  O_6 
REMARK    3  A    between atoms: C_3  and  C_4 
REMARK    4  A    between atoms: C_7  and  O_6 
REMARK    5  A    between atoms: C_9  and  C_10 
REMARK    6  A    between atoms: N_15  and  C_14 
REMARK    7  A    between atoms: N_20  and  C_19 
REMARK       I    between atoms: C_22  and  N_20 
ROOT
ATOM      1  C   LIG d   1       0.661  82.608 112.433  0.00  0.00     0.161 C 
ATOM      2  C   LIG d   1      -0.592  82.226 112.940  0.00  0.00     0.016 C 
ATOM      3  C   LIG d   1      -1.325  81.120 112.450  0.00  0.00     0.038 C 
ATOM      4  C   LIG d   1      -0.782  80.225 111.517  0.00  0.00     0.028 C 
ATOM      5  C   LIG d   1       0.271  80.858 110.613  0.00  0.00    -0.047 C 
ATOM      6  C   LIG d   1       1.319  81.579 111.491  0.00  0.00     0.091 C 
ENDROOT
BRANCH   1   7
ATOM      7  O   LIG d   1       1.550  82.932 113.521  0.00  0.00    -0.368 OA
BRANCH   7   8
ATOM      8  C   LIG d   1       0.949  82.996 114.837  0.00  0.00     0.119 C 
BRANCH   8   9
ATOM      9  C   LIG d   1       0.908  84.478 115.256  0.00  0.00     0.028 C 
ATOM     10  C   LIG d   1       0.268  84.680 116.640  0.00  0.00     0.006 C 
ENDBRANCH   8   9
BRANCH   8  11
ATOM     11  C   LIG d   1       1.825  82.302 115.884  0.00  0.00     0.028 C 
ATOM     12  C   LIG d   1       1.167  81.046 116.475  0.00  0.00     0.006 C 
ENDBRANCH   8  11
ENDBRANCH   7   8
ENDBRANCH   1   7
BRANCH   6  13
ATOM     13  N   LIG d   1       2.339  82.296 110.682  0.00  0.00    -0.311 N 
ATOM     14  C   LIG d   1       3.480  81.739 110.280  0.00  0.00     0.210 C 
ATOM     15  C   LIG d   1       4.400  82.661 109.474  0.00  0.00     0.109 C 
ATOM     16  O   LIG d   1       3.803  80.560 110.487  0.00  0.00    -0.276 OA
ATOM     17  H   LIG d   1       2.144  83.248 110.443  0.00  0.00     0.149 HD
ENDBRANCH   6  13
BRANCH   5  18
ATOM     18  N   LIG d   1       0.851  79.784 109.784  0.00  0.00     0.381 N 
ATOM     19  H   LIG d   1       0.468  79.825 108.860  0.00  0.00    -0.090 HD
ATOM     20  H   LIG d   1       0.608  78.896 110.187  0.00  0.00    -0.090 HD
ATOM     21  H   LIG d   1       1.841  79.880 109.746  0.00  0.00    -0.090 HD
ENDBRANCH   5  18
BRANCH   3  22
ATOM     22  C   LIG d   1      -2.633  80.924 112.867  0.00  0.00     0.382 C 
ATOM     23  O   LIG d   1      -3.414  81.901 112.961  0.00  0.00    -0.241 OA
ATOM     24  O   LIG d   1      -3.028  79.788 113.193  0.00  0.00    -0.241 OA
ENDBRANCH   3  22
TORSDOF 7
ENDMDL
MODEL 2
REMARK VINA RESULT:      -5.3      1.924      4.694
REMARK  7 active torsions:
REMARK  status: ('A' for Active; 'I' for Inactive)
REMARK    1  A    between atoms: C_2  and  C_3 
REMARK    2  A    between atoms: C_3  and  O_6 
REMARK    3  A    between atoms: C_3  and  C_4 
REMARK    4  A    between atoms: C_7  and  O_6 
REMARK    5  A    between atoms: C_9  and  C_10 
REMARK    6  A    between atoms: N_15  and  C_14 
REMARK    7  A    between atoms: N_20  and  C_19 
REMARK       I    between atoms: C_22  and  N_20 
ROOT
ATOM      1  C   LIG d   1       0.803  81.661 112.889  0.00  0.00     0.161 C 
ATOM      2  C   LIG d   1       1.655  82.614 112.306  0.00  0.00     0.016 C 
ATOM      3  C   LIG d   1       1.840  82.740 110.910  0.00  0.00     0.038 C 
ATOM      4  C   LIG d   1       1.066  82.017 109.990  0.00  0.00     0.028 C 
ATOM      5  C   LIG d   1       0.558  80.688 110.539  0.00  0.00    -0.047 C 
ATOM      6  C   LIG d   1      -0.134  80.938 111.899  0.00  0.00     0.091 C 
ENDROOT
BRANCH   1   7
ATOM      7  O   LIG d   1       0.038  82.273 113.947  0.00  0.00    -0.368 OA
BRANCH   7   8
ATOM      8  C   LIG d   1       0.783  83.089 114.883  0.00  0.00     0.119 C 
BRANCH   8   9
ATOM      9  C   LIG d   1       1.079  82.221 116.121  0.00  0.00     0.028 C 
ATOM     10  C   LIG d   1       2.564  81.833 116.225  0.00  0.00     0.006 C 
ENDBRANCH   8   9
BRANCH   8  11
ATOM     11  C   LIG d   1      -0.061  84.258 115.399  0.00  0.00     0.028 C 
ATOM     12  C   LIG d   1      -1.213  84.625 114.450  0.00  0.00     0.006 C 
ENDBRANCH   8  11
ENDBRANCH   7   8
ENDBRANCH   1   7
BRANCH   6  13
ATOM     13  N   LIG d   1      -0.586  79.679 112.545  0.00  0.00    -0.311 N 
ATOM     14  C   LIG d   1      -1.830  79.212 112.451  0.00  0.00     0.210 C 
ATOM     15  C   LIG d   1      -2.090  77.907 113.210  0.00  0.00     0.109 C 
ATOM     16  O   LIG d   1      -2.734  79.738 111.785  0.00  0.00    -0.276 OA
ATOM     17  H   LIG d   1       0.092  79.171 113.080  0.00  0.00     0.149 HD
ENDBRANCH   6  13
BRANCH   5  18
ATOM     18  N   LIG d   1      -0.345  80.105 109.529  0.00  0.00     0.381 N 
ATOM     19  H   LIG d   1       0.191  79.710 108.783  0.00  0.00    -0.090 HD
ATOM     20  H   LIG d   1      -0.924  80.834 109.151  0.00  0.00    -0.090 HD
ATOM     21  H   LIG d   1      -0.914  79.401 109.947  0.00  0.00    -0.090 HD
ENDBRANCH   5  18
BRANCH   3  22
ATOM     22  C   LIG d   1       2.839  83.570 110.422  0.00  0.00     0.382 C 
ATOM     23  O   LIG d   1       4.008  83.472 110.866  0.00  0.00    -0.241 OA
ATOM     24  O   LIG d   1       2.575  84.444 109.575  0.00  0.00    -0.241 OA
ENDBRANCH   3  22
TORSDOF 7
ENDMDL
MODEL 3
REMARK VINA RESULT:      -4.7      1.590      2.254
REMARK  7 active torsions:
REMARK  status: ('A' for Active; 'I' for Inactive)
REMARK    1  A    between atoms: C_2  and  C_3 
REMARK    2  A    between atoms: C_3  and  O_6 
REMARK    3  A    between atoms: C_3  and  C_4 
REMARK    4  A    between atoms: C_7  and  O_6 
REMARK    5  A    between atoms: C_9  and  C_10 
REMARK    6  A    between atoms: N_15  and  C_14 
REMARK    7  A    between atoms: N_20  and  C_19 
REMARK       I    between atoms: C_22  and  N_20 
ROOT
ATOM      1  C   LIG d   1      -0.923  82.010 112.574  0.00  0.00     0.161 C 
ATOM      2  C   LIG d   1      -1.789  80.948 112.881  0.00  0.00     0.016 C 
ATOM      3  C   LIG d   1      -1.761  79.703 112.212  0.00  0.00     0.038 C 
ATOM      4  C   LIG d   1      -0.758  79.381 111.285  0.00  0.00     0.028 C 
ATOM      5  C   LIG d   1      -0.173  80.600 110.580  0.00  0.00    -0.047 C 
ATOM      6  C   LIG d   1       0.250  81.640 111.642  0.00  0.00     0.091 C 
ENDROOT
BRANCH   1   7
ATOM      7  O   LIG d   1      -0.429  82.606 113.790  0.00  0.00    -0.368 OA
BRANCH   7   8
ATOM      8  C   LIG d   1       0.864  82.140 114.247  0.00  0.00     0.119 C 
BRANCH   8   9
ATOM      9  C   LIG d   1       0.654  81.458 115.613  0.00  0.00     0.028 C 
ATOM     10  C   LIG d   1       1.947  81.397 116.444  0.00  0.00     0.006 C 
ENDBRANCH   8   9
BRANCH   8  11
ATOM     11  C   LIG d   1       1.813  83.311 114.521  0.00  0.00     0.028 C 
ATOM     12  C   LIG d   1       1.150  84.679 114.301  0.00  0.00     0.006 C 
ENDBRANCH   8  11
ENDBRANCH   7   8
ENDBRANCH   1   7
BRANCH   6  13
ATOM     13  N   LIG d   1       0.756  82.898 111.034  0.00  0.00    -0.311 N 
ATOM     14  C   LIG d   1       2.045  83.127 110.788  0.00  0.00     0.210 C 
ATOM     15  C   LIG d   1       2.353  84.497 110.176  0.00  0.00     0.109 C 
ATOM     16  O   LIG d   1       2.958  82.313 110.989  0.00  0.00    -0.276 OA
ATOM     17  H   LIG d   1       0.079  83.601 110.810  0.00  0.00     0.149 HD
ENDBRANCH   6  13
BRANCH   5  18
ATOM     18  N   LIG d   1       0.953  80.134 109.747  0.00  0.00     0.381 N 
ATOM     19  H   LIG d   1       0.694  80.165 108.781  0.00  0.00    -0.090 HD
ATOM     20  H   LIG d   1       1.162  79.181 109.987  0.00  0.00    -0.090 HD
ATOM     21  H   LIG d   1       1.752  80.708 109.903  0.00  0.00    -0.090 HD
ENDBRANCH   5  18
BRANCH   3  22
ATOM     22  C   LIG d   1      -2.769  78.778 112.439  0.00  0.00     0.382 C 
ATOM     23  O   LIG d   1      -3.048  78.430 113.612  0.00  0.00    -0.241 OA
ATOM     24  O   LIG d   1      -3.372  78.253 111.484  0.00  0.00    -0.241 OA
ENDBRANCH   3  22
TORSDOF 7
ENDMDL
MODEL 4
REMARK VINA RESULT:      -4.7      2.357      4.554
REMARK  7 active torsions:
REMARK  status: ('A' for Active; 'I' for Inactive)
REMARK    1  A    between atoms: C_2  and  C_3 
REMARK    2  A    between atoms: C_3  and  O_6 
REMARK    3  A    between atoms: C_3  and  C_4 
REMARK    4  A    between atoms: C_7  and  O_6 
REMARK    5  A    between atoms: C_9  and  C_10 
REMARK    6  A    between atoms: N_15  and  C_14 
REMARK    7  A    between atoms: N_20  and  C_19 
REMARK       I    between atoms: C_22  and  N_20 
ROOT
ATOM      1  C   LIG d   1       0.315  81.556 111.314  0.00  0.00     0.161 C 
ATOM      2  C   LIG d   1      -0.452  80.384 111.418  0.00  0.00     0.016 C 
ATOM      3  C   LIG d   1      -1.521  80.232 112.332  0.00  0.00     0.038 C 
ATOM      4  C   LIG d   1      -1.994  81.303 113.104  0.00  0.00     0.028 C 
ATOM      5  C   LIG d   1      -0.930  82.355 113.397  0.00  0.00    -0.047 C 
ATOM      6  C   LIG d   1      -0.258  82.773 112.069  0.00  0.00     0.091 C 
ENDROOT
BRANCH   1   7
ATOM      7  O   LIG d   1       0.524  81.881 109.925  0.00  0.00    -0.368 OA
BRANCH   7   8
ATOM      8  C   LIG d   1       1.901  81.895 109.475  0.00  0.00     0.119 C 
BRANCH   8   9
ATOM      9  C   LIG d   1       2.725  81.065 110.478  0.00  0.00     0.028 C 
ATOM     10  C   LIG d   1       3.508  79.930 109.796  0.00  0.00     0.006 C 
ENDBRANCH   8   9
BRANCH   8  11
ATOM     11  C   LIG d   1       2.492  83.307 109.535  0.00  0.00     0.028 C 
ATOM     12  C   LIG d   1       3.972  83.316 109.949  0.00  0.00     0.006 C 
ENDBRANCH   8  11
ENDBRANCH   7   8
ENDBRANCH   1   7
BRANCH   6  13
ATOM     13  N   LIG d   1       0.854  83.738 112.276  0.00  0.00    -0.311 N 
ATOM     14  C   LIG d   1       1.830  83.553 113.163  0.00  0.00     0.210 C 
ATOM     15  C   LIG d   1       2.866  84.680 113.229  0.00  0.00     0.109 C 
ATOM     16  O   LIG d   1       1.954  82.547 113.878  0.00  0.00    -0.276 OA
ATOM     17  H   LIG d   1       0.848  84.567 111.715  0.00  0.00     0.149 HD
ENDBRANCH   6  13
BRANCH   5  18
ATOM     18  N   LIG d   1      -1.592  83.478 114.089  0.00  0.00     0.381 N 
ATOM     19  H   LIG d   1      -1.078  84.322 113.932  0.00  0.00    -0.090 HD
ATOM     20  H   LIG d   1      -1.600  83.292 115.076  0.00  0.00    -0.090 HD
ATOM     21  H   LIG d   1      -2.525  83.581 113.755  0.00  0.00    -0.090 HD
ENDBRANCH   5  18
BRANCH   3  22
ATOM     22  C   LIG d   1      -2.101  78.985 112.509  0.00  0.00     0.382 C 
ATOM     23  O   LIG d   1      -1.402  78.017 112.893  0.00  0.00    -0.241 OA
ATOM     24  O   LIG d   1      -3.306  78.806 112.247  0.00  0.00    -0.241 OA
ENDBRANCH   3  22
TORSDOF 7
ENDMDL
MODEL 5
REMARK VINA RESULT:      -4.3      2.507      5.790
REMARK  7 active torsions:
REMARK  status: ('A' for Active; 'I' for Inactive)
REMARK    1  A    between atoms: C_2  and  C_3 
REMARK    2  A    between atoms: C_3  and  O_6 
REMARK    3  A    between atoms: C_3  and  C_4 
REMARK    4  A    between atoms: C_7  and  O_6 
REMARK    5  A    between atoms: C_9  and  C_10 
REMARK    6  A    between atoms: N_15  and  C_14 
REMARK    7  A    between atoms: N_20  and  C_19 
REMARK       I    between atoms: C_22  and  N_20 
ROOT
ATOM      1  C   LIG d   1       0.758  83.890 113.463  0.00  0.00     0.161 C 
ATOM      2  C   LIG d   1       1.901  84.390 114.109  0.00  0.00     0.016 C 
ATOM      3  C   LIG d   1       2.563  83.709 115.157  0.00  0.00     0.038 C 
ATOM      4  C   LIG d   1       2.212  82.403 115.530  0.00  0.00     0.028 C 
ATOM      5  C   LIG d   1       0.752  82.064 115.250  0.00  0.00    -0.047 C 
ATOM      6  C   LIG d   1       0.428  82.417 113.781  0.00  0.00     0.091 C 
ENDROOT
BRANCH   1   7
ATOM      7  O   LIG d   1       0.880  84.080 112.039  0.00  0.00    -0.368 OA
BRANCH   7   8
ATOM      8  C   LIG d   1       1.881  83.273 111.371  0.00  0.00     0.119 C 
BRANCH   8   9
ATOM      9  C   LIG d   1       2.915  84.235 110.755  0.00  0.00     0.028 C 
ATOM     10  C   LIG d   1       4.127  83.495 110.165  0.00  0.00     0.006 C 
ENDBRANCH   8   9
BRANCH   8  11
ATOM     11  C   LIG d   1       1.281  82.509 110.187  0.00  0.00     0.028 C 
ATOM     12  C   LIG d   1       1.373  80.984 110.354  0.00  0.00     0.006 C 
ENDBRANCH   8  11
ENDBRANCH   7   8
ENDBRANCH   1   7
BRANCH   6  13
ATOM     13  N   LIG d   1      -1.003  82.195 113.447  0.00  0.00    -0.311 N 
ATOM     14  C   LIG d   1      -1.476  81.042 112.977  0.00  0.00     0.210 C 
ATOM     15  C   LIG d   1      -2.979  81.033 112.679  0.00  0.00     0.109 C 
ATOM     16  O   LIG d   1      -0.800  80.016 112.808  0.00  0.00    -0.276 OA
ATOM     17  H   LIG d   1      -1.628  82.965 113.583  0.00  0.00     0.149 HD
ENDBRANCH   6  13
BRANCH   5  18
ATOM     18  N   LIG d   1       0.559  80.635 115.558  0.00  0.00     0.381 N 
ATOM     19  H   LIG d   1       1.448  80.186 115.655  0.00  0.00    -0.090 HD
ATOM     20  H   LIG d   1       0.068  80.201 114.796  0.00  0.00    -0.090 HD
ATOM     21  H   LIG d   1       0.035  80.535 116.400  0.00  0.00    -0.090 HD
ENDBRANCH   5  18
BRANCH   3  22
ATOM     22  C   LIG d   1       3.562  84.352 115.871  0.00  0.00     0.382 C 
ATOM     23  O   LIG d   1       4.676  84.567 115.335  0.00  0.00    -0.241 OA
ATOM     24  O   LIG d   1       3.380  84.680 117.058  0.00  0.00    -0.241 OA
ENDBRANCH   3  22
TORSDOF 7
ENDMDL
MODEL 6
REMARK VINA RESULT:      -3.9      3.417      5.066
REMARK  7 active torsions:
REMARK  status: ('A' for Active; 'I' for Inactive)
REMARK    1  A    between atoms: C_2  and  C_3 
REMARK    2  A    between atoms: C_3  and  O_6 
REMARK    3  A    between atoms: C_3  and  C_4 
REMARK    4  A    between atoms: C_7  and  O_6 
REMARK    5  A    between atoms: C_9  and  C_10 
REMARK    6  A    between atoms: N_15  and  C_14 
REMARK    7  A    between atoms: N_20  and  C_19 
REMARK       I    between atoms: C_22  and  N_20 
ROOT
ATOM      1  C   LIG d   1      -0.375  80.064 114.350  0.00  0.00     0.161 C 
ATOM      2  C   LIG d   1      -0.487  81.377 113.864  0.00  0.00     0.016 C 
ATOM      3  C   LIG d   1      -1.294  81.732 112.758  0.00  0.00     0.038 C 
ATOM      4  C   LIG d   1      -2.168  80.816 112.155  0.00  0.00     0.028 C 
ATOM      5  C   LIG d   1      -1.714  79.366 112.288  0.00  0.00    -0.047 C 
ATOM      6  C   LIG d   1      -1.407  79.071 113.774  0.00  0.00     0.091 C 
ENDROOT
BRANCH   1   7
ATOM      7  O   LIG d   1      -0.435  80.070 115.790  0.00  0.00    -0.368 OA
BRANCH   7   8
ATOM      8  C   LIG d   1       0.830  79.928 116.481  0.00  0.00     0.119 C 
BRANCH   8   9
ATOM      9  C   LIG d   1       0.783  78.602 117.266  0.00  0.00     0.028 C 
ATOM     10  C   LIG d   1      -0.482  78.477 118.131  0.00  0.00     0.006 C 
ENDBRANCH   8   9
BRANCH   8  11
ATOM     11  C   LIG d   1       1.012  81.019 117.540  0.00  0.00     0.028 C 
ATOM     12  C   LIG d   1       1.164  82.422 116.930  0.00  0.00     0.006 C 
ENDBRANCH   8  11
ENDBRANCH   7   8
ENDBRANCH   1   7
BRANCH   6  13
ATOM     13  N   LIG d   1      -0.875  77.699 113.982  0.00  0.00    -0.311 N 
ATOM     14  C   LIG d   1      -1.450  76.803 114.783  0.00  0.00     0.210 C 
ATOM     15  C   LIG d   1      -0.727  75.455 114.869  0.00  0.00     0.109 C 
ATOM     16  O   LIG d   1      -2.507  76.986 115.405  0.00  0.00    -0.276 OA
ATOM     17  H   LIG d   1      -0.037  77.456 113.491  0.00  0.00     0.149 HD
ENDBRANCH   6  13
BRANCH   5  18
ATOM     18  N   LIG d   1      -2.782  78.511 111.738  0.00  0.00     0.381 N 
ATOM     19  H   LIG d   1      -2.390  77.845 111.103  0.00  0.00    -0.090 HD
ATOM     20  H   LIG d   1      -3.430  79.087 111.230  0.00  0.00    -0.090 HD
ATOM     21  H   LIG d   1      -3.255  78.038 112.476  0.00  0.00    -0.090 HD
ENDBRANCH   5  18
BRANCH   3  22
ATOM     22  C   LIG d   1      -1.202  83.006 112.221  0.00  0.00     0.382 C 
ATOM     23  O   LIG d   1      -1.080  83.157 110.981  0.00  0.00    -0.241 OA
ATOM     24  O   LIG d   1      -1.194  84.006 112.963  0.00  0.00    -0.241 OA
ENDBRANCH   3  22
TORSDOF 7
ENDMDL
MODEL 7
REMARK VINA RESULT:      -3.9      6.514      7.743
REMARK  7 active torsions:
REMARK  status: ('A' for Active; 'I' for Inactive)
REMARK    1  A    between atoms: C_2  and  C_3 
REMARK    2  A    between atoms: C_3  and  O_6 
REMARK    3  A    between atoms: C_3  and  C_4 
REMARK    4  A    between atoms: C_7  and  O_6 
REMARK    5  A    between atoms: C_9  and  C_10 
REMARK    6  A    between atoms: N_15  and  C_14 
REMARK    7  A    between atoms: N_20  and  C_19 
REMARK       I    between atoms: C_22  and  N_20 
ROOT
ATOM      1  C   LIG d   1       0.673  76.789 117.235  0.00  0.00     0.161 C 
ATOM      2  C   LIG d   1      -0.074  77.612 118.094  0.00  0.00     0.016 C 
ATOM      3  C   LIG d   1      -1.413  77.344 118.461  0.00  0.00     0.038 C 
ATOM      4  C   LIG d   1      -2.051  76.145 118.111  0.00  0.00     0.028 C 
ATOM      5  C   LIG d   1      -1.509  75.522 116.828  0.00  0.00    -0.047 C 
ATOM      6  C   LIG d   1       0.030  75.419 116.932  0.00  0.00     0.091 C 
ENDROOT
BRANCH   1   7
ATOM      7  O   LIG d   1       2.003  76.613 117.760  0.00  0.00    -0.368 OA
BRANCH   7   8
ATOM      8  C   LIG d   1       3.076  77.211 116.993  0.00  0.00     0.119 C 
BRANCH   8   9
ATOM      9  C   LIG d   1       4.399  76.595 117.487  0.00  0.00     0.028 C 
ATOM     10  C   LIG d   1       4.218  75.773 118.774  0.00  0.00     0.006 C 
ENDBRANCH   8   9
BRANCH   8  11
ATOM     11  C   LIG d   1       3.196  78.711 117.278  0.00  0.00     0.028 C 
ATOM     12  C   LIG d   1       4.341  79.377 116.498  0.00  0.00     0.006 C 
ENDBRANCH   8  11
ENDBRANCH   7   8
ENDBRANCH   1   7
BRANCH   6  13
ATOM     13  N   LIG d   1       0.648  74.899 115.685  0.00  0.00    -0.311 N 
ATOM     14  C   LIG d   1       0.207  75.203 114.465  0.00  0.00     0.210 C 
ATOM     15  C   LIG d   1       0.976  74.542 113.316  0.00  0.00     0.109 C 
ATOM     16  O   LIG d   1      -0.727  75.982 114.225  0.00  0.00    -0.276 OA
ATOM     17  H   LIG d   1       1.432  74.284 115.787  0.00  0.00     0.149 HD
ENDBRANCH   6  13
BRANCH   5  18
ATOM     18  N   LIG d   1      -2.166  74.213 116.656  0.00  0.00     0.381 N 
ATOM     19  H   LIG d   1      -1.474  73.499 116.542  0.00  0.00    -0.090 HD
ATOM     20  H   LIG d   1      -2.731  74.239 115.826  0.00  0.00    -0.090 HD
ATOM     21  H   LIG d   1      -2.736  74.010 117.448  0.00  0.00    -0.090 HD
ENDBRANCH   5  18
BRANCH   3  22
ATOM     22  C   LIG d   1      -2.140  78.299 119.154  0.00  0.00     0.382 C 
ATOM     23  O   LIG d   1      -3.364  78.123 119.366  0.00  0.00    -0.241 OA
ATOM     24  O   LIG d   1      -1.598  79.356 119.531  0.00  0.00    -0.241 OA
ENDBRANCH   3  22
TORSDOF 7
ENDMDL
MODEL 8
REMARK VINA RESULT:      -3.7      4.694      7.588
REMARK  7 active torsions:
REMARK  status: ('A' for Active; 'I' for Inactive)
REMARK    1  A    between atoms: C_2  and  C_3 
REMARK    2  A    between atoms: C_3  and  O_6 
REMARK    3  A    between atoms: C_3  and  C_4 
REMARK    4  A    between atoms: C_7  and  O_6 
REMARK    5  A    between atoms: C_9  and  C_10 
REMARK    6  A    between atoms: N_15  and  C_14 
REMARK    7  A    between atoms: N_20  and  C_19 
REMARK       I    between atoms: C_22  and  N_20 
ROOT
ATOM      1  C   LIG d   1       2.748  79.848 117.301  0.00  0.00     0.161 C 
ATOM      2  C   LIG d   1       3.975  79.716 116.629  0.00  0.00     0.016 C 
ATOM      3  C   LIG d   1       4.644  78.481 116.465  0.00  0.00     0.038 C 
ATOM      4  C   LIG d   1       4.053  77.263 116.834  0.00  0.00     0.028 C 
ATOM      5  C   LIG d   1       3.044  77.399 117.969  0.00  0.00    -0.047 C 
ATOM      6  C   LIG d   1       2.035  78.515 117.613  0.00  0.00     0.091 C 
ENDROOT
BRANCH   1   7
ATOM      7  O   LIG d   1       1.875  80.721 116.559  0.00  0.00    -0.368 OA
BRANCH   7   8
ATOM      8  C   LIG d   1       1.918  82.124 116.921  0.00  0.00     0.119 C 
BRANCH   8   9
ATOM      9  C   LIG d   1       0.954  82.326 118.105  0.00  0.00     0.028 C 
ATOM     10  C   LIG d   1       0.515  83.791 118.261  0.00  0.00     0.006 C 
ENDBRANCH   8   9
BRANCH   8  11
ATOM     11  C   LIG d   1       1.370  83.007 115.796  0.00  0.00     0.028 C 
ATOM     12  C   LIG d   1       0.549  82.216 114.764  0.00  0.00     0.006 C 
ENDBRANCH   8  11
ENDBRANCH   7   8
ENDBRANCH   1   7
BRANCH   6  13
ATOM     13  N   LIG d   1       1.063  78.771 118.708  0.00  0.00    -0.311 N 
ATOM     14  C   LIG d   1      -0.257  78.763 118.533  0.00  0.00     0.210 C 
ATOM     15  C   LIG d   1      -1.078  79.071 119.789  0.00  0.00     0.109 C 
ATOM     16  O   LIG d   1      -0.827  78.498 117.463  0.00  0.00    -0.276 OA
ATOM     17  H   LIG d   1       1.439  78.964 119.616  0.00  0.00     0.149 HD
ENDBRANCH   6  13
BRANCH   5  18
ATOM     18  N   LIG d   1       2.406  76.082 118.158  0.00  0.00     0.381 N 
ATOM     19  H   LIG d   1       2.859  75.401 117.583  0.00  0.00    -0.090 HD
ATOM     20  H   LIG d   1       1.444  76.144 117.875  0.00  0.00    -0.090 HD
ATOM     21  H   LIG d   1       2.462  75.811 119.115  0.00  0.00    -0.090 HD
ENDBRANCH   5  18
BRANCH   3  22
ATOM     22  C   LIG d   1       5.936  78.461 115.962  0.00  0.00     0.382 C 
ATOM     23  O   LIG d   1       6.350  77.454 115.339  0.00  0.00    -0.241 OA
ATOM     24  O   LIG d   1       6.706  79.419 116.161  0.00  0.00    -0.241 OA
ENDBRANCH   3  22
TORSDOF 7
ENDMDL
MODEL 9
REMARK VINA RESULT:      -3.6      6.239      7.707
REMARK  7 active torsions:
REMARK  status: ('A' for Active; 'I' for Inactive)
REMARK    1  A    between atoms: C_2  and  C_3 
REMARK    2  A    between atoms: C_3  and  O_6 
REMARK    3  A    between atoms: C_3  and  C_4 
REMARK    4  A    between atoms: C_7  and  O_6 
REMARK    5  A    between atoms: C_9  and  C_10 
REMARK    6  A    between atoms: N_15  and  C_14 
REMARK    7  A    between atoms: N_20  and  C_19 
REMARK       I    between atoms: C_22  and  N_20 
ROOT
ATOM      1  C   LIG d   1       3.230  77.509 117.434  0.00  0.00     0.161 C 
ATOM      2  C   LIG d   1       2.336  76.451 117.201  0.00  0.00     0.016 C 
ATOM      3  C   LIG d   1       0.930  76.607 117.195  0.00  0.00     0.038 C 
ATOM      4  C   LIG d   1       0.324  77.870 117.275  0.00  0.00     0.028 C 
ATOM      5  C   LIG d   1       1.167  78.901 118.016  0.00  0.00    -0.047 C 
ATOM      6  C   LIG d   1       2.590  78.914 117.413  0.00  0.00     0.091 C 
ENDROOT
BRANCH   1   7
ATOM      7  O   LIG d   1       4.322  77.442 116.497  0.00  0.00    -0.368 OA
BRANCH   7   8
ATOM      8  C   LIG d   1       5.524  76.781 116.965  0.00  0.00     0.119 C 
BRANCH   8   9
ATOM      9  C   LIG d   1       5.723  77.173 118.442  0.00  0.00     0.028 C 
ATOM     10  C   LIG d   1       6.193  75.990 119.305  0.00  0.00     0.006 C 
ENDBRANCH   8   9
BRANCH   8  11
ATOM     11  C   LIG d   1       6.766  77.303 116.236  0.00  0.00     0.028 C 
ATOM     12  C   LIG d   1       6.514  78.629 115.502  0.00  0.00     0.006 C 
ENDBRANCH   8  11
ENDBRANCH   7   8
ENDBRANCH   1   7
BRANCH   6  13
ATOM     13  N   LIG d   1       3.505  79.836 118.135  0.00  0.00    -0.311 N 
ATOM     14  C   LIG d   1       4.134  80.853 117.549  0.00  0.00     0.210 C 
ATOM     15  C   LIG d   1       5.046  81.667 118.472  0.00  0.00     0.109 C 
ATOM     16  O   LIG d   1       3.998  81.178 116.360  0.00  0.00    -0.276 OA
ATOM     17  H   LIG d   1       3.648  79.664 119.111  0.00  0.00     0.149 HD
ENDBRANCH   6  13
BRANCH   5  18
ATOM     18  N   LIG d   1       0.481  80.202 117.905  0.00  0.00     0.381 N 
ATOM     19  H   LIG d   1      -0.349  80.196 118.464  0.00  0.00    -0.090 HD
ATOM     20  H   LIG d   1       0.214  80.347 116.947  0.00  0.00    -0.090 HD
ATOM     21  H   LIG d   1       1.086  80.934 118.203  0.00  0.00    -0.090 HD
ENDBRANCH   5  18
BRANCH   3  22
ATOM     22  C   LIG d   1       0.115  75.486 117.150  0.00  0.00     0.382 C 
ATOM     23  O   LIG d   1      -0.111  74.920 116.054  0.00  0.00    -0.241 OA
ATOM     24  O   LIG d   1      -0.433  75.062 118.185  0.00  0.00    -0.241 OA
ENDBRANCH   3  22
TORSDOF 7
ENDMDL
