MODEL 1
REMARK VINA RESULT:      -5.5      0.000      0.000
REMARK  7 active torsions:
REMARK  status: ('A' for Active; 'I' for Inactive)
REMARK    1  A    between atoms: C_2  and  C_3 
REMARK    2  A    between atoms: C_3  and  O_6 
REMARK    3  A    between atoms: C_3  and  C_4 
REMARK    4  A    between atoms: C_7  and  O_6 
REMARK    5  A    between atoms: C_9  and  C_10 
REMARK    6  A    between atoms: N_15  and  C_14 
REMARK    7  A    between atoms: N_20  and  C_19 
REMARK       I    between atoms: C_22  and  N_20 
ROOT
ATOM      1  C   LIG d   1       1.102  81.278 112.462  0.00  0.00     0.161 C 
ATOM      2  C   LIG d   1       2.223  81.725 111.744  0.00  0.00     0.016 C 
ATOM      3  C   LIG d   1       2.410  81.485 110.363  0.00  0.00     0.038 C 
ATOM      4  C   LIG d   1       1.408  80.907 109.569  0.00  0.00     0.028 C 
ATOM      5  C   LIG d   1       0.473  79.988 110.348  0.00  0.00    -0.047 C 
ATOM      6  C   LIG d   1      -0.053  80.743 111.590  0.00  0.00     0.091 C 
ENDROOT
BRANCH   1   7
ATOM      7  O   LIG d   1       0.629  82.326 113.332  0.00  0.00    -0.368 OA
BRANCH   7   8
ATOM      8  C   LIG d   1       1.013  83.676 112.971  0.00  0.00     0.119 C 
BRANCH   8   9
ATOM      9  C   LIG d   1       1.471  84.387 114.259  0.00  0.00     0.028 C 
ATOM     10  C   LIG d   1       2.194  83.438 115.228  0.00  0.00     0.006 C 
ENDBRANCH   8   9
BRANCH   8  11
ATOM     11  C   LIG d   1      -0.189  84.481 112.468  0.00  0.00     0.028 C 
ATOM     12  C   LIG d   1      -0.250  84.565 110.934  0.00  0.00     0.006 C 
ENDBRANCH   8  11
ENDBRANCH   7   8
ENDBRANCH   1   7
BRANCH   6  13
ATOM     13  N   LIG d   1      -0.910  79.888 112.453  0.00  0.00    -0.311 N 
ATOM     14  C   LIG d   1      -2.092  80.276 112.926  0.00  0.00     0.210 C 
ATOM     15  C   LIG d   1      -2.803  79.249 113.813  0.00  0.00     0.109 C 
ATOM     16  O   LIG d   1      -2.636  81.361 112.670  0.00  0.00    -0.276 OA
ATOM     17  H   LIG d   1      -0.560  78.979 112.685  0.00  0.00     0.149 HD
ENDBRANCH   6  13
BRANCH   5  18
ATOM     18  N   LIG d   1      -0.602  79.565 109.431  0.00  0.00     0.381 N 
ATOM     19  H   LIG d   1      -0.418  78.639 109.098  0.00  0.00    -0.090 HD
ATOM     20  H   LIG d   1      -0.619  80.186 108.641  0.00  0.00    -0.090 HD
ATOM     21  H   LIG d   1      -1.480  79.589 109.900  0.00  0.00    -0.090 HD
ENDBRANCH   5  18
BRANCH   3  22
ATOM     22  C   LIG d   1       3.627  81.787 109.771  0.00  0.00     0.382 C 
ATOM     23  O   LIG d   1       4.468  80.879 109.567  0.00  0.00    -0.241 OA
ATOM     24  O   LIG d   1       3.912  82.964 109.479  0.00  0.00    -0.241 OA
ENDBRANCH   3  22
TORSDOF 7
ENDMDL
MODEL 2
REMARK VINA RESULT:      -5.3      2.304      4.335
REMARK  7 active torsions:
REMARK  status: ('A' for Active; 'I' for Inactive)
REMARK    1  A    between atoms: C_2  and  C_3 
REMARK    2  A    between atoms: C_3  and  O_6 
REMARK    3  A    between atoms: C_3  and  C_4 
REMARK    4  A    between atoms: C_7  and  O_6 
REMARK    5  A    between atoms: C_9  and  C_10 
REMARK    6  A    between atoms: N_15  and  C_14 
REMARK    7  A    between atoms: N_20  and  C_19 
REMARK       I    between atoms: C_22  and  N_20 
ROOT
ATOM      1  C   LIG d   1       1.035  81.569 110.638  0.00  0.00     0.161 C 
ATOM      2  C   LIG d   1       1.106  80.235 110.203  0.00  0.00     0.016 C 
ATOM      3  C   LIG d   1       0.183  79.239 110.595  0.00  0.00     0.038 C 
ATOM      4  C   LIG d   1      -0.970  79.545 111.334  0.00  0.00     0.028 C 
ATOM      5  C   LIG d   1      -0.813  80.780 112.216  0.00  0.00    -0.047 C 
ATOM      6  C   LIG d   1      -0.278  81.947 111.354  0.00  0.00     0.091 C 
ENDROOT
BRANCH   1   7
ATOM      7  O   LIG d   1       1.273  82.458 109.528  0.00  0.00    -0.368 OA
BRANCH   7   8
ATOM      8  C   LIG d   1       2.586  83.068 109.471  0.00  0.00     0.119 C 
BRANCH   8   9
ATOM      9  C   LIG d   1       3.548  82.172 110.275  0.00  0.00     0.028 C 
ATOM     10  C   LIG d   1       4.735  81.679 109.430  0.00  0.00     0.006 C 
ENDBRANCH   8   9
BRANCH   8  11
ATOM     11  C   LIG d   1       2.603  84.423 110.184  0.00  0.00     0.028 C 
ATOM     12  C   LIG d   1       3.870  84.637 111.028  0.00  0.00     0.006 C 
ENDBRANCH   8  11
ENDBRANCH   7   8
ENDBRANCH   1   7
BRANCH   6  13
ATOM     13  N   LIG d   1      -0.017  83.170 112.157  0.00  0.00    -0.311 N 
ATOM     14  C   LIG d   1       0.954  83.258 113.064  0.00  0.00     0.210 C 
ATOM     15  C   LIG d   1       1.038  84.603 113.793  0.00  0.00     0.109 C 
ATOM     16  O   LIG d   1       1.775  82.362 113.311  0.00  0.00    -0.276 OA
ATOM     17  H   LIG d   1      -0.616  83.956 111.998  0.00  0.00     0.149 HD
ENDBRANCH   6  13
BRANCH   5  18
ATOM     18  N   LIG d   1      -2.128  81.064 112.822  0.00  0.00     0.381 N 
ATOM     19  H   LIG d   1      -2.004  81.552 113.687  0.00  0.00    -0.090 HD
ATOM     20  H   LIG d   1      -2.592  80.194 113.014  0.00  0.00    -0.090 HD
ATOM     21  H   LIG d   1      -2.679  81.612 112.199  0.00  0.00    -0.090 HD
ENDBRANCH   5  18
BRANCH   3  22
ATOM     22  C   LIG d   1       0.430  77.911 110.281  0.00  0.00     0.382 C 
ATOM     23  O   LIG d   1      -0.427  77.034 110.547  0.00  0.00    -0.241 OA
ATOM     24  O   LIG d   1       1.517  77.573 109.776  0.00  0.00    -0.241 OA
ENDBRANCH   3  22
TORSDOF 7
ENDMDL
MODEL 3
REMARK VINA RESULT:      -5.0      1.003      1.576
REMARK  7 active torsions:
REMARK  status: ('A' for Active; 'I' for Inactive)
REMARK    1  A    between atoms: C_2  and  C_3 
REMARK    2  A    between atoms: C_3  and  O_6 
REMARK    3  A    between atoms: C_3  and  C_4 
REMARK    4  A    between atoms: C_7  and  O_6 
REMARK    5  A    between atoms: C_9  and  C_10 
REMARK    6  A    between atoms: N_15  and  C_14 
REMARK    7  A    between atoms: N_20  and  C_19 
REMARK       I    between atoms: C_22  and  N_20 
ROOT
ATOM      1  C   LIG d   1       1.537  81.235 112.652  0.00  0.00     0.161 C 
ATOM      2  C   LIG d   1       2.579  81.900 111.985  0.00  0.00     0.016 C 
ATOM      3  C   LIG d   1       2.643  82.034 110.579  0.00  0.00     0.038 C 
ATOM      4  C   LIG d   1       1.584  81.640 109.748  0.00  0.00     0.028 C 
ATOM      5  C   LIG d   1       0.742  80.512 110.333  0.00  0.00    -0.047 C 
ATOM      6  C   LIG d   1       0.317  80.896 111.769  0.00  0.00     0.091 C 
ENDROOT
BRANCH   1   7
ATOM      7  O   LIG d   1       1.126  82.000 113.802  0.00  0.00    -0.368 OA
BRANCH   7   8
ATOM      8  C   LIG d   1       2.165  82.758 114.468  0.00  0.00     0.119 C 
BRANCH   8   9
ATOM      9  C   LIG d   1       2.316  82.187 115.891  0.00  0.00     0.028 C 
ATOM     10  C   LIG d   1       3.536  82.764 116.629  0.00  0.00     0.006 C 
ENDBRANCH   8   9
BRANCH   8  11
ATOM     11  C   LIG d   1       1.752  84.221 114.659  0.00  0.00     0.028 C 
ATOM     12  C   LIG d   1       0.665  84.667 113.669  0.00  0.00     0.006 C 
ENDBRANCH   8  11
ENDBRANCH   7   8
ENDBRANCH   1   7
BRANCH   6  13
ATOM     13  N   LIG d   1      -0.440  79.810 112.446  0.00  0.00    -0.311 N 
ATOM     14  C   LIG d   1      -1.695  79.946 112.869  0.00  0.00     0.210 C 
ATOM     15  C   LIG d   1      -2.282  78.711 113.559  0.00  0.00     0.109 C 
ATOM     16  O   LIG d   1      -2.390  80.961 112.710  0.00  0.00    -0.276 OA
ATOM     17  H   LIG d   1       0.038  78.942 112.588  0.00  0.00     0.149 HD
ENDBRANCH   6  13
BRANCH   5  18
ATOM     18  N   LIG d   1      -0.404  80.296 109.430  0.00  0.00     0.381 N 
ATOM     19  H   LIG d   1      -0.700  81.169 109.043  0.00  0.00    -0.090 HD
ATOM     20  H   LIG d   1      -1.167  79.910 109.959  0.00  0.00    -0.090 HD
ATOM     21  H   LIG d   1      -0.148  79.670 108.698  0.00  0.00    -0.090 HD
ENDBRANCH   5  18
BRANCH   3  22
ATOM     22  C   LIG d   1       3.794  82.532 109.987  0.00  0.00     0.382 C 
ATOM     23  O   LIG d   1       3.931  83.769 109.825  0.00  0.00    -0.241 OA
ATOM     24  O   LIG d   1       4.677  81.758 109.574  0.00  0.00    -0.241 OA
ENDBRANCH   3  22
TORSDOF 7
ENDMDL
MODEL 4
REMARK VINA RESULT:      -4.9      2.117      4.800
REMARK  7 active torsions:
REMARK  status: ('A' for Active; 'I' for Inactive)
REMARK    1  A    between atoms: C_2  and  C_3 
REMARK    2  A    between atoms: C_3  and  O_6 
REMARK    3  A    between atoms: C_3  and  C_4 
REMARK    4  A    between atoms: C_7  and  O_6 
REMARK    5  A    between atoms: C_9  and  C_10 
REMARK    6  A    between atoms: N_15  and  C_14 
REMARK    7  A    between atoms: N_20  and  C_19 
REMARK       I    between atoms: C_22  and  N_20 
ROOT
ATOM      1  C   LIG d   1      -0.062  81.430 111.913  0.00  0.00     0.161 C 
ATOM      2  C   LIG d   1      -1.031  80.429 112.089  0.00  0.00     0.016 C 
ATOM      3  C   LIG d   1      -0.979  79.173 111.441  0.00  0.00     0.038 C 
ATOM      4  C   LIG d   1       0.133  78.774 110.686  0.00  0.00     0.028 C 
ATOM      5  C   LIG d   1       0.900  79.941 110.072  0.00  0.00    -0.047 C 
ATOM      6  C   LIG d   1       1.217  80.971 111.181  0.00  0.00     0.091 C 
ENDROOT
BRANCH   1   7
ATOM      7  O   LIG d   1       0.274  82.014 113.188  0.00  0.00    -0.368 OA
BRANCH   7   8
ATOM      8  C   LIG d   1       1.533  81.595 113.769  0.00  0.00     0.119 C 
BRANCH   8   9
ATOM      9  C   LIG d   1       1.210  80.769 115.029  0.00  0.00     0.028 C 
ATOM     10  C   LIG d   1       2.107  81.142 116.221  0.00  0.00     0.006 C 
ENDBRANCH   8   9
BRANCH   8  11
ATOM     11  C   LIG d   1       2.343  82.796 114.268  0.00  0.00     0.028 C 
ATOM     12  C   LIG d   1       1.776  84.140 113.783  0.00  0.00     0.006 C 
ENDBRANCH   8  11
ENDBRANCH   7   8
ENDBRANCH   1   7
BRANCH   6  13
ATOM     13  N   LIG d   1       1.891  82.184 110.651  0.00  0.00    -0.311 N 
ATOM     14  C   LIG d   1       3.215  82.328 110.608  0.00  0.00     0.210 C 
ATOM     15  C   LIG d   1       3.703  83.665 110.042  0.00  0.00     0.109 C 
ATOM     16  O   LIG d   1       4.032  81.461 110.955  0.00  0.00    -0.276 OA
ATOM     17  H   LIG d   1       1.304  82.924 110.319  0.00  0.00     0.149 HD
ENDBRANCH   6  13
BRANCH   5  18
ATOM     18  N   LIG d   1       2.109  79.392 109.430  0.00  0.00     0.381 N 
ATOM     19  H   LIG d   1       2.179  78.413 109.622  0.00  0.00    -0.090 HD
ATOM     20  H   LIG d   1       2.917  79.848 109.816  0.00  0.00    -0.090 HD
ATOM     21  H   LIG d   1       2.071  79.544 108.446  0.00  0.00    -0.090 HD
ENDBRANCH   5  18
BRANCH   3  22
ATOM     22  C   LIG d   1      -2.068  78.317 111.513  0.00  0.00     0.382 C 
ATOM     23  O   LIG d   1      -2.591  78.061 112.625  0.00  0.00    -0.241 OA
ATOM     24  O   LIG d   1      -2.505  77.762 110.487  0.00  0.00    -0.241 OA
ENDBRANCH   3  22
TORSDOF 7
ENDMDL
MODEL 5
REMARK VINA RESULT:      -4.6      2.383      4.739
REMARK  7 active torsions:
REMARK  status: ('A' for Active; 'I' for Inactive)
REMARK    1  A    between atoms: C_2  and  C_3 
REMARK    2  A    between atoms: C_3  and  O_6 
REMARK    3  A    between atoms: C_3  and  C_4 
REMARK    4  A    between atoms: C_7  and  O_6 
REMARK    5  A    between atoms: C_9  and  C_10 
REMARK    6  A    between atoms: N_15  and  C_14 
REMARK    7  A    between atoms: N_20  and  C_19 
REMARK       I    between atoms: C_22  and  N_20 
ROOT
ATOM      1  C   LIG d   1       0.736  80.849 111.607  0.00  0.00     0.161 C 
ATOM      2  C   LIG d   1       0.043  79.851 110.901  0.00  0.00     0.016 C 
ATOM      3  C   LIG d   1      -0.837  78.931 111.516  0.00  0.00     0.038 C 
ATOM      4  C   LIG d   1      -1.202  79.043 112.866  0.00  0.00     0.028 C 
ATOM      5  C   LIG d   1      -0.141  79.722 113.726  0.00  0.00    -0.047 C 
ATOM      6  C   LIG d   1       0.265  81.057 113.062  0.00  0.00     0.091 C 
ENDROOT
BRANCH   1   7
ATOM      7  O   LIG d   1       0.679  82.092 110.879  0.00  0.00    -0.368 OA
BRANCH   7   8
ATOM      8  C   LIG d   1       1.751  82.326 109.933  0.00  0.00     0.119 C 
BRANCH   8   9
ATOM      9  C   LIG d   1       3.079  82.022 110.654  0.00  0.00     0.028 C 
ATOM     10  C   LIG d   1       4.047  81.206 109.781  0.00  0.00     0.006 C 
ENDBRANCH   8   9
BRANCH   8  11
ATOM     11  C   LIG d   1       1.833  83.803 109.538  0.00  0.00     0.028 C 
ATOM     12  C   LIG d   1       2.471  84.677 110.628  0.00  0.00     0.006 C 
ENDBRANCH   8  11
ENDBRANCH   7   8
ENDBRANCH   1   7
BRANCH   6  13
ATOM     13  N   LIG d   1       1.359  81.745 113.795  0.00  0.00    -0.311 N 
ATOM     14  C   LIG d   1       1.409  83.065 113.968  0.00  0.00     0.210 C 
ATOM     15  C   LIG d   1       2.634  83.571 114.736  0.00  0.00     0.109 C 
ATOM     16  O   LIG d   1       0.539  83.862 113.586  0.00  0.00    -0.276 OA
ATOM     17  H   LIG d   1       2.091  81.171 114.165  0.00  0.00     0.149 HD
ENDBRANCH   6  13
BRANCH   5  18
ATOM     18  N   LIG d   1      -0.708  79.897 115.077  0.00  0.00     0.381 N 
ATOM     19  H   LIG d   1      -0.494  79.098 115.640  0.00  0.00    -0.090 HD
ATOM     20  H   LIG d   1      -1.707  79.971 115.003  0.00  0.00    -0.090 HD
ATOM     21  H   LIG d   1      -0.336  80.719 115.499  0.00  0.00    -0.090 HD
ENDBRANCH   5  18
BRANCH   3  22
ATOM     22  C   LIG d   1      -1.330  77.860 110.787  0.00  0.00     0.382 C 
ATOM     23  O   LIG d   1      -2.556  77.788 110.531  0.00  0.00    -0.241 OA
ATOM     24  O   LIG d   1      -0.572  76.943 110.420  0.00  0.00    -0.241 OA
ENDBRANCH   3  22
TORSDOF 7
ENDMDL
MODEL 6
REMARK VINA RESULT:      -4.6      1.809      5.105
REMARK  7 active torsions:
REMARK  status: ('A' for Active; 'I' for Inactive)
REMARK    1  A    between atoms: C_2  and  C_3 
REMARK    2  A    between atoms: C_3  and  O_6 
REMARK    3  A    between atoms: C_3  and  C_4 
REMARK    4  A    between atoms: C_7  and  O_6 
REMARK    5  A    between atoms: C_9  and  C_10 
REMARK    6  A    between atoms: N_15  and  C_14 
REMARK    7  A    between atoms: N_20  and  C_19 
REMARK       I    between atoms: C_22  and  N_20 
ROOT
ATOM      1  C   LIG d   1       1.063  81.440 112.630  0.00  0.00     0.161 C 
ATOM      2  C   LIG d   1      -0.189  81.064 113.145  0.00  0.00     0.016 C 
ATOM      3  C   LIG d   1      -1.060  80.162 112.493  0.00  0.00     0.038 C 
ATOM      4  C   LIG d   1      -0.671  79.453 111.347  0.00  0.00     0.028 C 
ATOM      5  C   LIG d   1       0.383  80.177 110.515  0.00  0.00    -0.047 C 
ATOM      6  C   LIG d   1       1.552  80.592 111.437  0.00  0.00     0.091 C 
ENDROOT
BRANCH   1   7
ATOM      7  O   LIG d   1       2.046  81.436 113.684  0.00  0.00    -0.368 OA
BRANCH   7   8
ATOM      8  C   LIG d   1       1.713  82.200 114.869  0.00  0.00     0.119 C 
BRANCH   8   9
ATOM      9  C   LIG d   1       2.402  83.573 114.743  0.00  0.00     0.028 C 
ATOM     10  C   LIG d   1       1.443  84.668 114.247  0.00  0.00     0.006 C 
ENDBRANCH   8   9
BRANCH   8  11
ATOM     11  C   LIG d   1       2.307  81.563 116.128  0.00  0.00     0.028 C 
ATOM     12  C   LIG d   1       1.591  82.004 117.414  0.00  0.00     0.006 C 
ENDBRANCH   8  11
ENDBRANCH   7   8
ENDBRANCH   1   7
BRANCH   6  13
ATOM     13  N   LIG d   1       2.588  81.380 110.719  0.00  0.00    -0.311 N 
ATOM     14  C   LIG d   1       3.659  80.833 110.147  0.00  0.00     0.210 C 
ATOM     15  C   LIG d   1       4.612  81.828 109.476  0.00  0.00     0.109 C 
ATOM     16  O   LIG d   1       3.893  79.616 110.102  0.00  0.00    -0.276 OA
ATOM     17  H   LIG d   1       2.460  82.372 110.680  0.00  0.00     0.149 HD
ENDBRANCH   6  13
BRANCH   5  18
ATOM     18  N   LIG d   1       0.796  79.267 109.430  0.00  0.00     0.381 N 
ATOM     19  H   LIG d   1       0.383  79.560 108.567  0.00  0.00    -0.090 HD
ATOM     20  H   LIG d   1       0.468  78.341 109.640  0.00  0.00    -0.090 HD
ATOM     21  H   LIG d   1       1.789  79.265 109.347  0.00  0.00    -0.090 HD
ENDBRANCH   5  18
BRANCH   3  22
ATOM     22  C   LIG d   1      -2.352  79.992 112.966  0.00  0.00     0.382 C 
ATOM     23  O   LIG d   1      -3.102  80.987 113.114  0.00  0.00    -0.241 OA
ATOM     24  O   LIG d   1      -2.764  78.861 113.287  0.00  0.00    -0.241 OA
ENDBRANCH   3  22
TORSDOF 7
ENDMDL
MODEL 7
REMARK VINA RESULT:      -4.2      6.034      7.549
REMARK  7 active torsions:
REMARK  status: ('A' for Active; 'I' for Inactive)
REMARK    1  A    between atoms: C_2  and  C_3 
REMARK    2  A    between atoms: C_3  and  O_6 
REMARK    3  A    between atoms: C_3  and  C_4 
REMARK    4  A    between atoms: C_7  and  O_6 
REMARK    5  A    between atoms: C_9  and  C_10 
REMARK    6  A    between atoms: N_15  and  C_14 
REMARK    7  A    between atoms: N_20  and  C_19 
REMARK       I    between atoms: C_22  and  N_20 
ROOT
ATOM      1  C   LIG d   1       0.155  78.156 116.226  0.00  0.00     0.161 C 
ATOM      2  C   LIG d   1      -0.916  78.628 115.450  0.00  0.00     0.016 C 
ATOM      3  C   LIG d   1      -1.846  77.778 114.809  0.00  0.00     0.038 C 
ATOM      4  C   LIG d   1      -1.858  76.393 115.027  0.00  0.00     0.028 C 
ATOM      5  C   LIG d   1      -0.491  75.827 115.398  0.00  0.00    -0.047 C 
ATOM      6  C   LIG d   1       0.094  76.652 116.567  0.00  0.00     0.091 C 
ENDROOT
BRANCH   1   7
ATOM      7  O   LIG d   1       0.267  78.939 117.432  0.00  0.00    -0.368 OA
BRANCH   7   8
ATOM      8  C   LIG d   1      -0.940  79.609 117.871  0.00  0.00     0.119 C 
BRANCH   8   9
ATOM      9  C   LIG d   1      -0.528  80.982 118.434  0.00  0.00     0.028 C 
ATOM     10  C   LIG d   1      -1.545  81.529 119.451  0.00  0.00     0.006 C 
ENDBRANCH   8   9
BRANCH   8  11
ATOM     11  C   LIG d   1      -1.593  78.869 119.042  0.00  0.00     0.028 C 
ATOM     12  C   LIG d   1      -2.836  78.068 118.623  0.00  0.00     0.006 C 
ENDBRANCH   8  11
ENDBRANCH   7   8
ENDBRANCH   1   7
BRANCH   6  13
ATOM     13  N   LIG d   1       1.466  76.218 116.936  0.00  0.00    -0.311 N 
ATOM     14  C   LIG d   1       1.820  75.881 118.175  0.00  0.00     0.210 C 
ATOM     15  C   LIG d   1       3.289  75.483 118.343  0.00  0.00     0.109 C 
ATOM     16  O   LIG d   1       1.048  75.842 119.145  0.00  0.00    -0.276 OA
ATOM     17  H   LIG d   1       2.149  76.191 116.204  0.00  0.00     0.149 HD
ENDBRANCH   6  13
BRANCH   5  18
ATOM     18  N   LIG d   1      -0.674  74.402 115.732  0.00  0.00     0.381 N 
ATOM     19  H   LIG d   1      -1.643  74.161 115.670  0.00  0.00    -0.090 HD
ATOM     20  H   LIG d   1      -0.370  74.247 116.677  0.00  0.00    -0.090 HD
ATOM     21  H   LIG d   1      -0.143  73.834 115.108  0.00  0.00    -0.090 HD
ENDBRANCH   5  18
BRANCH   3  22
ATOM     22  C   LIG d   1      -2.755  78.310 113.907  0.00  0.00     0.382 C 
ATOM     23  O   LIG d   1      -3.374  77.553 113.120  0.00  0.00    -0.241 OA
ATOM     24  O   LIG d   1      -2.932  79.541 113.839  0.00  0.00    -0.241 OA
ENDBRANCH   3  22
TORSDOF 7
ENDMDL
MODEL 8
REMARK VINA RESULT:      -4.2      2.628      5.275
REMARK  7 active torsions:
REMARK  status: ('A' for Active; 'I' for Inactive)
REMARK    1  A    between atoms: C_2  and  C_3 
REMARK    2  A    between atoms: C_3  and  O_6 
REMARK    3  A    between atoms: C_3  and  C_4 
REMARK    4  A    between atoms: C_7  and  O_6 
REMARK    5  A    between atoms: C_9  and  C_10 
REMARK    6  A    between atoms: N_15  and  C_14 
REMARK    7  A    between atoms: N_20  and  C_19 
REMARK       I    between atoms: C_22  and  N_20 
ROOT
ATOM      1  C   LIG d   1       0.493  80.596 112.557  0.00  0.00     0.161 C 
ATOM      2  C   LIG d   1      -0.552  79.903 111.923  0.00  0.00     0.016 C 
ATOM      3  C   LIG d   1      -1.492  79.107 112.617  0.00  0.00     0.038 C 
ATOM      4  C   LIG d   1      -1.541  79.070 114.019  0.00  0.00     0.028 C 
ATOM      5  C   LIG d   1      -0.195  79.350 114.680  0.00  0.00    -0.047 C 
ATOM      6  C   LIG d   1       0.388  80.657 114.096  0.00  0.00     0.091 C 
ENDROOT
BRANCH   1   7
ATOM      7  O   LIG d   1       0.602  81.924 112.009  0.00  0.00    -0.368 OA
BRANCH   7   8
ATOM      8  C   LIG d   1       1.828  82.221 111.298  0.00  0.00     0.119 C 
BRANCH   8   9
ATOM      9  C   LIG d   1       1.548  83.423 110.374  0.00  0.00     0.028 C 
ATOM     10  C   LIG d   1       0.128  83.984 110.555  0.00  0.00     0.006 C 
ENDBRANCH   8   9
BRANCH   8  11
ATOM     11  C   LIG d   1       2.222  81.074 110.362  0.00  0.00     0.028 C 
ATOM     12  C   LIG d   1       3.678  80.622 110.554  0.00  0.00     0.006 C 
ENDBRANCH   8  11
ENDBRANCH   7   8
ENDBRANCH   1   7
BRANCH   6  13
ATOM     13  N   LIG d   1       1.743  80.960 114.627  0.00  0.00    -0.311 N 
ATOM     14  C   LIG d   1       1.953  81.612 115.769  0.00  0.00     0.210 C 
ATOM     15  C   LIG d   1       3.427  81.837 116.123  0.00  0.00     0.109 C 
ATOM     16  O   LIG d   1       1.060  81.996 116.539  0.00  0.00    -0.276 OA
ATOM     17  H   LIG d   1       2.525  80.657 114.081  0.00  0.00     0.149 HD
ENDBRANCH   6  13
BRANCH   5  18
ATOM     18  N   LIG d   1      -0.419  79.417 116.136  0.00  0.00     0.381 N 
ATOM     19  H   LIG d   1      -1.397  79.342 116.332  0.00  0.00    -0.090 HD
ATOM     20  H   LIG d   1      -0.098  80.307 116.474  0.00  0.00    -0.090 HD
ATOM     21  H   LIG d   1       0.076  78.683 116.592  0.00  0.00    -0.090 HD
ENDBRANCH   5  18
BRANCH   3  22
ATOM     22  C   LIG d   1      -2.371  78.304 111.906  0.00  0.00     0.382 C 
ATOM     23  O   LIG d   1      -2.113  77.990 110.719  0.00  0.00    -0.241 OA
ATOM     24  O   LIG d   1      -3.440  77.927 112.422  0.00  0.00    -0.241 OA
ENDBRANCH   3  22
TORSDOF 7
ENDMDL
MODEL 9
REMARK VINA RESULT:      -4.1      5.609      7.320
REMARK  7 active torsions:
REMARK  status: ('A' for Active; 'I' for Inactive)
REMARK    1  A    between atoms: C_2  and  C_3 
REMARK    2  A    between atoms: C_3  and  O_6 
REMARK    3  A    between atoms: C_3  and  C_4 
REMARK    4  A    between atoms: C_7  and  O_6 
REMARK    5  A    between atoms: C_9  and  C_10 
REMARK    6  A    between atoms: N_15  and  C_14 
REMARK    7  A    between atoms: N_20  and  C_19 
REMARK       I    between atoms: C_22  and  N_20 
ROOT
ATOM      1  C   LIG d   1       0.121  78.054 116.388  0.00  0.00     0.161 C 
ATOM      2  C   LIG d   1      -0.948  78.534 115.612  0.00  0.00     0.016 C 
ATOM      3  C   LIG d   1      -1.843  77.690 114.914  0.00  0.00     0.038 C 
ATOM      4  C   LIG d   1      -1.821  76.296 115.069  0.00  0.00     0.028 C 
ATOM      5  C   LIG d   1      -0.446  75.750 115.440  0.00  0.00    -0.047 C 
ATOM      6  C   LIG d   1       0.093  76.535 116.657  0.00  0.00     0.091 C 
ENDROOT
BRANCH   1   7
ATOM      7  O   LIG d   1       0.188  78.783 117.630  0.00  0.00    -0.368 OA
BRANCH   7   8
ATOM      8  C   LIG d   1      -0.149  80.190 117.562  0.00  0.00     0.119 C 
BRANCH   8   9
ATOM      9  C   LIG d   1       1.151  80.989 117.780  0.00  0.00     0.028 C 
ATOM     10  C   LIG d   1       1.845  81.353 116.457  0.00  0.00     0.006 C 
ENDBRANCH   8   9
BRANCH   8  11
ATOM     11  C   LIG d   1      -1.073  80.597 118.714  0.00  0.00     0.028 C 
ATOM     12  C   LIG d   1      -0.814  82.030 119.207  0.00  0.00     0.006 C 
ENDBRANCH   8  11
ENDBRANCH   7   8
ENDBRANCH   1   7
BRANCH   6  13
ATOM     13  N   LIG d   1       1.470  76.121 117.034  0.00  0.00    -0.311 N 
ATOM     14  C   LIG d   1       1.807  75.727 118.261  0.00  0.00     0.210 C 
ATOM     15  C   LIG d   1       3.284  75.362 118.440  0.00  0.00     0.109 C 
ATOM     16  O   LIG d   1       1.016  75.614 119.210  0.00  0.00    -0.276 OA
ATOM     17  H   LIG d   1       2.168  76.152 116.317  0.00  0.00     0.149 HD
ENDBRANCH   6  13
BRANCH   5  18
ATOM     18  N   LIG d   1      -0.597  74.306 115.704  0.00  0.00     0.381 N 
ATOM     19  H   LIG d   1      -1.209  73.900 115.025  0.00  0.00    -0.090 HD
ATOM     20  H   LIG d   1      -1.008  74.183 116.613  0.00  0.00    -0.090 HD
ATOM     21  H   LIG d   1       0.293  73.859 115.670  0.00  0.00    -0.090 HD
ENDBRANCH   5  18
BRANCH   3  22
ATOM     22  C   LIG d   1      -2.749  78.239 114.020  0.00  0.00     0.382 C 
ATOM     23  O   LIG d   1      -2.994  79.470 114.051  0.00  0.00    -0.241 OA
ATOM     24  O   LIG d   1      -3.357  77.513 113.211  0.00  0.00    -0.241 OA
ENDBRANCH   3  22
TORSDOF 7
ENDMDL
