MODEL 1
REMARK VINA RESULT:      -5.4      0.000      0.000
REMARK  7 active torsions:
REMARK  status: ('A' for Active; 'I' for Inactive)
REMARK    1  A    between atoms: C_2  and  C_3 
REMARK    2  A    between atoms: C_3  and  O_6 
REMARK    3  A    between atoms: C_3  and  C_4 
REMARK    4  A    between atoms: C_7  and  O_6 
REMARK    5  A    between atoms: C_9  and  C_10 
REMARK    6  A    between atoms: N_15  and  C_14 
REMARK    7  A    between atoms: N_20  and  C_19 
REMARK       I    between atoms: C_22  and  N_20 
ROOT
ATOM      1  C   LIG d   1       0.923  80.980 112.437  0.00  0.00     0.161 C 
ATOM      2  C   LIG d   1       2.082  81.044 111.645  0.00  0.00     0.016 C 
ATOM      3  C   LIG d   1       2.240  80.325 110.438  0.00  0.00     0.038 C 
ATOM      4  C   LIG d   1       1.183  79.607 109.859  0.00  0.00     0.028 C 
ATOM      5  C   LIG d   1       0.163  79.105 110.876  0.00  0.00    -0.047 C 
ATOM      6  C   LIG d   1      -0.282  80.289 111.765  0.00  0.00     0.091 C 
ENDROOT
BRANCH   1   7
ATOM      7  O   LIG d   1       0.559  82.303 112.878  0.00  0.00    -0.368 OA
BRANCH   7   8
ATOM      8  C   LIG d   1       1.487  83.364 112.543  0.00  0.00     0.119 C 
BRANCH   8   9
ATOM      9  C   LIG d   1       1.652  84.247 113.795  0.00  0.00     0.028 C 
ATOM     10  C   LIG d   1       2.777  83.751 114.719  0.00  0.00     0.006 C 
ENDBRANCH   8   9
BRANCH   8  11
ATOM     11  C   LIG d   1       0.910  84.289 111.468  0.00  0.00     0.028 C 
ATOM     12  C   LIG d   1      -0.534  83.930 111.085  0.00  0.00     0.006 C 
ENDBRANCH   8  11
ENDBRANCH   7   8
ENDBRANCH   1   7
BRANCH   6  13
ATOM     13  N   LIG d   1      -1.217  79.868 112.841  0.00  0.00    -0.311 N 
ATOM     14  C   LIG d   1      -2.309  80.555 113.173  0.00  0.00     0.210 C 
ATOM     15  C   LIG d   1      -3.124  79.957 114.324  0.00  0.00     0.109 C 
ATOM     16  O   LIG d   1      -2.698  81.584 112.601  0.00  0.00    -0.276 OA
ATOM     17  H   LIG d   1      -0.994  79.027 113.336  0.00  0.00     0.149 HD
ENDBRANCH   6  13
BRANCH   5  18
ATOM     18  N   LIG d   1      -0.951  78.495 110.126  0.00  0.00     0.381 N 
ATOM     19  H   LIG d   1      -1.069  77.543 110.410  0.00  0.00    -0.090 HD
ATOM     20  H   LIG d   1      -0.728  78.507 109.146  0.00  0.00    -0.090 HD
ATOM     21  H   LIG d   1      -1.791  79.005 110.288  0.00  0.00    -0.090 HD
ENDBRANCH   5  18
BRANCH   3  22
ATOM     22  C   LIG d   1       3.479  80.289 109.817  0.00  0.00     0.382 C 
ATOM     23  O   LIG d   1       4.080  79.197 109.681  0.00  0.00    -0.241 OA
ATOM     24  O   LIG d   1       4.023  81.341 109.430  0.00  0.00    -0.241 OA
ENDBRANCH   3  22
TORSDOF 7
ENDMDL
MODEL 2
REMARK VINA RESULT:      -5.1      2.230      4.180
REMARK  7 active torsions:
REMARK  status: ('A' for Active; 'I' for Inactive)
REMARK    1  A    between atoms: C_2  and  C_3 
REMARK    2  A    between atoms: C_3  and  O_6 
REMARK    3  A    between atoms: C_3  and  C_4 
REMARK    4  A    between atoms: C_7  and  O_6 
REMARK    5  A    between atoms: C_9  and  C_10 
REMARK    6  A    between atoms: N_15  and  C_14 
REMARK    7  A    between atoms: N_20  and  C_19 
REMARK       I    between atoms: C_22  and  N_20 
ROOT
ATOM      1  C   LIG d   1       0.501  80.877 112.180  0.00  0.00     0.161 C 
ATOM      2  C   LIG d   1       1.073  82.142 112.392  0.00  0.00     0.016 C 
ATOM      3  C   LIG d   1       2.202  82.615 111.684  0.00  0.00     0.038 C 
ATOM      4  C   LIG d   1       2.748  81.908 110.602  0.00  0.00     0.028 C 
ATOM      5  C   LIG d   1       2.518  80.403 110.684  0.00  0.00    -0.047 C 
ATOM      6  C   LIG d   1       1.015  80.137 110.927  0.00  0.00     0.091 C 
ENDROOT
BRANCH   1   7
ATOM      7  O   LIG d   1      -0.935  80.990 112.141  0.00  0.00    -0.368 OA
BRANCH   7   8
ATOM      8  C   LIG d   1      -1.631  80.694 113.377  0.00  0.00     0.119 C 
BRANCH   8   9
ATOM      9  C   LIG d   1      -0.940  79.474 114.017  0.00  0.00     0.028 C 
ATOM     10  C   LIG d   1      -1.155  79.408 115.538  0.00  0.00     0.006 C 
ENDBRANCH   8   9
BRANCH   8  11
ATOM     11  C   LIG d   1      -3.073  80.251 113.113  0.00  0.00     0.028 C 
ATOM     12  C   LIG d   1      -3.169  78.797 112.625  0.00  0.00     0.006 C 
ENDBRANCH   8  11
ENDBRANCH   7   8
ENDBRANCH   1   7
BRANCH   6  13
ATOM     13  N   LIG d   1       0.716  78.692 111.104  0.00  0.00    -0.311 N 
ATOM     14  C   LIG d   1      -0.348  78.093 110.572  0.00  0.00     0.210 C 
ATOM     15  C   LIG d   1      -0.478  76.601 110.894  0.00  0.00     0.109 C 
ATOM     16  O   LIG d   1      -1.179  78.648 109.838  0.00  0.00    -0.276 OA
ATOM     17  H   LIG d   1       1.356  78.158 111.660  0.00  0.00     0.149 HD
ENDBRANCH   6  13
BRANCH   5  18
ATOM     18  N   LIG d   1       3.016  79.807 109.430  0.00  0.00     0.381 N 
ATOM     19  H   LIG d   1       2.482  78.990 109.208  0.00  0.00    -0.090 HD
ATOM     20  H   LIG d   1       3.974  79.533 109.558  0.00  0.00    -0.090 HD
ATOM     21  H   LIG d   1       2.948  80.468 108.688  0.00  0.00    -0.090 HD
ENDBRANCH   5  18
BRANCH   3  22
ATOM     22  C   LIG d   1       2.822  83.789 112.083  0.00  0.00     0.382 C 
ATOM     23  O   LIG d   1       3.284  84.577 111.224  0.00  0.00    -0.241 OA
ATOM     24  O   LIG d   1       2.963  84.049 113.293  0.00  0.00    -0.241 OA
ENDBRANCH   3  22
TORSDOF 7
ENDMDL
MODEL 3
REMARK VINA RESULT:      -5.0      2.659      5.176
REMARK  7 active torsions:
REMARK  status: ('A' for Active; 'I' for Inactive)
REMARK    1  A    between atoms: C_2  and  C_3 
REMARK    2  A    between atoms: C_3  and  O_6 
REMARK    3  A    between atoms: C_3  and  C_4 
REMARK    4  A    between atoms: C_7  and  O_6 
REMARK    5  A    between atoms: C_9  and  C_10 
REMARK    6  A    between atoms: N_15  and  C_14 
REMARK    7  A    between atoms: N_20  and  C_19 
REMARK       I    between atoms: C_22  and  N_20 
ROOT
ATOM      1  C   LIG d   1      -0.648  80.522 112.291  0.00  0.00     0.161 C 
ATOM      2  C   LIG d   1      -1.609  79.508 112.439  0.00  0.00     0.016 C 
ATOM      3  C   LIG d   1      -1.621  78.329 111.659  0.00  0.00     0.038 C 
ATOM      4  C   LIG d   1      -0.579  78.012 110.776  0.00  0.00     0.028 C 
ATOM      5  C   LIG d   1       0.144  79.238 110.228  0.00  0.00    -0.047 C 
ATOM      6  C   LIG d   1       0.561  80.144 111.410  0.00  0.00     0.091 C 
ENDROOT
BRANCH   1   7
ATOM      7  O   LIG d   1      -0.203  80.967 113.588  0.00  0.00    -0.368 OA
BRANCH   7   8
ATOM      8  C   LIG d   1       0.697  80.077 114.293  0.00  0.00     0.119 C 
BRANCH   8   9
ATOM      9  C   LIG d   1       0.051  79.747 115.652  0.00  0.00     0.028 C 
ATOM     10  C   LIG d   1      -0.534  78.326 115.695  0.00  0.00     0.006 C 
ENDBRANCH   8   9
BRANCH   8  11
ATOM     11  C   LIG d   1       2.019  80.773 114.629  0.00  0.00     0.028 C 
ATOM     12  C   LIG d   1       2.248  80.917 116.142  0.00  0.00     0.006 C 
ENDBRANCH   8  11
ENDBRANCH   7   8
ENDBRANCH   1   7
BRANCH   6  13
ATOM     13  N   LIG d   1       1.200  81.407 110.957  0.00  0.00    -0.311 N 
ATOM     14  C   LIG d   1       2.515  81.548 110.800  0.00  0.00     0.210 C 
ATOM     15  C   LIG d   1       2.967  82.939 110.345  0.00  0.00     0.109 C 
ATOM     16  O   LIG d   1       3.348  80.644 110.963  0.00  0.00    -0.276 OA
ATOM     17  H   LIG d   1       0.596  82.184 110.772  0.00  0.00     0.149 HD
ENDBRANCH   6  13
BRANCH   5  18
ATOM     18  N   LIG d   1       1.291  78.761 109.433  0.00  0.00     0.381 N 
ATOM     19  H   LIG d   1       1.334  77.762 109.466  0.00  0.00    -0.090 HD
ATOM     20  H   LIG d   1       2.138  79.127 109.832  0.00  0.00    -0.090 HD
ATOM     21  H   LIG d   1       1.202  79.067 108.489  0.00  0.00    -0.090 HD
ENDBRANCH   5  18
BRANCH   3  22
ATOM     22  C   LIG d   1      -2.707  77.469 111.731  0.00  0.00     0.382 C 
ATOM     23  O   LIG d   1      -2.954  76.858 112.798  0.00  0.00    -0.241 OA
ATOM     24  O   LIG d   1      -3.418  77.264 110.728  0.00  0.00    -0.241 OA
ENDBRANCH   3  22
TORSDOF 7
ENDMDL
MODEL 4
REMARK VINA RESULT:      -4.8      2.727      5.334
REMARK  7 active torsions:
REMARK  status: ('A' for Active; 'I' for Inactive)
REMARK    1  A    between atoms: C_2  and  C_3 
REMARK    2  A    between atoms: C_3  and  O_6 
REMARK    3  A    between atoms: C_3  and  C_4 
REMARK    4  A    between atoms: C_7  and  O_6 
REMARK    5  A    between atoms: C_9  and  C_10 
REMARK    6  A    between atoms: N_15  and  C_14 
REMARK    7  A    between atoms: N_20  and  C_19 
REMARK       I    between atoms: C_22  and  N_20 
ROOT
ATOM      1  C   LIG d   1      -1.406  80.378 112.912  0.00  0.00     0.161 C 
ATOM      2  C   LIG d   1      -1.874  79.114 112.516  0.00  0.00     0.016 C 
ATOM      3  C   LIG d   1      -1.279  78.352 111.484  0.00  0.00     0.038 C 
ATOM      4  C   LIG d   1      -0.076  78.739 110.876  0.00  0.00     0.028 C 
ATOM      5  C   LIG d   1       0.153  80.247 110.892  0.00  0.00    -0.047 C 
ATOM      6  C   LIG d   1      -0.028  80.767 112.336  0.00  0.00     0.091 C 
ENDROOT
BRANCH   1   7
ATOM      7  O   LIG d   1      -1.391  80.464 114.350  0.00  0.00    -0.368 OA
BRANCH   7   8
ATOM      8  C   LIG d   1      -1.187  79.219 115.062  0.00  0.00     0.119 C 
BRANCH   8   9
ATOM      9  C   LIG d   1      -2.368  79.044 116.036  0.00  0.00     0.028 C 
ATOM     10  C   LIG d   1      -3.154  77.747 115.778  0.00  0.00     0.006 C 
ENDBRANCH   8   9
BRANCH   8  11
ATOM     11  C   LIG d   1       0.062  79.279 115.946  0.00  0.00     0.028 C 
ATOM     12  C   LIG d   1      -0.238  79.778 117.368  0.00  0.00     0.006 C 
ENDBRANCH   8  11
ENDBRANCH   7   8
ENDBRANCH   1   7
BRANCH   6  13
ATOM     13  N   LIG d   1       0.096  82.245 112.426  0.00  0.00    -0.311 N 
ATOM     14  C   LIG d   1       1.248  82.871 112.661  0.00  0.00     0.210 C 
ATOM     15  C   LIG d   1       1.151  84.398 112.735  0.00  0.00     0.109 C 
ATOM     16  O   LIG d   1       2.346  82.308 112.784  0.00  0.00    -0.276 OA
ATOM     17  H   LIG d   1      -0.741  82.781 112.308  0.00  0.00     0.149 HD
ENDBRANCH   6  13
BRANCH   5  18
ATOM     18  N   LIG d   1       1.503  80.498 110.352  0.00  0.00     0.381 N 
ATOM     19  H   LIG d   1       2.171  79.928 110.832  0.00  0.00    -0.090 HD
ATOM     20  H   LIG d   1       1.741  81.462 110.508  0.00  0.00    -0.090 HD
ATOM     21  H   LIG d   1       1.523  80.297 109.377  0.00  0.00    -0.090 HD
ENDBRANCH   5  18
BRANCH   3  22
ATOM     22  C   LIG d   1      -1.912  77.208 111.022  0.00  0.00     0.382 C 
ATOM     23  O   LIG d   1      -3.134  77.238 110.739  0.00  0.00    -0.241 OA
ATOM     24  O   LIG d   1      -1.287  76.135 110.928  0.00  0.00    -0.241 OA
ENDBRANCH   3  22
TORSDOF 7
ENDMDL
MODEL 5
REMARK VINA RESULT:      -4.6      2.457      4.402
REMARK  7 active torsions:
REMARK  status: ('A' for Active; 'I' for Inactive)
REMARK    1  A    between atoms: C_2  and  C_3 
REMARK    2  A    between atoms: C_3  and  O_6 
REMARK    3  A    between atoms: C_3  and  C_4 
REMARK    4  A    between atoms: C_7  and  O_6 
REMARK    5  A    between atoms: C_9  and  C_10 
REMARK    6  A    between atoms: N_15  and  C_14 
REMARK    7  A    between atoms: N_20  and  C_19 
REMARK       I    between atoms: C_22  and  N_20 
ROOT
ATOM      1  C   LIG d   1       0.688  80.509 113.265  0.00  0.00     0.161 C 
ATOM      2  C   LIG d   1       1.349  81.732 113.463  0.00  0.00     0.016 C 
ATOM      3  C   LIG d   1       1.648  82.633 112.415  0.00  0.00     0.038 C 
ATOM      4  C   LIG d   1       1.169  82.439 111.111  0.00  0.00     0.028 C 
ATOM      5  C   LIG d   1       0.931  80.973 110.764  0.00  0.00    -0.047 C 
ATOM      6  C   LIG d   1       0.059  80.332 111.867  0.00  0.00     0.091 C 
ENDROOT
BRANCH   1   7
ATOM      7  O   LIG d   1      -0.308  80.321 114.290  0.00  0.00    -0.368 OA
BRANCH   7   8
ATOM      8  C   LIG d   1      -0.044  79.269 115.251  0.00  0.00     0.119 C 
BRANCH   8   9
ATOM      9  C   LIG d   1      -1.320  78.413 115.363  0.00  0.00     0.028 C 
ATOM     10  C   LIG d   1      -2.598  79.226 115.092  0.00  0.00     0.006 C 
ENDBRANCH   8   9
BRANCH   8  11
ATOM     11  C   LIG d   1       0.187  79.840 116.653  0.00  0.00     0.028 C 
ATOM     12  C   LIG d   1       1.650  80.239 116.900  0.00  0.00     0.006 C 
ENDBRANCH   8  11
ENDBRANCH   7   8
ENDBRANCH   1   7
BRANCH   6  13
ATOM     13  N   LIG d   1      -0.151  78.877 111.649  0.00  0.00    -0.311 N 
ATOM     14  C   LIG d   1      -1.354  78.307 111.615  0.00  0.00     0.210 C 
ATOM     15  C   LIG d   1      -1.345  76.790 111.398  0.00  0.00     0.109 C 
ATOM     16  O   LIG d   1      -2.429  78.917 111.711  0.00  0.00    -0.276 OA
ATOM     17  H   LIG d   1       0.666  78.311 111.531  0.00  0.00     0.149 HD
ENDBRANCH   6  13
BRANCH   5  18
ATOM     18  N   LIG d   1       0.304  80.926 109.430  0.00  0.00     0.381 N 
ATOM     19  H   LIG d   1       0.114  81.856 109.112  0.00  0.00    -0.090 HD
ATOM     20  H   LIG d   1      -0.568  80.432 109.498  0.00  0.00    -0.090 HD
ATOM     21  H   LIG d   1       0.907  80.464 108.786  0.00  0.00    -0.090 HD
ENDBRANCH   5  18
BRANCH   3  22
ATOM     22  C   LIG d   1       2.469  83.723 112.659  0.00  0.00     0.382 C 
ATOM     23  O   LIG d   1       2.701  84.551 111.745  0.00  0.00    -0.241 OA
ATOM     24  O   LIG d   1       3.017  83.865 113.769  0.00  0.00    -0.241 OA
ENDBRANCH   3  22
TORSDOF 7
ENDMDL
MODEL 6
REMARK VINA RESULT:      -4.4      1.245      2.032
REMARK  7 active torsions:
REMARK  status: ('A' for Active; 'I' for Inactive)
REMARK    1  A    between atoms: C_2  and  C_3 
REMARK    2  A    between atoms: C_3  and  O_6 
REMARK    3  A    between atoms: C_3  and  C_4 
REMARK    4  A    between atoms: C_7  and  O_6 
REMARK    5  A    between atoms: C_9  and  C_10 
REMARK    6  A    between atoms: N_15  and  C_14 
REMARK    7  A    between atoms: N_20  and  C_19 
REMARK       I    between atoms: C_22  and  N_20 
ROOT
ATOM      1  C   LIG d   1       0.215  81.112 111.322  0.00  0.00     0.161 C 
ATOM      2  C   LIG d   1       1.492  81.169 110.741  0.00  0.00     0.016 C 
ATOM      3  C   LIG d   1       2.134  80.052 110.159  0.00  0.00     0.038 C 
ATOM      4  C   LIG d   1       1.473  78.827 109.983  0.00  0.00     0.028 C 
ATOM      5  C   LIG d   1       0.370  78.581 111.006  0.00  0.00    -0.047 C 
ATOM      6  C   LIG d   1      -0.566  79.811 111.040  0.00  0.00     0.091 C 
ENDROOT
BRANCH   1   7
ATOM      7  O   LIG d   1      -0.559  82.258 110.917  0.00  0.00    -0.368 OA
BRANCH   7   8
ATOM      8  C   LIG d   1      -0.395  83.454 111.719  0.00  0.00     0.119 C 
BRANCH   8   9
ATOM      9  C   LIG d   1      -0.442  84.662 110.764  0.00  0.00     0.028 C 
ATOM     10  C   LIG d   1       0.669  84.613 109.701  0.00  0.00     0.006 C 
ENDBRANCH   8   9
BRANCH   8  11
ATOM     11  C   LIG d   1       0.991  83.503 112.369  0.00  0.00     0.028 C 
ATOM     12  C   LIG d   1       1.150  84.680 113.345  0.00  0.00     0.006 C 
ENDBRANCH   8  11
ENDBRANCH   7   8
ENDBRANCH   1   7
BRANCH   6  13
ATOM     13  N   LIG d   1      -1.625  79.689 112.076  0.00  0.00    -0.311 N 
ATOM     14  C   LIG d   1      -1.394  79.824 113.381  0.00  0.00     0.210 C 
ATOM     15  C   LIG d   1      -2.622  79.640 114.277  0.00  0.00     0.109 C 
ATOM     16  O   LIG d   1      -0.295  80.111 113.878  0.00  0.00    -0.276 OA
ATOM     17  H   LIG d   1      -2.553  79.488 111.758  0.00  0.00     0.149 HD
ENDBRANCH   6  13
BRANCH   5  18
ATOM     18  N   LIG d   1      -0.325  77.337 110.623  0.00  0.00     0.381 N 
ATOM     19  H   LIG d   1       0.215  76.546 110.910  0.00  0.00    -0.090 HD
ATOM     20  H   LIG d   1      -0.415  77.310 109.622  0.00  0.00    -0.090 HD
ATOM     21  H   LIG d   1      -1.226  77.305 111.046  0.00  0.00    -0.090 HD
ENDBRANCH   5  18
BRANCH   3  22
ATOM     22  C   LIG d   1       3.465  80.143 109.781  0.00  0.00     0.382 C 
ATOM     23  O   LIG d   1       4.202  79.129 109.834  0.00  0.00    -0.241 OA
ATOM     24  O   LIG d   1       3.949  81.235 109.431  0.00  0.00    -0.241 OA
ENDBRANCH   3  22
TORSDOF 7
ENDMDL
MODEL 7
REMARK VINA RESULT:      -4.4      2.323      3.857
REMARK  7 active torsions:
REMARK  status: ('A' for Active; 'I' for Inactive)
REMARK    1  A    between atoms: C_2  and  C_3 
REMARK    2  A    between atoms: C_3  and  O_6 
REMARK    3  A    between atoms: C_3  and  C_4 
REMARK    4  A    between atoms: C_7  and  O_6 
REMARK    5  A    between atoms: C_9  and  C_10 
REMARK    6  A    between atoms: N_15  and  C_14 
REMARK    7  A    between atoms: N_20  and  C_19 
REMARK       I    between atoms: C_22  and  N_20 
ROOT
ATOM      1  C   LIG d   1       2.251  81.548 112.043  0.00  0.00     0.161 C 
ATOM      2  C   LIG d   1       1.783  80.776 110.967  0.00  0.00     0.016 C 
ATOM      3  C   LIG d   1       0.680  79.897 111.061  0.00  0.00     0.038 C 
ATOM      4  C   LIG d   1      -0.130  79.843 112.205  0.00  0.00     0.028 C 
ATOM      5  C   LIG d   1       0.604  80.229 113.485  0.00  0.00    -0.047 C 
ATOM      6  C   LIG d   1       1.312  81.586 113.267  0.00  0.00     0.091 C 
ENDROOT
BRANCH   1   7
ATOM      7  O   LIG d   1       2.543  82.886 111.594  0.00  0.00    -0.368 OA
BRANCH   7   8
ATOM      8  C   LIG d   1       1.940  83.283 110.338  0.00  0.00     0.119 C 
BRANCH   8   9
ATOM      9  C   LIG d   1       3.059  83.858 109.448  0.00  0.00     0.028 C 
ATOM     10  C   LIG d   1       4.398  83.127 109.644  0.00  0.00     0.006 C 
ENDBRANCH   8   9
BRANCH   8  11
ATOM     11  C   LIG d   1       0.948  84.432 110.535  0.00  0.00     0.028 C 
ATOM     12  C   LIG d   1      -0.406  83.962 111.091  0.00  0.00     0.006 C 
ENDBRANCH   8  11
ENDBRANCH   7   8
ENDBRANCH   1   7
BRANCH   6  13
ATOM     13  N   LIG d   1       2.123  81.997 114.443  0.00  0.00    -0.311 N 
ATOM     14  C   LIG d   1       2.239  83.260 114.849  0.00  0.00     0.210 C 
ATOM     15  C   LIG d   1       3.139  83.468 116.070  0.00  0.00     0.109 C 
ATOM     16  O   LIG d   1       1.655  84.225 114.332  0.00  0.00    -0.276 OA
ATOM     17  H   LIG d   1       2.606  81.274 114.940  0.00  0.00     0.149 HD
ENDBRANCH   6  13
BRANCH   5  18
ATOM     18  N   LIG d   1      -0.389  80.264 114.575  0.00  0.00     0.381 N 
ATOM     19  H   LIG d   1      -0.302  81.120 115.085  0.00  0.00    -0.090 HD
ATOM     20  H   LIG d   1      -0.208  79.502 115.205  0.00  0.00    -0.090 HD
ATOM     21  H   LIG d   1      -1.309  80.183 114.201  0.00  0.00    -0.090 HD
ENDBRANCH   5  18
BRANCH   3  22
ATOM     22  C   LIG d   1       0.401  79.029 110.016  0.00  0.00     0.382 C 
ATOM     23  O   LIG d   1      -0.708  79.088 109.431  0.00  0.00    -0.241 OA
ATOM     24  O   LIG d   1       1.226  78.160 109.679  0.00  0.00    -0.241 OA
ENDBRANCH   3  22
TORSDOF 7
ENDMDL
MODEL 8
REMARK VINA RESULT:      -4.3      3.035      5.394
REMARK  7 active torsions:
REMARK  status: ('A' for Active; 'I' for Inactive)
REMARK    1  A    between atoms: C_2  and  C_3 
REMARK    2  A    between atoms: C_3  and  O_6 
REMARK    3  A    between atoms: C_3  and  C_4 
REMARK    4  A    between atoms: C_7  and  O_6 
REMARK    5  A    between atoms: C_9  and  C_10 
REMARK    6  A    between atoms: N_15  and  C_14 
REMARK    7  A    between atoms: N_20  and  C_19 
REMARK       I    between atoms: C_22  and  N_20 
ROOT
ATOM      1  C   LIG d   1      -0.335  79.795 113.614  0.00  0.00     0.161 C 
ATOM      2  C   LIG d   1      -1.410  79.049 113.103  0.00  0.00     0.016 C 
ATOM      3  C   LIG d   1      -2.123  78.092 113.861  0.00  0.00     0.038 C 
ATOM      4  C   LIG d   1      -1.906  77.925 115.237  0.00  0.00     0.028 C 
ATOM      5  C   LIG d   1      -0.494  78.295 115.677  0.00  0.00    -0.047 C 
ATOM      6  C   LIG d   1      -0.156  79.706 115.144  0.00  0.00     0.091 C 
ENDROOT
BRANCH   1   7
ATOM      7  O   LIG d   1      -0.456  81.171 113.203  0.00  0.00    -0.368 OA
BRANCH   7   8
ATOM      8  C   LIG d   1       0.014  81.481 111.868  0.00  0.00     0.119 C 
BRANCH   8   9
ATOM      9  C   LIG d   1       1.553  81.405 111.891  0.00  0.00     0.028 C 
ATOM     10  C   LIG d   1       2.100  80.294 110.979  0.00  0.00     0.006 C 
ENDBRANCH   8   9
BRANCH   8  11
ATOM     11  C   LIG d   1      -0.314  82.927 111.483  0.00  0.00     0.028 C 
ATOM     12  C   LIG d   1       0.886  83.669 110.873  0.00  0.00     0.006 C 
ENDBRANCH   8  11
ENDBRANCH   7   8
ENDBRANCH   1   7
BRANCH   6  13
ATOM     13  N   LIG d   1       1.239  80.112 115.458  0.00  0.00    -0.311 N 
ATOM     14  C   LIG d   1       1.582  80.759 116.570  0.00  0.00     0.210 C 
ATOM     15  C   LIG d   1       3.071  81.100 116.687  0.00  0.00     0.109 C 
ATOM     16  O   LIG d   1       0.800  81.055 117.485  0.00  0.00    -0.276 OA
ATOM     17  H   LIG d   1       1.943  79.883 114.783  0.00  0.00     0.149 HD
ENDBRANCH   6  13
BRANCH   5  18
ATOM     18  N   LIG d   1      -0.447  78.206 117.148  0.00  0.00     0.381 N 
ATOM     19  H   LIG d   1      -1.282  78.596 117.538  0.00  0.00    -0.090 HD
ATOM     20  H   LIG d   1       0.336  78.740 117.482  0.00  0.00    -0.090 HD
ATOM     21  H   LIG d   1      -0.353  77.255 117.429  0.00  0.00    -0.090 HD
ENDBRANCH   5  18
BRANCH   3  22
ATOM     22  C   LIG d   1      -3.040  77.262 113.233  0.00  0.00     0.382 C 
ATOM     23  O   LIG d   1      -3.439  76.221 113.808  0.00  0.00    -0.241 OA
ATOM     24  O   LIG d   1      -3.439  77.519 112.082  0.00  0.00    -0.241 OA
ENDBRANCH   3  22
TORSDOF 7
ENDMDL
MODEL 9
REMARK VINA RESULT:      -4.3      2.446      4.599
REMARK  7 active torsions:
REMARK  status: ('A' for Active; 'I' for Inactive)
REMARK    1  A    between atoms: C_2  and  C_3 
REMARK    2  A    between atoms: C_3  and  O_6 
REMARK    3  A    between atoms: C_3  and  C_4 
REMARK    4  A    between atoms: C_7  and  O_6 
REMARK    5  A    between atoms: C_9  and  C_10 
REMARK    6  A    between atoms: N_15  and  C_14 
REMARK    7  A    between atoms: N_20  and  C_19 
REMARK       I    between atoms: C_22  and  N_20 
ROOT
ATOM      1  C   LIG d   1      -0.951  80.753 112.661  0.00  0.00     0.161 C 
ATOM      2  C   LIG d   1      -0.005  81.450 111.892  0.00  0.00     0.016 C 
ATOM      3  C   LIG d   1       1.325  81.680 112.315  0.00  0.00     0.038 C 
ATOM      4  C   LIG d   1       1.844  81.094 113.478  0.00  0.00     0.028 C 
ATOM      5  C   LIG d   1       0.784  80.803 114.536  0.00  0.00    -0.047 C 
ATOM      6  C   LIG d   1      -0.372  80.011 113.883  0.00  0.00     0.091 C 
ENDROOT
BRANCH   1   7
ATOM      7  O   LIG d   1      -1.686  79.840 111.822  0.00  0.00    -0.368 OA
BRANCH   7   8
ATOM      8  C   LIG d   1      -1.074  78.545 111.601  0.00  0.00     0.119 C 
BRANCH   8   9
ATOM      9  C   LIG d   1      -0.496  78.544 110.172  0.00  0.00     0.028 C 
ATOM     10  C   LIG d   1       1.042  78.527 110.161  0.00  0.00     0.006 C 
ENDBRANCH   8   9
BRANCH   8  11
ATOM     11  C   LIG d   1      -2.118  77.425 111.616  0.00  0.00     0.028 C 
ATOM     12  C   LIG d   1      -3.406  77.822 112.355  0.00  0.00     0.006 C 
ENDBRANCH   8  11
ENDBRANCH   7   8
ENDBRANCH   1   7
BRANCH   6  13
ATOM     13  N   LIG d   1      -1.490  79.758 114.828  0.00  0.00    -0.311 N 
ATOM     14  C   LIG d   1      -1.615  78.635 115.533  0.00  0.00     0.210 C 
ATOM     15  C   LIG d   1      -2.853  78.571 116.434  0.00  0.00     0.109 C 
ATOM     16  O   LIG d   1      -0.801  77.700 115.523  0.00  0.00    -0.276 OA
ATOM     17  H   LIG d   1      -2.180  80.478 114.921  0.00  0.00     0.149 HD
ENDBRANCH   6  13
BRANCH   5  18
ATOM     18  N   LIG d   1       1.440  80.070 115.635  0.00  0.00     0.381 N 
ATOM     19  H   LIG d   1       1.154  80.451 116.514  0.00  0.00    -0.090 HD
ATOM     20  H   LIG d   1       2.435  80.181 115.551  0.00  0.00    -0.090 HD
ATOM     21  H   LIG d   1       1.201  79.104 115.590  0.00  0.00    -0.090 HD
ENDBRANCH   5  18
BRANCH   3  22
ATOM     22  C   LIG d   1       2.138  82.538 111.590  0.00  0.00     0.382 C 
ATOM     23  O   LIG d   1       2.116  82.512 110.336  0.00  0.00    -0.241 OA
ATOM     24  O   LIG d   1       2.925  83.306 112.174  0.00  0.00    -0.241 OA
ENDBRANCH   3  22
TORSDOF 7
ENDMDL
