MODEL 1
REMARK VINA RESULT:      -5.4      0.000      0.000
REMARK  7 active torsions:
REMARK  status: ('A' for Active; 'I' for Inactive)
REMARK    1  A    between atoms: C_2  and  C_3 
REMARK    2  A    between atoms: C_3  and  O_6 
REMARK    3  A    between atoms: C_3  and  C_4 
REMARK    4  A    between atoms: C_7  and  O_6 
REMARK    5  A    between atoms: C_9  and  C_10 
REMARK    6  A    between atoms: N_15  and  C_14 
REMARK    7  A    between atoms: N_20  and  C_19 
REMARK       I    between atoms: C_22  and  N_20 
ROOT
ATOM      1  C   LIG d   1       0.771  82.897 112.015  0.00  0.00     0.161 C 
ATOM      2  C   LIG d   1      -0.456  82.535 112.594  0.00  0.00     0.016 C 
ATOM      3  C   LIG d   1      -1.031  81.250 112.460  0.00  0.00     0.038 C 
ATOM      4  C   LIG d   1      -0.340  80.187 111.859  0.00  0.00     0.028 C 
ATOM      5  C   LIG d   1       0.681  80.639 110.821  0.00  0.00    -0.047 C 
ATOM      6  C   LIG d   1       1.592  81.719 111.449  0.00  0.00     0.091 C 
ENDROOT
BRANCH   1   7
ATOM      7  O   LIG d   1       1.558  83.646 112.962  0.00  0.00    -0.368 OA
BRANCH   7   8
ATOM      8  C   LIG d   1       2.226  82.872 113.989  0.00  0.00     0.119 C 
BRANCH   8   9
ATOM      9  C   LIG d   1       1.616  83.277 115.345  0.00  0.00     0.028 C 
ATOM     10  C   LIG d   1       0.980  84.677 115.308  0.00  0.00     0.006 C 
ENDBRANCH   8   9
BRANCH   8  11
ATOM     11  C   LIG d   1       3.709  83.238 114.086  0.00  0.00     0.028 C 
ATOM     12  C   LIG d   1       4.083  84.446 113.212  0.00  0.00     0.006 C 
ENDBRANCH   8  11
ENDBRANCH   7   8
ENDBRANCH   1   7
BRANCH   6  13
ATOM     13  N   LIG d   1       2.566  82.276 110.475  0.00  0.00    -0.311 N 
ATOM     14  C   LIG d   1       3.873  82.022 110.518  0.00  0.00     0.210 C 
ATOM     15  C   LIG d   1       4.702  82.713 109.431  0.00  0.00     0.109 C 
ATOM     16  O   LIG d   1       4.420  81.265 111.334  0.00  0.00    -0.276 OA
ATOM     17  H   LIG d   1       2.204  82.876 109.760  0.00  0.00     0.149 HD
ENDBRANCH   6  13
BRANCH   5  18
ATOM     18  N   LIG d   1       1.423  79.445 110.375  0.00  0.00     0.381 N 
ATOM     19  H   LIG d   1       0.781  78.709 110.159  0.00  0.00    -0.090 HD
ATOM     20  H   LIG d   1       2.018  79.134 111.123  0.00  0.00    -0.090 HD
ATOM     21  H   LIG d   1       1.972  79.663 109.573  0.00  0.00    -0.090 HD
ENDBRANCH   5  18
BRANCH   3  22
ATOM     22  C   LIG d   1      -2.329  81.029 112.896  0.00  0.00     0.382 C 
ATOM     23  O   LIG d   1      -3.059  82.000 113.207  0.00  0.00    -0.241 OA
ATOM     24  O   LIG d   1      -2.763  79.869 113.024  0.00  0.00    -0.241 OA
ENDBRANCH   3  22
TORSDOF 7
ENDMDL
MODEL 2
REMARK VINA RESULT:      -5.1      2.071      4.101
REMARK  7 active torsions:
REMARK  status: ('A' for Active; 'I' for Inactive)
REMARK    1  A    between atoms: C_2  and  C_3 
REMARK    2  A    between atoms: C_3  and  O_6 
REMARK    3  A    between atoms: C_3  and  C_4 
REMARK    4  A    between atoms: C_7  and  O_6 
REMARK    5  A    between atoms: C_9  and  C_10 
REMARK    6  A    between atoms: N_15  and  C_14 
REMARK    7  A    between atoms: N_20  and  C_19 
REMARK       I    between atoms: C_22  and  N_20 
ROOT
ATOM      1  C   LIG d   1       1.728  81.612 112.702  0.00  0.00     0.161 C 
ATOM      2  C   LIG d   1       0.495  81.035 112.357  0.00  0.00     0.016 C 
ATOM      3  C   LIG d   1      -0.753  81.603 112.699  0.00  0.00     0.038 C 
ATOM      4  C   LIG d   1      -0.854  82.875 113.282  0.00  0.00     0.028 C 
ATOM      5  C   LIG d   1       0.371  83.264 114.102  0.00  0.00    -0.047 C 
ATOM      6  C   LIG d   1       1.638  83.055 113.241  0.00  0.00     0.091 C 
ENDROOT
BRANCH   1   7
ATOM      7  O   LIG d   1       2.628  81.553 111.577  0.00  0.00    -0.368 OA
BRANCH   7   8
ATOM      8  C   LIG d   1       2.009  81.530 110.267  0.00  0.00     0.119 C 
BRANCH   8   9
ATOM      9  C   LIG d   1       2.737  80.460 109.430  0.00  0.00     0.028 C 
ATOM     10  C   LIG d   1       4.262  80.501 109.623  0.00  0.00     0.006 C 
ENDBRANCH   8   9
BRANCH   8  11
ATOM     11  C   LIG d   1       2.234  82.849 109.522  0.00  0.00     0.028 C 
ATOM     12  C   LIG d   1       1.067  83.835 109.691  0.00  0.00     0.006 C 
ENDBRANCH   8  11
ENDBRANCH   7   8
ENDBRANCH   1   7
BRANCH   6  13
ATOM     13  N   LIG d   1       2.888  83.333 113.995  0.00  0.00    -0.311 N 
ATOM     14  C   LIG d   1       3.881  84.083 113.519  0.00  0.00     0.210 C 
ATOM     15  C   LIG d   1       5.088  84.225 114.452  0.00  0.00     0.109 C 
ATOM     16  O   LIG d   1       3.862  84.670 112.427  0.00  0.00    -0.276 OA
ATOM     17  H   LIG d   1       2.974  82.921 114.904  0.00  0.00     0.149 HD
ENDBRANCH   6  13
BRANCH   5  18
ATOM     18  N   LIG d   1       0.191  84.662 114.536  0.00  0.00     0.381 N 
ATOM     19  H   LIG d   1       1.062  85.151 114.475  0.00  0.00    -0.090 HD
ATOM     20  H   LIG d   1      -0.107  84.669 115.496  0.00  0.00    -0.090 HD
ATOM     21  H   LIG d   1      -0.491  85.111 113.966  0.00  0.00    -0.090 HD
ENDBRANCH   5  18
BRANCH   3  22
ATOM     22  C   LIG d   1      -1.918  80.879 112.493  0.00  0.00     0.382 C 
ATOM     23  O   LIG d   1      -1.854  79.680 112.128  0.00  0.00    -0.241 OA
ATOM     24  O   LIG d   1      -3.031  81.422 112.624  0.00  0.00    -0.241 OA
ENDBRANCH   3  22
TORSDOF 7
ENDMDL
MODEL 3
REMARK VINA RESULT:      -4.7      2.322      4.311
REMARK  7 active torsions:
REMARK  status: ('A' for Active; 'I' for Inactive)
REMARK    1  A    between atoms: C_2  and  C_3 
REMARK    2  A    between atoms: C_3  and  O_6 
REMARK    3  A    between atoms: C_3  and  C_4 
REMARK    4  A    between atoms: C_7  and  O_6 
REMARK    5  A    between atoms: C_9  and  C_10 
REMARK    6  A    between atoms: N_15  and  C_14 
REMARK    7  A    between atoms: N_20  and  C_19 
REMARK       I    between atoms: C_22  and  N_20 
ROOT
ATOM      1  C   LIG d   1       1.339  80.816 110.737  0.00  0.00     0.161 C 
ATOM      2  C   LIG d   1       0.717  79.634 110.303  0.00  0.00     0.016 C 
ATOM      3  C   LIG d   1      -0.457  79.111 110.893  0.00  0.00     0.038 C 
ATOM      4  C   LIG d   1      -1.177  79.819 111.866  0.00  0.00     0.028 C 
ATOM      5  C   LIG d   1      -0.312  80.771 112.686  0.00  0.00    -0.047 C 
ATOM      6  C   LIG d   1       0.507  81.661 111.723  0.00  0.00     0.091 C 
ENDROOT
BRANCH   1   7
ATOM      7  O   LIG d   1       1.726  81.611 109.598  0.00  0.00    -0.368 OA
BRANCH   7   8
ATOM      8  C   LIG d   1       3.147  81.835 109.430  0.00  0.00     0.119 C 
BRANCH   8   9
ATOM      9  C   LIG d   1       3.883  80.867 110.376  0.00  0.00     0.028 C 
ATOM     10  C   LIG d   1       4.719  79.824 109.614  0.00  0.00     0.006 C 
ENDBRANCH   8   9
BRANCH   8  11
ATOM     11  C   LIG d   1       3.549  83.238 109.894  0.00  0.00     0.028 C 
ATOM     12  C   LIG d   1       4.732  83.226 110.875  0.00  0.00     0.006 C 
ENDBRANCH   8  11
ENDBRANCH   7   8
ENDBRANCH   1   7
BRANCH   6  13
ATOM     13  N   LIG d   1       1.442  82.564 112.444  0.00  0.00    -0.311 N 
ATOM     14  C   LIG d   1       1.136  83.813 112.788  0.00  0.00     0.210 C 
ATOM     15  C   LIG d   1       2.252  84.578 113.507  0.00  0.00     0.109 C 
ATOM     16  O   LIG d   1       0.035  84.350 112.595  0.00  0.00    -0.276 OA
ATOM     17  H   LIG d   1       2.347  82.198 112.667  0.00  0.00     0.149 HD
ENDBRANCH   6  13
BRANCH   5  18
ATOM     18  N   LIG d   1      -1.210  81.543 113.565  0.00  0.00     0.381 N 
ATOM     19  H   LIG d   1      -2.090  81.683 113.111  0.00  0.00    -0.090 HD
ATOM     20  H   LIG d   1      -0.799  82.443 113.740  0.00  0.00    -0.090 HD
ATOM     21  H   LIG d   1      -1.345  81.059 114.425  0.00  0.00    -0.090 HD
ENDBRANCH   5  18
BRANCH   3  22
ATOM     22  C   LIG d   1      -0.899  77.845 110.537  0.00  0.00     0.382 C 
ATOM     23  O   LIG d   1      -2.121  77.567 110.603  0.00  0.00    -0.241 OA
ATOM     24  O   LIG d   1      -0.087  76.965 110.194  0.00  0.00    -0.241 OA
ENDBRANCH   3  22
TORSDOF 7
ENDMDL
MODEL 4
REMARK VINA RESULT:      -4.4      2.122      5.074
REMARK  7 active torsions:
REMARK  status: ('A' for Active; 'I' for Inactive)
REMARK    1  A    between atoms: C_2  and  C_3 
REMARK    2  A    between atoms: C_3  and  O_6 
REMARK    3  A    between atoms: C_3  and  C_4 
REMARK    4  A    between atoms: C_7  and  O_6 
REMARK    5  A    between atoms: C_9  and  C_10 
REMARK    6  A    between atoms: N_15  and  C_14 
REMARK    7  A    between atoms: N_20  and  C_19 
REMARK       I    between atoms: C_22  and  N_20 
ROOT
ATOM      1  C   LIG d   1       1.631  82.004 113.750  0.00  0.00     0.161 C 
ATOM      2  C   LIG d   1       2.740  82.762 113.339  0.00  0.00     0.016 C 
ATOM      3  C   LIG d   1       2.897  83.261 112.025  0.00  0.00     0.038 C 
ATOM      4  C   LIG d   1       1.877  83.163 111.068  0.00  0.00     0.028 C 
ATOM      5  C   LIG d   1       0.954  81.969 111.287  0.00  0.00    -0.047 C 
ATOM      6  C   LIG d   1       0.456  81.981 112.750  0.00  0.00     0.091 C 
ENDROOT
BRANCH   1   7
ATOM      7  O   LIG d   1       1.181  82.457 115.042  0.00  0.00    -0.368 OA
BRANCH   7   8
ATOM      8  C   LIG d   1       2.212  82.909 115.954  0.00  0.00     0.119 C 
BRANCH   8   9
ATOM      9  C   LIG d   1       2.263  81.910 117.127  0.00  0.00     0.028 C 
ATOM     10  C   LIG d   1       3.454  80.943 117.024  0.00  0.00     0.006 C 
ENDBRANCH   8   9
BRANCH   8  11
ATOM     11  C   LIG d   1       1.848  84.256 116.584  0.00  0.00     0.028 C 
ATOM     12  C   LIG d   1       1.934  84.239 118.118  0.00  0.00     0.006 C 
ENDBRANCH   8  11
ENDBRANCH   7   8
ENDBRANCH   1   7
BRANCH   6  13
ATOM     13  N   LIG d   1      -0.386  80.799 113.072  0.00  0.00    -0.311 N 
ATOM     14  C   LIG d   1      -1.711  80.785 112.938  0.00  0.00     0.210 C 
ATOM     15  C   LIG d   1      -2.387  79.472 113.345  0.00  0.00     0.109 C 
ATOM     16  O   LIG d   1      -2.387  81.724 112.491  0.00  0.00    -0.276 OA
ATOM     17  H   LIG d   1       0.084  79.983 113.412  0.00  0.00     0.149 HD
ENDBRANCH   6  13
BRANCH   5  18
ATOM     18  N   LIG d   1      -0.141  82.066 110.303  0.00  0.00     0.381 N 
ATOM     19  H   LIG d   1       0.103  81.563 109.473  0.00  0.00    -0.090 HD
ATOM     20  H   LIG d   1      -0.274  83.032 110.059  0.00  0.00    -0.090 HD
ATOM     21  H   LIG d   1      -0.981  81.695 110.690  0.00  0.00    -0.090 HD
ENDBRANCH   5  18
BRANCH   3  22
ATOM     22  C   LIG d   1       4.103  83.832 111.647  0.00  0.00     0.382 C 
ATOM     23  O   LIG d   1       4.167  84.530 110.606  0.00  0.00    -0.241 OA
ATOM     24  O   LIG d   1       5.137  83.623 112.309  0.00  0.00    -0.241 OA
ENDBRANCH   3  22
TORSDOF 7
ENDMDL
MODEL 5
REMARK VINA RESULT:      -4.3      1.765      4.813
REMARK  7 active torsions:
REMARK  status: ('A' for Active; 'I' for Inactive)
REMARK    1  A    between atoms: C_2  and  C_3 
REMARK    2  A    between atoms: C_3  and  O_6 
REMARK    3  A    between atoms: C_3  and  C_4 
REMARK    4  A    between atoms: C_7  and  O_6 
REMARK    5  A    between atoms: C_9  and  C_10 
REMARK    6  A    between atoms: N_15  and  C_14 
REMARK    7  A    between atoms: N_20  and  C_19 
REMARK       I    between atoms: C_22  and  N_20 
ROOT
ATOM      1  C   LIG d   1       1.891  81.577 112.796  0.00  0.00     0.161 C 
ATOM      2  C   LIG d   1       2.926  82.230 112.107  0.00  0.00     0.016 C 
ATOM      3  C   LIG d   1       3.007  82.288 110.697  0.00  0.00     0.038 C 
ATOM      4  C   LIG d   1       1.969  81.823 109.875  0.00  0.00     0.028 C 
ATOM      5  C   LIG d   1       1.146  80.708 110.511  0.00  0.00    -0.047 C 
ATOM      6  C   LIG d   1       0.692  81.160 111.918  0.00  0.00     0.091 C 
ENDROOT
BRANCH   1   7
ATOM      7  O   LIG d   1       1.445  82.393 113.897  0.00  0.00    -0.368 OA
BRANCH   7   8
ATOM      8  C   LIG d   1       1.983  82.056 115.200  0.00  0.00     0.119 C 
BRANCH   8   9
ATOM      9  C   LIG d   1       2.055  83.357 116.022  0.00  0.00     0.028 C 
ATOM     10  C   LIG d   1       1.677  84.596 115.194  0.00  0.00     0.006 C 
ENDBRANCH   8   9
BRANCH   8  11
ATOM     11  C   LIG d   1       3.429  81.561 115.095  0.00  0.00     0.028 C 
ATOM     12  C   LIG d   1       4.052  81.248 116.464  0.00  0.00     0.006 C 
ENDBRANCH   8  11
ENDBRANCH   7   8
ENDBRANCH   1   7
BRANCH   6  13
ATOM     13  N   LIG d   1      -0.048  80.095 112.644  0.00  0.00    -0.311 N 
ATOM     14  C   LIG d   1      -1.377  80.045 112.717  0.00  0.00     0.210 C 
ATOM     15  C   LIG d   1      -1.936  78.875 113.532  0.00  0.00     0.109 C 
ATOM     16  O   LIG d   1      -2.146  80.841 112.158  0.00  0.00    -0.276 OA
ATOM     17  H   LIG d   1       0.498  79.391 113.101  0.00  0.00     0.149 HD
ENDBRANCH   6  13
BRANCH   5  18
ATOM     18  N   LIG d   1       0.018  80.415 109.607  0.00  0.00     0.381 N 
ATOM     19  H   LIG d   1      -0.772  80.974 109.858  0.00  0.00    -0.090 HD
ATOM     20  H   LIG d   1      -0.235  79.447 109.706  0.00  0.00    -0.090 HD
ATOM     21  H   LIG d   1       0.280  80.602 108.664  0.00  0.00    -0.090 HD
ENDBRANCH   5  18
BRANCH   3  22
ATOM     22  C   LIG d   1       4.154  82.781 110.094  0.00  0.00     0.382 C 
ATOM     23  O   LIG d   1       4.946  81.997 109.518  0.00  0.00    -0.241 OA
ATOM     24  O   LIG d   1       4.429  83.995 110.156  0.00  0.00    -0.241 OA
ENDBRANCH   3  22
TORSDOF 7
ENDMDL
MODEL 6
REMARK VINA RESULT:      -4.1      2.973      5.937
REMARK  7 active torsions:
REMARK  status: ('A' for Active; 'I' for Inactive)
REMARK    1  A    between atoms: C_2  and  C_3 
REMARK    2  A    between atoms: C_3  and  O_6 
REMARK    3  A    between atoms: C_3  and  C_4 
REMARK    4  A    between atoms: C_7  and  O_6 
REMARK    5  A    between atoms: C_9  and  C_10 
REMARK    6  A    between atoms: N_15  and  C_14 
REMARK    7  A    between atoms: N_20  and  C_19 
REMARK       I    between atoms: C_22  and  N_20 
ROOT
ATOM      1  C   LIG d   1       3.566  82.020 113.208  0.00  0.00     0.161 C 
ATOM      2  C   LIG d   1       4.645  81.207 113.595  0.00  0.00     0.016 C 
ATOM      3  C   LIG d   1       4.811  80.707 114.907  0.00  0.00     0.038 C 
ATOM      4  C   LIG d   1       3.822  80.861 115.890  0.00  0.00     0.028 C 
ATOM      5  C   LIG d   1       2.956  82.100 115.688  0.00  0.00    -0.047 C 
ATOM      6  C   LIG d   1       2.420  82.107 114.238  0.00  0.00     0.091 C 
ENDROOT
BRANCH   1   7
ATOM      7  O   LIG d   1       3.060  81.584 111.931  0.00  0.00    -0.368 OA
BRANCH   7   8
ATOM      8  C   LIG d   1       3.180  82.531 110.841  0.00  0.00     0.119 C 
BRANCH   8   9
ATOM      9  C   LIG d   1       1.799  82.638 110.166  0.00  0.00     0.028 C 
ATOM     10  C   LIG d   1       1.395  84.094 109.882  0.00  0.00     0.006 C 
ENDBRANCH   8   9
BRANCH   8  11
ATOM     11  C   LIG d   1       4.124  82.011 109.753  0.00  0.00     0.028 C 
ATOM     12  C   LIG d   1       4.297  80.484 109.794  0.00  0.00     0.006 C 
ENDBRANCH   8  11
ENDBRANCH   7   8
ENDBRANCH   1   7
BRANCH   6  13
ATOM     13  N   LIG d   1       1.632  83.329 113.931  0.00  0.00    -0.311 N 
ATOM     14  C   LIG d   1       0.327  83.311 113.662  0.00  0.00     0.210 C 
ATOM     15  C   LIG d   1      -0.288  84.680 113.353  0.00  0.00     0.109 C 
ATOM     16  O   LIG d   1      -0.385  82.296 113.683  0.00  0.00    -0.276 OA
ATOM     17  H   LIG d   1       2.125  84.200 113.924  0.00  0.00     0.149 HD
ENDBRANCH   6  13
BRANCH   5  18
ATOM     18  N   LIG d   1       1.883  82.064 116.700  0.00  0.00     0.381 N 
ATOM     19  H   LIG d   1       1.179  81.410 116.424  0.00  0.00    -0.090 HD
ATOM     20  H   LIG d   1       1.462  82.974 116.761  0.00  0.00    -0.090 HD
ATOM     21  H   LIG d   1       2.259  81.804 117.586  0.00  0.00    -0.090 HD
ENDBRANCH   5  18
BRANCH   3  22
ATOM     22  C   LIG d   1       5.995  80.076 115.257  0.00  0.00     0.382 C 
ATOM     23  O   LIG d   1       6.593  80.405 116.310  0.00  0.00    -0.241 OA
ATOM     24  O   LIG d   1       6.496  79.214 114.511  0.00  0.00    -0.241 OA
ENDBRANCH   3  22
TORSDOF 7
ENDMDL
MODEL 7
REMARK VINA RESULT:      -3.9      2.157      4.858
REMARK  7 active torsions:
REMARK  status: ('A' for Active; 'I' for Inactive)
REMARK    1  A    between atoms: C_2  and  C_3 
REMARK    2  A    between atoms: C_3  and  O_6 
REMARK    3  A    between atoms: C_3  and  C_4 
REMARK    4  A    between atoms: C_7  and  O_6 
REMARK    5  A    between atoms: C_9  and  C_10 
REMARK    6  A    between atoms: N_15  and  C_14 
REMARK    7  A    between atoms: N_20  and  C_19 
REMARK       I    between atoms: C_22  and  N_20 
ROOT
ATOM      1  C   LIG d   1       1.325  81.247 113.330  0.00  0.00     0.161 C 
ATOM      2  C   LIG d   1       1.961  82.034 112.357  0.00  0.00     0.016 C 
ATOM      3  C   LIG d   1       1.657  81.964 110.978  0.00  0.00     0.038 C 
ATOM      4  C   LIG d   1       0.582  81.204 110.494  0.00  0.00     0.028 C 
ATOM      5  C   LIG d   1       0.239  80.009 111.376  0.00  0.00    -0.047 C 
ATOM      6  C   LIG d   1       0.073  80.493 112.835  0.00  0.00     0.091 C 
ENDROOT
BRANCH   1   7
ATOM      7  O   LIG d   1       1.001  82.056 114.478  0.00  0.00    -0.368 OA
BRANCH   7   8
ATOM      8  C   LIG d   1       2.124  82.637 115.185  0.00  0.00     0.119 C 
BRANCH   8   9
ATOM      9  C   LIG d   1       2.844  81.496 115.929  0.00  0.00     0.028 C 
ATOM     10  C   LIG d   1       4.326  81.380 115.534  0.00  0.00     0.006 C 
ENDBRANCH   8   9
BRANCH   8  11
ATOM     11  C   LIG d   1       1.655  83.602 116.279  0.00  0.00     0.028 C 
ATOM     12  C   LIG d   1       2.008  83.116 117.693  0.00  0.00     0.006 C 
ENDBRANCH   8  11
ENDBRANCH   7   8
ENDBRANCH   1   7
BRANCH   6  13
ATOM     13  N   LIG d   1      -0.181  79.373 113.778  0.00  0.00    -0.311 N 
ATOM     14  C   LIG d   1      -1.378  78.813 113.947  0.00  0.00     0.210 C 
ATOM     15  C   LIG d   1      -1.424  77.687 114.984  0.00  0.00     0.109 C 
ATOM     16  O   LIG d   1      -2.398  79.121 113.312  0.00  0.00    -0.276 OA
ATOM     17  H   LIG d   1       0.598  79.040 114.311  0.00  0.00     0.149 HD
ENDBRANCH   6  13
BRANCH   5  18
ATOM     18  N   LIG d   1      -0.983  79.387 110.830  0.00  0.00     0.381 N 
ATOM     19  H   LIG d   1      -0.938  79.372 109.831  0.00  0.00    -0.090 HD
ATOM     20  H   LIG d   1      -1.777  79.940 111.102  0.00  0.00    -0.090 HD
ATOM     21  H   LIG d   1      -1.079  78.460 111.180  0.00  0.00    -0.090 HD
ENDBRANCH   5  18
BRANCH   3  22
ATOM     22  C   LIG d   1       2.459  82.629 110.062  0.00  0.00     0.382 C 
ATOM     23  O   LIG d   1       3.344  82.001 109.433  0.00  0.00    -0.241 OA
ATOM     24  O   LIG d   1       2.337  83.856 109.890  0.00  0.00    -0.241 OA
ENDBRANCH   3  22
TORSDOF 7
ENDMDL
MODEL 8
REMARK VINA RESULT:      -3.5      3.662      6.177
REMARK  7 active torsions:
REMARK  status: ('A' for Active; 'I' for Inactive)
REMARK    1  A    between atoms: C_2  and  C_3 
REMARK    2  A    between atoms: C_3  and  O_6 
REMARK    3  A    between atoms: C_3  and  C_4 
REMARK    4  A    between atoms: C_7  and  O_6 
REMARK    5  A    between atoms: C_9  and  C_10 
REMARK    6  A    between atoms: N_15  and  C_14 
REMARK    7  A    between atoms: N_20  and  C_19 
REMARK       I    between atoms: C_22  and  N_20 
ROOT
ATOM      1  C   LIG d   1       4.181  81.227 114.721  0.00  0.00     0.161 C 
ATOM      2  C   LIG d   1       4.615  81.420 113.399  0.00  0.00     0.016 C 
ATOM      3  C   LIG d   1       3.762  81.844 112.354  0.00  0.00     0.038 C 
ATOM      4  C   LIG d   1       2.442  82.253 112.595  0.00  0.00     0.028 C 
ATOM      5  C   LIG d   1       1.818  81.595 113.821  0.00  0.00    -0.047 C 
ATOM      6  C   LIG d   1       2.771  81.774 115.025  0.00  0.00     0.091 C 
ENDROOT
BRANCH   1   7
ATOM      7  O   LIG d   1       5.144  81.785 115.638  0.00  0.00    -0.368 OA
BRANCH   7   8
ATOM      8  C   LIG d   1       5.924  80.833 116.401  0.00  0.00     0.119 C 
BRANCH   8   9
ATOM      9  C   LIG d   1       5.515  79.422 115.937  0.00  0.00     0.028 C 
ATOM     10  C   LIG d   1       6.673  78.667 115.263  0.00  0.00     0.006 C 
ENDBRANCH   8   9
BRANCH   8  11
ATOM     11  C   LIG d   1       5.570  80.889 117.890  0.00  0.00     0.028 C 
ATOM     12  C   LIG d   1       5.121  79.528 118.447  0.00  0.00     0.006 C 
ENDBRANCH   8  11
ENDBRANCH   7   8
ENDBRANCH   1   7
BRANCH   6  13
ATOM     13  N   LIG d   1       2.276  81.087 116.247  0.00  0.00    -0.311 N 
ATOM     14  C   LIG d   1       2.115  81.700 117.418  0.00  0.00     0.210 C 
ATOM     15  C   LIG d   1       1.612  80.803 118.554  0.00  0.00     0.109 C 
ATOM     16  O   LIG d   1       2.309  82.909 117.617  0.00  0.00    -0.276 OA
ATOM     17  H   LIG d   1       2.064  80.112 116.167  0.00  0.00     0.149 HD
ENDBRANCH   6  13
BRANCH   5  18
ATOM     18  N   LIG d   1       0.496  82.213 114.034  0.00  0.00     0.381 N 
ATOM     19  H   LIG d   1       0.596  83.055 114.564  0.00  0.00    -0.090 HD
ATOM     20  H   LIG d   1      -0.080  81.577 114.557  0.00  0.00    -0.090 HD
ATOM     21  H   LIG d   1       0.068  82.414 113.156  0.00  0.00    -0.090 HD
ENDBRANCH   5  18
BRANCH   3  22
ATOM     22  C   LIG d   1       4.218  81.825 111.045  0.00  0.00     0.382 C 
ATOM     23  O   LIG d   1       4.201  80.754 110.391  0.00  0.00    -0.241 OA
ATOM     24  O   LIG d   1       4.686  82.855 110.524  0.00  0.00    -0.241 OA
ENDBRANCH   3  22
TORSDOF 7
ENDMDL
MODEL 9
REMARK VINA RESULT:      -3.5      3.816      5.897
REMARK  7 active torsions:
REMARK  status: ('A' for Active; 'I' for Inactive)
REMARK    1  A    between atoms: C_2  and  C_3 
REMARK    2  A    between atoms: C_3  and  O_6 
REMARK    3  A    between atoms: C_3  and  C_4 
REMARK    4  A    between atoms: C_7  and  O_6 
REMARK    5  A    between atoms: C_9  and  C_10 
REMARK    6  A    between atoms: N_15  and  C_14 
REMARK    7  A    between atoms: N_20  and  C_19 
REMARK       I    between atoms: C_22  and  N_20 
ROOT
ATOM      1  C   LIG d   1       4.021  81.577 113.940  0.00  0.00     0.161 C 
ATOM      2  C   LIG d   1       4.371  81.290 112.610  0.00  0.00     0.016 C 
ATOM      3  C   LIG d   1       3.932  82.058 111.506  0.00  0.00     0.038 C 
ATOM      4  C   LIG d   1       3.233  83.263 111.673  0.00  0.00     0.028 C 
ATOM      5  C   LIG d   1       2.428  83.322 112.967  0.00  0.00    -0.047 C 
ATOM      6  C   LIG d   1       3.351  82.951 114.150  0.00  0.00     0.091 C 
ENDROOT
BRANCH   1   7
ATOM      7  O   LIG d   1       5.180  81.450 114.788  0.00  0.00    -0.368 OA
BRANCH   7   8
ATOM      8  C   LIG d   1       5.206  80.295 115.662  0.00  0.00     0.119 C 
BRANCH   8   9
ATOM      9  C   LIG d   1       5.805  80.747 117.008  0.00  0.00     0.028 C 
ATOM     10  C   LIG d   1       4.748  80.826 118.123  0.00  0.00     0.006 C 
ENDBRANCH   8   9
BRANCH   8  11
ATOM     11  C   LIG d   1       6.159  79.219 115.135  0.00  0.00     0.028 C 
ATOM     12  C   LIG d   1       6.413  78.097 116.154  0.00  0.00     0.006 C 
ENDBRANCH   8  11
ENDBRANCH   7   8
ENDBRANCH   1   7
BRANCH   6  13
ATOM     13  N   LIG d   1       2.622  82.903 115.444  0.00  0.00    -0.311 N 
ATOM     14  C   LIG d   1       2.958  83.638 116.502  0.00  0.00     0.210 C 
ATOM     15  C   LIG d   1       2.087  83.421 117.744  0.00  0.00     0.109 C 
ATOM     16  O   LIG d   1       3.875  84.473 116.521  0.00  0.00    -0.276 OA
ATOM     17  H   LIG d   1       1.845  82.275 115.507  0.00  0.00     0.149 HD
ENDBRANCH   6  13
BRANCH   5  18
ATOM     18  N   LIG d   1       1.863  84.680 113.078  0.00  0.00     0.381 N 
ATOM     19  H   LIG d   1       2.438  85.239 113.675  0.00  0.00    -0.090 HD
ATOM     20  H   LIG d   1       0.948  84.618 113.489  0.00  0.00    -0.090 HD
ATOM     21  H   LIG d   1       1.802  85.099 112.176  0.00  0.00    -0.090 HD
ENDBRANCH   5  18
BRANCH   3  22
ATOM     22  C   LIG d   1       4.159  81.601 110.217  0.00  0.00     0.382 C 
ATOM     23  O   LIG d   1       3.620  80.538 109.825  0.00  0.00    -0.241 OA
ATOM     24  O   LIG d   1       4.931  82.214 109.456  0.00  0.00    -0.241 OA
ENDBRANCH   3  22
TORSDOF 7
ENDMDL
