MODEL 1
REMARK VINA RESULT:      -6.1      0.000      0.000
REMARK  7 active torsions:
REMARK  status: ('A' for Active; 'I' for Inactive)
REMARK    1  A    between atoms: C_2  and  C_3 
REMARK    2  A    between atoms: C_3  and  O_6 
REMARK    3  A    between atoms: C_3  and  C_4 
REMARK    4  A    between atoms: C_7  and  O_6 
REMARK    5  A    between atoms: C_9  and  C_10 
REMARK    6  A    between atoms: N_15  and  C_14 
REMARK    7  A    between atoms: N_20  and  C_19 
REMARK       I    between atoms: C_22  and  N_20 
ROOT
ATOM      1  C   LIG d   1       0.684  82.256 112.058  0.00  0.00     0.161 C 
ATOM      2  C   LIG d   1      -0.549  81.895 112.628  0.00  0.00     0.016 C 
ATOM      3  C   LIG d   1      -1.310  80.785 112.196  0.00  0.00     0.038 C 
ATOM      4  C   LIG d   1      -0.815  79.865 111.260  0.00  0.00     0.028 C 
ATOM      5  C   LIG d   1       0.202  80.468 110.297  0.00  0.00    -0.047 C 
ATOM      6  C   LIG d   1       1.293  81.199 111.112  0.00  0.00     0.091 C 
ENDROOT
BRANCH   1   7
ATOM      7  O   LIG d   1       1.622  82.596 113.099  0.00  0.00    -0.368 OA
BRANCH   7   8
ATOM      8  C   LIG d   1       1.138  82.471 114.459  0.00  0.00     0.119 C 
BRANCH   8   9
ATOM      9  C   LIG d   1       1.579  83.733 115.225  0.00  0.00     0.028 C 
ATOM     10  C   LIG d   1       2.427  84.679 114.358  0.00  0.00     0.006 C 
ENDBRANCH   8   9
BRANCH   8  11
ATOM     11  C   LIG d   1       1.810  81.301 115.184  0.00  0.00     0.028 C 
ATOM     12  C   LIG d   1       1.621  81.356 116.708  0.00  0.00     0.006 C 
ENDBRANCH   8  11
ENDBRANCH   7   8
ENDBRANCH   1   7
BRANCH   6  13
ATOM     13  N   LIG d   1       2.282  81.890 110.244  0.00  0.00    -0.311 N 
ATOM     14  C   LIG d   1       3.599  81.814 110.429  0.00  0.00     0.210 C 
ATOM     15  C   LIG d   1       4.439  82.619 109.432  0.00  0.00     0.109 C 
ATOM     16  O   LIG d   1       4.152  81.131 111.304  0.00  0.00    -0.276 OA
ATOM     17  H   LIG d   1       1.921  82.441 109.490  0.00  0.00     0.149 HD
ENDBRANCH   6  13
BRANCH   5  18
ATOM     18  N   LIG d   1       0.737  79.371 109.469  0.00  0.00     0.381 N 
ATOM     19  H   LIG d   1       0.772  78.528 110.005  0.00  0.00    -0.090 HD
ATOM     20  H   LIG d   1       1.672  79.604 109.185  0.00  0.00    -0.090 HD
ATOM     21  H   LIG d   1       0.162  79.239 108.666  0.00  0.00    -0.090 HD
ENDBRANCH   5  18
BRANCH   3  22
ATOM     22  C   LIG d   1      -2.600  80.609 112.674  0.00  0.00     0.382 C 
ATOM     23  O   LIG d   1      -3.440  81.535 112.567  0.00  0.00    -0.241 OA
ATOM     24  O   LIG d   1      -2.922  79.553 113.249  0.00  0.00    -0.241 OA
ENDBRANCH   3  22
TORSDOF 7
ENDMDL
MODEL 2
REMARK VINA RESULT:      -5.4      1.864      4.897
REMARK  7 active torsions:
REMARK  status: ('A' for Active; 'I' for Inactive)
REMARK    1  A    between atoms: C_2  and  C_3 
REMARK    2  A    between atoms: C_3  and  O_6 
REMARK    3  A    between atoms: C_3  and  C_4 
REMARK    4  A    between atoms: C_7  and  O_6 
REMARK    5  A    between atoms: C_9  and  C_10 
REMARK    6  A    between atoms: N_15  and  C_14 
REMARK    7  A    between atoms: N_20  and  C_19 
REMARK       I    between atoms: C_22  and  N_20 
ROOT
ATOM      1  C   LIG d   1       1.236  81.391 112.529  0.00  0.00     0.161 C 
ATOM      2  C   LIG d   1       2.176  82.138 111.799  0.00  0.00     0.016 C 
ATOM      3  C   LIG d   1       2.290  82.083 110.391  0.00  0.00     0.038 C 
ATOM      4  C   LIG d   1       1.364  81.387 109.599  0.00  0.00     0.028 C 
ATOM      5  C   LIG d   1       0.709  80.215 110.322  0.00  0.00    -0.047 C 
ATOM      6  C   LIG d   1       0.146  80.711 111.674  0.00  0.00     0.091 C 
ENDROOT
BRANCH   1   7
ATOM      7  O   LIG d   1       0.634  82.220 113.542  0.00  0.00    -0.368 OA
BRANCH   7   8
ATOM      8  C   LIG d   1       0.983  83.626 113.505  0.00  0.00     0.119 C 
BRANCH   8   9
ATOM      9  C   LIG d   1       1.292  84.064 114.950  0.00  0.00     0.028 C 
ATOM     10  C   LIG d   1       2.802  84.112 115.238  0.00  0.00     0.006 C 
ENDBRANCH   8   9
BRANCH   8  11
ATOM     11  C   LIG d   1      -0.208  84.484 113.068  0.00  0.00     0.028 C 
ATOM     12  C   LIG d   1      -0.275  84.679 111.545  0.00  0.00     0.006 C 
ENDBRANCH   8  11
ENDBRANCH   7   8
ENDBRANCH   1   7
BRANCH   6  13
ATOM     13  N   LIG d   1      -0.439  79.611 112.483  0.00  0.00    -0.311 N 
ATOM     14  C   LIG d   1      -1.726  79.272 112.439  0.00  0.00     0.210 C 
ATOM     15  C   LIG d   1      -2.124  78.121 113.368  0.00  0.00     0.109 C 
ATOM     16  O   LIG d   1      -2.569  79.794 111.694  0.00  0.00    -0.276 OA
ATOM     17  H   LIG d   1       0.181  79.113 113.092  0.00  0.00     0.149 HD
ENDBRANCH   6  13
BRANCH   5  18
ATOM     18  N   LIG d   1      -0.330  79.666 109.430  0.00  0.00     0.381 N 
ATOM     19  H   LIG d   1      -0.733  80.402 108.886  0.00  0.00    -0.090 HD
ATOM     20  H   LIG d   1      -1.055  79.254 109.991  0.00  0.00    -0.090 HD
ATOM     21  H   LIG d   1       0.066  78.977 108.829  0.00  0.00    -0.090 HD
ENDBRANCH   5  18
BRANCH   3  22
ATOM     22  C   LIG d   1       3.363  82.697 109.763  0.00  0.00     0.382 C 
ATOM     23  O   LIG d   1       4.408  82.045 109.527  0.00  0.00    -0.241 OA
ATOM     24  O   LIG d   1       3.315  83.907 109.470  0.00  0.00    -0.241 OA
ENDBRANCH   3  22
TORSDOF 7
ENDMDL
MODEL 3
REMARK VINA RESULT:      -5.0      1.799      4.724
REMARK  7 active torsions:
REMARK  status: ('A' for Active; 'I' for Inactive)
REMARK    1  A    between atoms: C_2  and  C_3 
REMARK    2  A    between atoms: C_3  and  O_6 
REMARK    3  A    between atoms: C_3  and  C_4 
REMARK    4  A    between atoms: C_7  and  O_6 
REMARK    5  A    between atoms: C_9  and  C_10 
REMARK    6  A    between atoms: N_15  and  C_14 
REMARK    7  A    between atoms: N_20  and  C_19 
REMARK       I    between atoms: C_22  and  N_20 
ROOT
ATOM      1  C   LIG d   1       1.208  81.376 112.585  0.00  0.00     0.161 C 
ATOM      2  C   LIG d   1       2.027  82.272 111.878  0.00  0.00     0.016 C 
ATOM      3  C   LIG d   1       2.045  82.363 110.467  0.00  0.00     0.038 C 
ATOM      4  C   LIG d   1       1.129  81.664 109.667  0.00  0.00     0.028 C 
ATOM      5  C   LIG d   1       0.628  80.373 110.307  0.00  0.00    -0.047 C 
ATOM      6  C   LIG d   1       0.122  80.684 111.734  0.00  0.00     0.091 C 
ENDROOT
BRANCH   1   7
ATOM      7  O   LIG d   1       0.610  82.046 113.712  0.00  0.00    -0.368 OA
BRANCH   7   8
ATOM      8  C   LIG d   1       1.523  82.725 114.608  0.00  0.00     0.119 C 
BRANCH   8   9
ATOM      9  C   LIG d   1       1.441  82.020 115.976  0.00  0.00     0.028 C 
ATOM     10  C   LIG d   1       2.086  80.623 115.956  0.00  0.00     0.006 C 
ENDBRANCH   8   9
BRANCH   8  11
ATOM     11  C   LIG d   1       1.079  84.168 114.868  0.00  0.00     0.028 C 
ATOM     12  C   LIG d   1       1.189  84.567 116.349  0.00  0.00     0.006 C 
ENDBRANCH   8  11
ENDBRANCH   7   8
ENDBRANCH   1   7
BRANCH   6  13
ATOM     13  N   LIG d   1      -0.308  79.462 112.462  0.00  0.00    -0.311 N 
ATOM     14  C   LIG d   1      -1.571  79.041 112.506  0.00  0.00     0.210 C 
ATOM     15  C   LIG d   1      -1.801  77.769 113.328  0.00  0.00     0.109 C 
ATOM     16  O   LIG d   1      -2.518  79.582 111.915  0.00  0.00    -0.276 OA
ATOM     17  H   LIG d   1       0.401  78.944 112.944  0.00  0.00     0.149 HD
ENDBRANCH   6  13
BRANCH   5  18
ATOM     18  N   LIG d   1      -0.420  79.818 109.430  0.00  0.00     0.381 N 
ATOM     19  H   LIG d   1      -1.320  80.127 109.740  0.00  0.00    -0.090 HD
ATOM     20  H   LIG d   1      -0.394  78.816 109.486  0.00  0.00    -0.090 HD
ATOM     21  H   LIG d   1      -0.268  80.110 108.490  0.00  0.00    -0.090 HD
ENDBRANCH   5  18
BRANCH   3  22
ATOM     22  C   LIG d   1       3.015  83.131 109.840  0.00  0.00     0.382 C 
ATOM     23  O   LIG d   1       4.184  82.690 109.723  0.00  0.00    -0.241 OA
ATOM     24  O   LIG d   1       2.746  84.276 109.430  0.00  0.00    -0.241 OA
ENDBRANCH   3  22
TORSDOF 7
ENDMDL
MODEL 4
REMARK VINA RESULT:      -4.3      1.491      2.239
REMARK  7 active torsions:
REMARK  status: ('A' for Active; 'I' for Inactive)
REMARK    1  A    between atoms: C_2  and  C_3 
REMARK    2  A    between atoms: C_3  and  O_6 
REMARK    3  A    between atoms: C_3  and  C_4 
REMARK    4  A    between atoms: C_7  and  O_6 
REMARK    5  A    between atoms: C_9  and  C_10 
REMARK    6  A    between atoms: N_15  and  C_14 
REMARK    7  A    between atoms: N_20  and  C_19 
REMARK       I    between atoms: C_22  and  N_20 
ROOT
ATOM      1  C   LIG d   1       0.855  81.453 113.297  0.00  0.00     0.161 C 
ATOM      2  C   LIG d   1      -0.135  80.467 113.435  0.00  0.00     0.016 C 
ATOM      3  C   LIG d   1      -0.825  79.898 112.340  0.00  0.00     0.038 C 
ATOM      4  C   LIG d   1      -0.463  80.171 111.013  0.00  0.00     0.028 C 
ATOM      5  C   LIG d   1       0.188  81.538 110.831  0.00  0.00    -0.047 C 
ATOM      6  C   LIG d   1       1.342  81.683 111.850  0.00  0.00     0.091 C 
ENDROOT
BRANCH   1   7
ATOM      7  O   LIG d   1       1.971  81.151 114.158  0.00  0.00    -0.368 OA
BRANCH   7   8
ATOM      8  C   LIG d   1       2.292  82.148 115.159  0.00  0.00     0.119 C 
BRANCH   8   9
ATOM      9  C   LIG d   1       2.614  81.402 116.468  0.00  0.00     0.028 C 
ATOM     10  C   LIG d   1       1.348  81.014 117.250  0.00  0.00     0.006 C 
ENDBRANCH   8   9
BRANCH   8  11
ATOM     11  C   LIG d   1       1.079  83.025 115.481  0.00  0.00     0.028 C 
ATOM     12  C   LIG d   1       1.315  84.510 115.160  0.00  0.00     0.006 C 
ENDBRANCH   8  11
ENDBRANCH   7   8
ENDBRANCH   1   7
BRANCH   6  13
ATOM     13  N   LIG d   1       1.979  83.025 111.798  0.00  0.00    -0.311 N 
ATOM     14  C   LIG d   1       3.249  83.220 111.446  0.00  0.00     0.210 C 
ATOM     15  C   LIG d   1       3.711  84.680 111.478  0.00  0.00     0.109 C 
ATOM     16  O   LIG d   1       4.026  82.326 111.080  0.00  0.00    -0.276 OA
ATOM     17  H   LIG d   1       1.411  83.810 112.050  0.00  0.00     0.149 HD
ENDBRANCH   6  13
BRANCH   5  18
ATOM     18  N   LIG d   1       0.639  81.635 109.430  0.00  0.00     0.381 N 
ATOM     19  H   LIG d   1       1.392  82.289 109.361  0.00  0.00    -0.090 HD
ATOM     20  H   LIG d   1      -0.122  81.969 108.866  0.00  0.00    -0.090 HD
ATOM     21  H   LIG d   1       0.936  80.741 109.105  0.00  0.00    -0.090 HD
ENDBRANCH   5  18
BRANCH   3  22
ATOM     22  C   LIG d   1      -1.918  79.076 112.569  0.00  0.00     0.382 C 
ATOM     23  O   LIG d   1      -2.166  78.129 111.783  0.00  0.00    -0.241 OA
ATOM     24  O   LIG d   1      -2.684  79.295 113.526  0.00  0.00    -0.241 OA
ENDBRANCH   3  22
TORSDOF 7
ENDMDL
MODEL 5
REMARK VINA RESULT:      -4.1      4.382      7.262
REMARK  7 active torsions:
REMARK  status: ('A' for Active; 'I' for Inactive)
REMARK    1  A    between atoms: C_2  and  C_3 
REMARK    2  A    between atoms: C_3  and  O_6 
REMARK    3  A    between atoms: C_3  and  C_4 
REMARK    4  A    between atoms: C_7  and  O_6 
REMARK    5  A    between atoms: C_9  and  C_10 
REMARK    6  A    between atoms: N_15  and  C_14 
REMARK    7  A    between atoms: N_20  and  C_19 
REMARK       I    between atoms: C_22  and  N_20 
ROOT
ATOM      1  C   LIG d   1       1.864  79.885 116.594  0.00  0.00     0.161 C 
ATOM      2  C   LIG d   1       3.191  79.822 116.136  0.00  0.00     0.016 C 
ATOM      3  C   LIG d   1       4.000  78.668 116.252  0.00  0.00     0.038 C 
ATOM      4  C   LIG d   1       3.485  77.443 116.700  0.00  0.00     0.028 C 
ATOM      5  C   LIG d   1       2.295  77.594 117.642  0.00  0.00    -0.047 C 
ATOM      6  C   LIG d   1       1.250  78.524 116.985  0.00  0.00     0.091 C 
ENDROOT
BRANCH   1   7
ATOM      7  O   LIG d   1       1.039  80.544 115.613  0.00  0.00    -0.368 OA
BRANCH   7   8
ATOM      8  C   LIG d   1       1.718  81.465 114.725  0.00  0.00     0.119 C 
BRANCH   8   9
ATOM      9  C   LIG d   1       1.351  82.894 115.171  0.00  0.00     0.028 C 
ATOM     10  C   LIG d   1       2.591  83.761 115.443  0.00  0.00     0.006 C 
ENDBRANCH   8   9
BRANCH   8  11
ATOM     11  C   LIG d   1       1.198  81.342 113.290  0.00  0.00     0.028 C 
ATOM     12  C   LIG d   1      -0.015  82.245 113.016  0.00  0.00     0.006 C 
ENDBRANCH   8  11
ENDBRANCH   7   8
ENDBRANCH   1   7
BRANCH   6  13
ATOM     13  N   LIG d   1       0.091  78.793 117.876  0.00  0.00    -0.311 N 
ATOM     14  C   LIG d   1      -1.014  78.050 117.886  0.00  0.00     0.210 C 
ATOM     15  C   LIG d   1      -2.096  78.513 118.867  0.00  0.00     0.109 C 
ATOM     16  O   LIG d   1      -1.188  77.032 117.200  0.00  0.00    -0.276 OA
ATOM     17  H   LIG d   1       0.160  79.582 118.489  0.00  0.00     0.149 HD
ENDBRANCH   6  13
BRANCH   5  18
ATOM     18  N   LIG d   1       1.773  76.243 117.921  0.00  0.00     0.381 N 
ATOM     19  H   LIG d   1       0.773  76.261 117.924  0.00  0.00    -0.090 HD
ATOM     20  H   LIG d   1       2.086  75.955 118.832  0.00  0.00    -0.090 HD
ATOM     21  H   LIG d   1       2.099  75.602 117.232  0.00  0.00    -0.090 HD
ENDBRANCH   5  18
BRANCH   3  22
ATOM     22  C   LIG d   1       5.352  78.744 115.953  0.00  0.00     0.382 C 
ATOM     23  O   LIG d   1       5.822  78.079 114.999  0.00  0.00    -0.241 OA
ATOM     24  O   LIG d   1       6.115  79.436 116.654  0.00  0.00    -0.241 OA
ENDBRANCH   3  22
TORSDOF 7
ENDMDL
MODEL 6
REMARK VINA RESULT:      -4.1      2.103      5.022
REMARK  7 active torsions:
REMARK  status: ('A' for Active; 'I' for Inactive)
REMARK    1  A    between atoms: C_2  and  C_3 
REMARK    2  A    between atoms: C_3  and  O_6 
REMARK    3  A    between atoms: C_3  and  C_4 
REMARK    4  A    between atoms: C_7  and  O_6 
REMARK    5  A    between atoms: C_9  and  C_10 
REMARK    6  A    between atoms: N_15  and  C_14 
REMARK    7  A    between atoms: N_20  and  C_19 
REMARK       I    between atoms: C_22  and  N_20 
ROOT
ATOM      1  C   LIG d   1       1.315  81.860 113.371  0.00  0.00     0.161 C 
ATOM      2  C   LIG d   1       2.373  82.728 113.054  0.00  0.00     0.016 C 
ATOM      3  C   LIG d   1       2.407  83.517 111.881  0.00  0.00     0.038 C 
ATOM      4  C   LIG d   1       1.308  83.604 111.014  0.00  0.00     0.028 C 
ATOM      5  C   LIG d   1       0.425  82.361 111.029  0.00  0.00    -0.047 C 
ATOM      6  C   LIG d   1       0.058  82.025 112.493  0.00  0.00     0.091 C 
ENDROOT
BRANCH   1   7
ATOM      7  O   LIG d   1       0.974  81.994 114.765  0.00  0.00    -0.368 OA
BRANCH   7   8
ATOM      8  C   LIG d   1       2.036  81.719 115.711  0.00  0.00     0.119 C 
BRANCH   8   9
ATOM      9  C   LIG d   1       1.779  80.319 116.302  0.00  0.00     0.028 C 
ATOM     10  C   LIG d   1       3.080  79.531 116.532  0.00  0.00     0.006 C 
ENDBRANCH   8   9
BRANCH   8  11
ATOM     11  C   LIG d   1       1.983  82.678 116.903  0.00  0.00     0.028 C 
ATOM     12  C   LIG d   1       0.916  83.772 116.741  0.00  0.00     0.006 C 
ENDBRANCH   8  11
ENDBRANCH   7   8
ENDBRANCH   1   7
BRANCH   6  13
ATOM     13  N   LIG d   1      -0.737  80.773 112.605  0.00  0.00    -0.311 N 
ATOM     14  C   LIG d   1      -2.051  80.718 112.395  0.00  0.00     0.210 C 
ATOM     15  C   LIG d   1      -2.677  79.332 112.582  0.00  0.00     0.109 C 
ATOM     16  O   LIG d   1      -2.751  81.677 112.040  0.00  0.00    -0.276 OA
ATOM     17  H   LIG d   1      -0.242  79.940 112.858  0.00  0.00     0.149 HD
ENDBRANCH   6  13
BRANCH   5  18
ATOM     18  N   LIG d   1      -0.754  82.641 110.187  0.00  0.00     0.381 N 
ATOM     19  H   LIG d   1      -1.488  81.999 110.408  0.00  0.00    -0.090 HD
ATOM     20  H   LIG d   1      -0.502  82.514 109.223  0.00  0.00    -0.090 HD
ATOM     21  H   LIG d   1      -1.065  83.576 110.336  0.00  0.00    -0.090 HD
ENDBRANCH   5  18
BRANCH   3  22
ATOM     22  C   LIG d   1       3.567  84.199 111.545  0.00  0.00     0.382 C 
ATOM     23  O   LIG d   1       3.700  84.680 110.394  0.00  0.00    -0.241 OA
ATOM     24  O   LIG d   1       4.500  84.300 112.364  0.00  0.00    -0.241 OA
ENDBRANCH   3  22
TORSDOF 7
ENDMDL
MODEL 7
REMARK VINA RESULT:      -4.1      5.661      7.294
REMARK  7 active torsions:
REMARK  status: ('A' for Active; 'I' for Inactive)
REMARK    1  A    between atoms: C_2  and  C_3 
REMARK    2  A    between atoms: C_3  and  O_6 
REMARK    3  A    between atoms: C_3  and  C_4 
REMARK    4  A    between atoms: C_7  and  O_6 
REMARK    5  A    between atoms: C_9  and  C_10 
REMARK    6  A    between atoms: N_15  and  C_14 
REMARK    7  A    between atoms: N_20  and  C_19 
REMARK       I    between atoms: C_22  and  N_20 
ROOT
ATOM      1  C   LIG d   1      -0.228  77.162 116.826  0.00  0.00     0.161 C 
ATOM      2  C   LIG d   1      -0.117  76.346 117.965  0.00  0.00     0.016 C 
ATOM      3  C   LIG d   1      -0.851  75.150 118.140  0.00  0.00     0.038 C 
ATOM      4  C   LIG d   1      -1.639  74.607 117.115  0.00  0.00     0.028 C 
ATOM      5  C   LIG d   1      -2.174  75.653 116.143  0.00  0.00    -0.047 C 
ATOM      6  C   LIG d   1      -0.999  76.527 115.649  0.00  0.00     0.091 C 
ENDROOT
BRANCH   1   7
ATOM      7  O   LIG d   1       1.081  77.584 116.398  0.00  0.00    -0.368 OA
BRANCH   7   8
ATOM      8  C   LIG d   1       1.867  78.312 117.374  0.00  0.00     0.119 C 
BRANCH   8   9
ATOM      9  C   LIG d   1       1.288  79.737 117.464  0.00  0.00     0.028 C 
ATOM     10  C   LIG d   1       1.856  80.671 116.381  0.00  0.00     0.006 C 
ENDBRANCH   8   9
BRANCH   8  11
ATOM     11  C   LIG d   1       3.313  78.491 116.903  0.00  0.00     0.028 C 
ATOM     12  C   LIG d   1       4.119  77.183 116.943  0.00  0.00     0.006 C 
ENDBRANCH   8  11
ENDBRANCH   7   8
ENDBRANCH   1   7
BRANCH   6  13
ATOM     13  N   LIG d   1      -1.447  77.630 114.759  0.00  0.00    -0.311 N 
ATOM     14  C   LIG d   1      -1.566  77.503 113.439  0.00  0.00     0.210 C 
ATOM     15  C   LIG d   1      -2.025  78.768 112.707  0.00  0.00     0.109 C 
ATOM     16  O   LIG d   1      -1.366  76.454 112.808  0.00  0.00    -0.276 OA
ATOM     17  H   LIG d   1      -1.660  78.507 115.192  0.00  0.00     0.149 HD
ENDBRANCH   6  13
BRANCH   5  18
ATOM     18  N   LIG d   1      -2.860  74.937 115.051  0.00  0.00     0.381 N 
ATOM     19  H   LIG d   1      -3.690  75.431 114.790  0.00  0.00    -0.090 HD
ATOM     20  H   LIG d   1      -3.126  74.024 115.377  0.00  0.00    -0.090 HD
ATOM     21  H   LIG d   1      -2.254  74.852 114.265  0.00  0.00    -0.090 HD
ENDBRANCH   5  18
BRANCH   3  22
ATOM     22  C   LIG d   1      -0.832  74.506 119.368  0.00  0.00     0.382 C 
ATOM     23  O   LIG d   1       0.263  74.202 119.899  0.00  0.00    -0.241 OA
ATOM     24  O   LIG d   1      -1.896  74.186 119.930  0.00  0.00    -0.241 OA
ENDBRANCH   3  22
TORSDOF 7
ENDMDL
MODEL 8
REMARK VINA RESULT:      -3.7      4.562      7.480
REMARK  7 active torsions:
REMARK  status: ('A' for Active; 'I' for Inactive)
REMARK    1  A    between atoms: C_2  and  C_3 
REMARK    2  A    between atoms: C_3  and  O_6 
REMARK    3  A    between atoms: C_3  and  C_4 
REMARK    4  A    between atoms: C_7  and  O_6 
REMARK    5  A    between atoms: C_9  and  C_10 
REMARK    6  A    between atoms: N_15  and  C_14 
REMARK    7  A    between atoms: N_20  and  C_19 
REMARK       I    between atoms: C_22  and  N_20 
ROOT
ATOM      1  C   LIG d   1       2.849  79.677 116.684  0.00  0.00     0.161 C 
ATOM      2  C   LIG d   1       4.100  79.578 116.053  0.00  0.00     0.016 C 
ATOM      3  C   LIG d   1       4.896  78.409 116.081  0.00  0.00     0.038 C 
ATOM      4  C   LIG d   1       4.423  77.203 116.618  0.00  0.00     0.028 C 
ATOM      5  C   LIG d   1       3.374  77.396 117.709  0.00  0.00    -0.047 C 
ATOM      6  C   LIG d   1       2.267  78.336 117.180  0.00  0.00     0.091 C 
ENDROOT
BRANCH   1   7
ATOM      7  O   LIG d   1       1.912  80.336 115.810  0.00  0.00    -0.368 OA
BRANCH   7   8
ATOM      8  C   LIG d   1       1.506  81.671 116.202  0.00  0.00     0.119 C 
BRANCH   8   9
ATOM      9  C   LIG d   1       1.509  82.547 114.934  0.00  0.00     0.028 C 
ATOM     10  C   LIG d   1       1.474  81.711 113.643  0.00  0.00     0.006 C 
ENDBRANCH   8   9
BRANCH   8  11
ATOM     11  C   LIG d   1       2.532  82.313 117.140  0.00  0.00     0.028 C 
ATOM     12  C   LIG d   1       3.275  83.492 116.493  0.00  0.00     0.006 C 
ENDBRANCH   8  11
ENDBRANCH   7   8
ENDBRANCH   1   7
BRANCH   6  13
ATOM     13  N   LIG d   1       1.245  78.645 118.214  0.00  0.00    -0.311 N 
ATOM     14  C   LIG d   1      -0.066  78.550 117.999  0.00  0.00     0.210 C 
ATOM     15  C   LIG d   1      -0.946  78.934 119.193  0.00  0.00     0.109 C 
ATOM     16  O   LIG d   1      -0.583  78.154 116.944  0.00  0.00    -0.276 OA
ATOM     17  H   LIG d   1       1.577  78.945 119.109  0.00  0.00     0.149 HD
ENDBRANCH   6  13
BRANCH   5  18
ATOM     18  N   LIG d   1       2.869  76.061 118.083  0.00  0.00     0.381 N 
ATOM     19  H   LIG d   1       2.609  75.555 117.260  0.00  0.00    -0.090 HD
ATOM     20  H   LIG d   1       2.052  76.172 118.656  0.00  0.00    -0.090 HD
ATOM     21  H   LIG d   1       3.570  75.559 118.583  0.00  0.00    -0.090 HD
ENDBRANCH   5  18
BRANCH   3  22
ATOM     22  C   LIG d   1       6.196  78.452 115.602  0.00  0.00     0.382 C 
ATOM     23  O   LIG d   1       6.521  77.760 114.607  0.00  0.00    -0.241 OA
ATOM     24  O   LIG d   1       7.060  79.140 116.179  0.00  0.00    -0.241 OA
ENDBRANCH   3  22
TORSDOF 7
ENDMDL
MODEL 9
REMARK VINA RESULT:      -3.7      5.917      7.806
REMARK  7 active torsions:
REMARK  status: ('A' for Active; 'I' for Inactive)
REMARK    1  A    between atoms: C_2  and  C_3 
REMARK    2  A    between atoms: C_3  and  O_6 
REMARK    3  A    between atoms: C_3  and  C_4 
REMARK    4  A    between atoms: C_7  and  O_6 
REMARK    5  A    between atoms: C_9  and  C_10 
REMARK    6  A    between atoms: N_15  and  C_14 
REMARK    7  A    between atoms: N_20  and  C_19 
REMARK       I    between atoms: C_22  and  N_20 
ROOT
ATOM      1  C   LIG d   1       2.544  77.678 118.965  0.00  0.00     0.161 C 
ATOM      2  C   LIG d   1       1.624  76.624 118.829  0.00  0.00     0.016 C 
ATOM      3  C   LIG d   1       0.629  76.585 117.825  0.00  0.00     0.038 C 
ATOM      4  C   LIG d   1       0.583  77.530 116.789  0.00  0.00     0.028 C 
ATOM      5  C   LIG d   1       1.173  78.882 117.176  0.00  0.00    -0.047 C 
ATOM      6  C   LIG d   1       2.580  78.662 117.777  0.00  0.00     0.091 C 
ENDROOT
BRANCH   1   7
ATOM      7  O   LIG d   1       3.860  77.147 119.216  0.00  0.00    -0.368 OA
BRANCH   7   8
ATOM      8  C   LIG d   1       4.512  76.503 118.094  0.00  0.00     0.119 C 
BRANCH   8   9
ATOM      9  C   LIG d   1       4.829  75.054 118.513  0.00  0.00     0.028 C 
ATOM     10  C   LIG d   1       6.111  74.953 119.355  0.00  0.00     0.006 C 
ENDBRANCH   8   9
BRANCH   8  11
ATOM     11  C   LIG d   1       5.871  77.144 117.796  0.00  0.00     0.028 C 
ATOM     12  C   LIG d   1       6.073  77.444 116.302  0.00  0.00     0.006 C 
ENDBRANCH   8  11
ENDBRANCH   7   8
ENDBRANCH   1   7
BRANCH   6  13
ATOM     13  N   LIG d   1       3.194  79.927 118.260  0.00  0.00    -0.311 N 
ATOM     14  C   LIG d   1       4.014  80.672 117.521  0.00  0.00     0.210 C 
ATOM     15  C   LIG d   1       4.552  81.926 118.218  0.00  0.00     0.109 C 
ATOM     16  O   LIG d   1       4.322  80.431 116.344  0.00  0.00    -0.276 OA
ATOM     17  H   LIG d   1       2.973  80.214 119.193  0.00  0.00     0.149 HD
ENDBRANCH   6  13
BRANCH   5  18
ATOM     18  N   LIG d   1       1.186  79.726 115.966  0.00  0.00     0.381 N 
ATOM     19  H   LIG d   1       1.645  80.593 116.163  0.00  0.00    -0.090 HD
ATOM     20  H   LIG d   1       0.238  79.924 115.698  0.00  0.00    -0.090 HD
ATOM     21  H   LIG d   1       1.656  79.253 115.226  0.00  0.00    -0.090 HD
ENDBRANCH   5  18
BRANCH   3  22
ATOM     22  C   LIG d   1      -0.359  75.613 117.874  0.00  0.00     0.382 C 
ATOM     23  O   LIG d   1      -1.486  75.838 117.370  0.00  0.00    -0.241 OA
ATOM     24  O   LIG d   1      -0.152  74.531 118.455  0.00  0.00    -0.241 OA
ENDBRANCH   3  22
TORSDOF 7
ENDMDL
