MODEL 1
REMARK VINA RESULT:      -5.0      0.000      0.000
REMARK  7 active torsions:
REMARK  status: ('A' for Active; 'I' for Inactive)
REMARK    1  A    between atoms: C_2  and  C_3 
REMARK    2  A    between atoms: C_3  and  O_6 
REMARK    3  A    between atoms: C_3  and  C_4 
REMARK    4  A    between atoms: C_7  and  O_6 
REMARK    5  A    between atoms: C_9  and  C_10 
REMARK    6  A    between atoms: N_15  and  C_14 
REMARK    7  A    between atoms: N_20  and  C_19 
REMARK       I    between atoms: C_22  and  N_20 
ROOT
ATOM      1  C   LIG d   1       0.576  81.823 111.860  0.00  0.00     0.161 C 
ATOM      2  C   LIG d   1      -0.678  81.623 112.460  0.00  0.00     0.016 C 
ATOM      3  C   LIG d   1      -1.419  80.425 112.336  0.00  0.00     0.038 C 
ATOM      4  C   LIG d   1      -0.883  79.282 111.724  0.00  0.00     0.028 C 
ATOM      5  C   LIG d   1       0.172  79.599 110.668  0.00  0.00    -0.047 C 
ATOM      6  C   LIG d   1       1.226  80.549 111.281  0.00  0.00     0.091 C 
ENDROOT
BRANCH   1   7
ATOM      7  O   LIG d   1       1.469  82.460 112.795  0.00  0.00    -0.368 OA
BRANCH   7   8
ATOM      8  C   LIG d   1       1.401  83.906 112.856  0.00  0.00     0.119 C 
BRANCH   8   9
ATOM      9  C   LIG d   1       1.311  84.428 111.409  0.00  0.00     0.028 C 
ATOM     10  C   LIG d   1       2.697  84.636 110.774  0.00  0.00     0.006 C 
ENDBRANCH   8   9
BRANCH   8  11
ATOM     11  C   LIG d   1       2.693  84.501 113.423  0.00  0.00     0.028 C 
ATOM     12  C   LIG d   1       3.107  83.864 114.759  0.00  0.00     0.006 C 
ENDBRANCH   8  11
ENDBRANCH   7   8
ENDBRANCH   1   7
BRANCH   6  13
ATOM     13  N   LIG d   1       2.248  80.975 110.291  0.00  0.00    -0.311 N 
ATOM     14  C   LIG d   1       3.531  81.164 110.596  0.00  0.00     0.210 C 
ATOM     15  C   LIG d   1       4.412  81.624 109.430  0.00  0.00     0.109 C 
ATOM     16  O   LIG d   1       4.029  80.964 111.714  0.00  0.00    -0.276 OA
ATOM     17  H   LIG d   1       1.937  81.131 109.352  0.00  0.00     0.149 HD
ENDBRANCH   6  13
BRANCH   5  18
ATOM     18  N   LIG d   1       0.743  78.318 110.211  0.00  0.00     0.381 N 
ATOM     19  H   LIG d   1       1.347  78.477 109.429  0.00  0.00    -0.090 HD
ATOM     20  H   LIG d   1      -0.005  77.716 109.916  0.00  0.00    -0.090 HD
ATOM     21  H   LIG d   1       1.253  77.889 110.952  0.00  0.00    -0.090 HD
ENDBRANCH   5  18
BRANCH   3  22
ATOM     22  C   LIG d   1      -2.727  80.375 112.794  0.00  0.00     0.382 C 
ATOM     23  O   LIG d   1      -3.223  79.281 113.156  0.00  0.00    -0.241 OA
ATOM     24  O   LIG d   1      -3.431  81.402 112.807  0.00  0.00    -0.241 OA
ENDBRANCH   3  22
TORSDOF 7
ENDMDL
MODEL 2
REMARK VINA RESULT:      -5.0      2.667      5.978
REMARK  7 active torsions:
REMARK  status: ('A' for Active; 'I' for Inactive)
REMARK    1  A    between atoms: C_2  and  C_3 
REMARK    2  A    between atoms: C_3  and  O_6 
REMARK    3  A    between atoms: C_3  and  C_4 
REMARK    4  A    between atoms: C_7  and  O_6 
REMARK    5  A    between atoms: C_9  and  C_10 
REMARK    6  A    between atoms: N_15  and  C_14 
REMARK    7  A    between atoms: N_20  and  C_19 
REMARK       I    between atoms: C_22  and  N_20 
ROOT
ATOM      1  C   LIG d   1       0.071  81.129 111.716  0.00  0.00     0.161 C 
ATOM      2  C   LIG d   1       1.125  81.600 110.916  0.00  0.00     0.016 C 
ATOM      3  C   LIG d   1       2.462  81.696 111.368  0.00  0.00     0.038 C 
ATOM      4  C   LIG d   1       2.862  81.184 112.611  0.00  0.00     0.028 C 
ATOM      5  C   LIG d   1       1.743  81.162 113.647  0.00  0.00    -0.047 C 
ATOM      6  C   LIG d   1       0.508  80.461 113.036  0.00  0.00     0.091 C 
ENDROOT
BRANCH   1   7
ATOM      7  O   LIG d   1      -0.759  80.232 110.951  0.00  0.00    -0.368 OA
BRANCH   7   8
ATOM      8  C   LIG d   1      -0.286  78.867 110.838  0.00  0.00     0.119 C 
BRANCH   8   9
ATOM      9  C   LIG d   1       0.321  78.704 109.431  0.00  0.00     0.028 C 
ATOM     10  C   LIG d   1       1.809  78.318 109.475  0.00  0.00     0.006 C 
ENDBRANCH   8   9
BRANCH   8  11
ATOM     11  C   LIG d   1      -1.445  77.868 110.898  0.00  0.00     0.028 C 
ATOM     12  C   LIG d   1      -2.683  78.434 111.613  0.00  0.00     0.006 C 
ENDBRANCH   8  11
ENDBRANCH   7   8
ENDBRANCH   1   7
BRANCH   6  13
ATOM     13  N   LIG d   1      -0.661  80.471 113.954  0.00  0.00    -0.311 N 
ATOM     14  C   LIG d   1      -1.007  79.432 114.711  0.00  0.00     0.210 C 
ATOM     15  C   LIG d   1      -2.257  79.646 115.570  0.00  0.00     0.109 C 
ATOM     16  O   LIG d   1      -0.380  78.364 114.776  0.00  0.00    -0.276 OA
ATOM     17  H   LIG d   1      -1.208  81.309 113.987  0.00  0.00     0.149 HD
ENDBRANCH   6  13
BRANCH   5  18
ATOM     18  N   LIG d   1       2.261  80.478 114.847  0.00  0.00     0.381 N 
ATOM     19  H   LIG d   1       2.582  79.562 114.604  0.00  0.00    -0.090 HD
ATOM     20  H   LIG d   1       1.515  80.384 115.515  0.00  0.00    -0.090 HD
ATOM     21  H   LIG d   1       3.007  81.005 115.245  0.00  0.00    -0.090 HD
ENDBRANCH   5  18
BRANCH   3  22
ATOM     22  C   LIG d   1       3.405  82.348 110.589  0.00  0.00     0.382 C 
ATOM     23  O   LIG d   1       4.015  81.723 109.688  0.00  0.00    -0.241 OA
ATOM     24  O   LIG d   1       3.687  83.542 110.805  0.00  0.00    -0.241 OA
ENDBRANCH   3  22
TORSDOF 7
ENDMDL
MODEL 3
REMARK VINA RESULT:      -4.8      1.821      2.652
REMARK  7 active torsions:
REMARK  status: ('A' for Active; 'I' for Inactive)
REMARK    1  A    between atoms: C_2  and  C_3 
REMARK    2  A    between atoms: C_3  and  O_6 
REMARK    3  A    between atoms: C_3  and  C_4 
REMARK    4  A    between atoms: C_7  and  O_6 
REMARK    5  A    between atoms: C_9  and  C_10 
REMARK    6  A    between atoms: N_15  and  C_14 
REMARK    7  A    between atoms: N_20  and  C_19 
REMARK       I    between atoms: C_22  and  N_20 
ROOT
ATOM      1  C   LIG d   1       0.018  81.123 111.979  0.00  0.00     0.161 C 
ATOM      2  C   LIG d   1      -1.119  80.387 112.353  0.00  0.00     0.016 C 
ATOM      3  C   LIG d   1      -1.440  79.122 111.811  0.00  0.00     0.038 C 
ATOM      4  C   LIG d   1      -0.560  78.434 110.962  0.00  0.00     0.028 C 
ATOM      5  C   LIG d   1       0.358  79.355 110.166  0.00  0.00    -0.047 C 
ATOM      6  C   LIG d   1       1.047  80.339 111.138  0.00  0.00     0.091 C 
ENDROOT
BRANCH   1   7
ATOM      7  O   LIG d   1       0.647  81.679 113.151  0.00  0.00    -0.368 OA
BRANCH   7   8
ATOM      8  C   LIG d   1       1.744  80.914 113.708  0.00  0.00     0.119 C 
BRANCH   8   9
ATOM      9  C   LIG d   1       1.405  80.626 115.184  0.00  0.00     0.028 C 
ATOM     10  C   LIG d   1       0.186  79.701 115.335  0.00  0.00     0.006 C 
ENDBRANCH   8   9
BRANCH   8  11
ATOM     11  C   LIG d   1       3.036  81.737 113.743  0.00  0.00     0.028 C 
ATOM     12  C   LIG d   1       4.292  80.866 113.904  0.00  0.00     0.006 C 
ENDBRANCH   8  11
ENDBRANCH   7   8
ENDBRANCH   1   7
BRANCH   6  13
ATOM     13  N   LIG d   1       1.899  81.331 110.431  0.00  0.00    -0.311 N 
ATOM     14  C   LIG d   1       3.189  81.132 110.164  0.00  0.00     0.210 C 
ATOM     15  C   LIG d   1       3.886  82.291 109.445  0.00  0.00     0.109 C 
ATOM     16  O   LIG d   1       3.813  80.093 110.426  0.00  0.00    -0.276 OA
ATOM     17  H   LIG d   1       1.465  82.190 110.155  0.00  0.00     0.149 HD
ENDBRANCH   6  13
BRANCH   5  18
ATOM     18  N   LIG d   1       1.313  78.505 109.430  0.00  0.00     0.381 N 
ATOM     19  H   LIG d   1       1.698  79.016 108.661  0.00  0.00    -0.090 HD
ATOM     20  H   LIG d   1       0.824  77.707 109.065  0.00  0.00    -0.090 HD
ATOM     21  H   LIG d   1       2.043  78.206 110.039  0.00  0.00    -0.090 HD
ENDBRANCH   5  18
BRANCH   3  22
ATOM     22  C   LIG d   1      -2.673  78.549 112.085  0.00  0.00     0.382 C 
ATOM     23  O   LIG d   1      -3.179  78.667 113.227  0.00  0.00    -0.241 OA
ATOM     24  O   LIG d   1      -3.265  77.878 111.218  0.00  0.00    -0.241 OA
ENDBRANCH   3  22
TORSDOF 7
ENDMDL
MODEL 4
REMARK VINA RESULT:      -4.7      2.468      3.267
REMARK  7 active torsions:
REMARK  status: ('A' for Active; 'I' for Inactive)
REMARK    1  A    between atoms: C_2  and  C_3 
REMARK    2  A    between atoms: C_3  and  O_6 
REMARK    3  A    between atoms: C_3  and  C_4 
REMARK    4  A    between atoms: C_7  and  O_6 
REMARK    5  A    between atoms: C_9  and  C_10 
REMARK    6  A    between atoms: N_15  and  C_14 
REMARK    7  A    between atoms: N_20  and  C_19 
REMARK       I    between atoms: C_22  and  N_20 
ROOT
ATOM      1  C   LIG d   1       0.948  81.222 112.609  0.00  0.00     0.161 C 
ATOM      2  C   LIG d   1      -0.423  81.168 112.307  0.00  0.00     0.016 C 
ATOM      3  C   LIG d   1      -1.390  80.614 113.178  0.00  0.00     0.038 C 
ATOM      4  C   LIG d   1      -1.068  80.210 114.482  0.00  0.00     0.028 C 
ATOM      5  C   LIG d   1       0.386  79.781 114.642  0.00  0.00    -0.047 C 
ATOM      6  C   LIG d   1       1.302  80.888 114.073  0.00  0.00     0.091 C 
ENDROOT
BRANCH   1   7
ATOM      7  O   LIG d   1       1.477  82.513 112.247  0.00  0.00    -0.368 OA
BRANCH   7   8
ATOM      8  C   LIG d   1       2.004  82.633 110.903  0.00  0.00     0.119 C 
BRANCH   8   9
ATOM      9  C   LIG d   1       3.228  81.701 110.801  0.00  0.00     0.028 C 
ATOM     10  C   LIG d   1       3.227  80.872 109.506  0.00  0.00     0.006 C 
ENDBRANCH   8   9
BRANCH   8  11
ATOM     11  C   LIG d   1       2.544  84.041 110.639  0.00  0.00     0.028 C 
ATOM     12  C   LIG d   1       3.922  84.280 111.276  0.00  0.00     0.006 C 
ENDBRANCH   8  11
ENDBRANCH   7   8
ENDBRANCH   1   7
BRANCH   6  13
ATOM     13  N   LIG d   1       2.739  80.511 114.113  0.00  0.00    -0.311 N 
ATOM     14  C   LIG d   1       3.559  80.855 115.105  0.00  0.00     0.210 C 
ATOM     15  C   LIG d   1       5.007  80.381 114.940  0.00  0.00     0.109 C 
ATOM     16  O   LIG d   1       3.218  81.479 116.121  0.00  0.00    -0.276 OA
ATOM     17  H   LIG d   1       3.093  79.977 113.344  0.00  0.00     0.149 HD
ENDBRANCH   6  13
BRANCH   5  18
ATOM     18  N   LIG d   1       0.618  79.518 116.075  0.00  0.00     0.381 N 
ATOM     19  H   LIG d   1       1.494  79.050 116.196  0.00  0.00    -0.090 HD
ATOM     20  H   LIG d   1      -0.111  78.918 116.418  0.00  0.00    -0.090 HD
ATOM     21  H   LIG d   1       0.619  80.375 116.583  0.00  0.00    -0.090 HD
ENDBRANCH   5  18
BRANCH   3  22
ATOM     22  C   LIG d   1      -2.688  80.422 112.730  0.00  0.00     0.382 C 
ATOM     23  O   LIG d   1      -3.099  79.264 112.476  0.00  0.00    -0.241 OA
ATOM     24  O   LIG d   1      -3.439  81.397 112.534  0.00  0.00    -0.241 OA
ENDBRANCH   3  22
TORSDOF 7
ENDMDL
MODEL 5
REMARK VINA RESULT:      -4.7      1.627      4.857
REMARK  7 active torsions:
REMARK  status: ('A' for Active; 'I' for Inactive)
REMARK    1  A    between atoms: C_2  and  C_3 
REMARK    2  A    between atoms: C_3  and  O_6 
REMARK    3  A    between atoms: C_3  and  C_4 
REMARK    4  A    between atoms: C_7  and  O_6 
REMARK    5  A    between atoms: C_9  and  C_10 
REMARK    6  A    between atoms: N_15  and  C_14 
REMARK    7  A    between atoms: N_20  and  C_19 
REMARK       I    between atoms: C_22  and  N_20 
ROOT
ATOM      1  C   LIG d   1       1.427  81.021 112.491  0.00  0.00     0.161 C 
ATOM      2  C   LIG d   1       2.540  80.912 111.642  0.00  0.00     0.016 C 
ATOM      3  C   LIG d   1       2.533  80.167 110.440  0.00  0.00     0.038 C 
ATOM      4  C   LIG d   1       1.357  79.599 109.928  0.00  0.00     0.028 C 
ATOM      5  C   LIG d   1       0.331  79.257 111.002  0.00  0.00    -0.047 C 
ATOM      6  C   LIG d   1       0.104  80.500 111.893  0.00  0.00     0.091 C 
ENDROOT
BRANCH   1   7
ATOM      7  O   LIG d   1       1.277  82.386 112.928  0.00  0.00    -0.368 OA
BRANCH   7   8
ATOM      8  C   LIG d   1       2.133  83.360 112.281  0.00  0.00     0.119 C 
BRANCH   8   9
ATOM      9  C   LIG d   1       2.861  84.144 113.389  0.00  0.00     0.028 C 
ATOM     10  C   LIG d   1       2.939  83.359 114.710  0.00  0.00     0.006 C 
ENDBRANCH   8   9
BRANCH   8  11
ATOM     11  C   LIG d   1       1.312  84.404 111.518  0.00  0.00     0.028 C 
ATOM     12  C   LIG d   1      -0.185  84.354 111.865  0.00  0.00     0.006 C 
ENDBRANCH   8  11
ENDBRANCH   7   8
ENDBRANCH   1   7
BRANCH   6  13
ATOM     13  N   LIG d   1      -0.824  80.227 113.021  0.00  0.00    -0.311 N 
ATOM     14  C   LIG d   1      -1.986  80.857 113.184  0.00  0.00     0.210 C 
ATOM     15  C   LIG d   1      -2.781  80.439 114.425  0.00  0.00     0.109 C 
ATOM     16  O   LIG d   1      -2.450  81.699 112.400  0.00  0.00    -0.276 OA
ATOM     17  H   LIG d   1      -0.541  79.536 113.688  0.00  0.00     0.149 HD
ENDBRANCH   6  13
BRANCH   5  18
ATOM     18  N   LIG d   1      -0.895  78.803 110.319  0.00  0.00     0.381 N 
ATOM     19  H   LIG d   1      -0.663  78.126 109.620  0.00  0.00    -0.090 HD
ATOM     20  H   LIG d   1      -1.325  79.590 109.866  0.00  0.00    -0.090 HD
ATOM     21  H   LIG d   1      -1.527  78.406 110.980  0.00  0.00    -0.090 HD
ENDBRANCH   5  18
BRANCH   3  22
ATOM     22  C   LIG d   1       3.721  79.950 109.759  0.00  0.00     0.382 C 
ATOM     23  O   LIG d   1       4.442  80.922 109.430  0.00  0.00    -0.241 OA
ATOM     24  O   LIG d   1       4.059  78.797 109.430  0.00  0.00    -0.241 OA
ENDBRANCH   3  22
TORSDOF 7
ENDMDL
MODEL 6
REMARK VINA RESULT:      -4.7      2.277      3.549
REMARK  7 active torsions:
REMARK  status: ('A' for Active; 'I' for Inactive)
REMARK    1  A    between atoms: C_2  and  C_3 
REMARK    2  A    between atoms: C_3  and  O_6 
REMARK    3  A    between atoms: C_3  and  C_4 
REMARK    4  A    between atoms: C_7  and  O_6 
REMARK    5  A    between atoms: C_9  and  C_10 
REMARK    6  A    between atoms: N_15  and  C_14 
REMARK    7  A    between atoms: N_20  and  C_19 
REMARK       I    between atoms: C_22  and  N_20 
ROOT
ATOM      1  C   LIG d   1       0.544  80.131 111.790  0.00  0.00     0.161 C 
ATOM      2  C   LIG d   1      -0.600  79.351 111.554  0.00  0.00     0.016 C 
ATOM      3  C   LIG d   1      -1.478  78.927 112.579  0.00  0.00     0.038 C 
ATOM      4  C   LIG d   1      -1.352  79.385 113.899  0.00  0.00     0.028 C 
ATOM      5  C   LIG d   1       0.076  79.764 114.275  0.00  0.00    -0.047 C 
ATOM      6  C   LIG d   1       0.636  80.732 113.208  0.00  0.00     0.091 C 
ENDROOT
BRANCH   1   7
ATOM      7  O   LIG d   1       0.639  81.171 110.797  0.00  0.00    -0.368 OA
BRANCH   7   8
ATOM      8  C   LIG d   1       1.974  81.489 110.332  0.00  0.00     0.119 C 
BRANCH   8   9
ATOM      9  C   LIG d   1       1.866  82.734 109.430  0.00  0.00     0.028 C 
ATOM     10  C   LIG d   1       2.707  83.911 109.952  0.00  0.00     0.006 C 
ENDBRANCH   8   9
BRANCH   8  11
ATOM     11  C   LIG d   1       2.528  80.381 109.430  0.00  0.00     0.028 C 
ATOM     12  C   LIG d   1       4.062  80.300 109.461  0.00  0.00     0.006 C 
ENDBRANCH   8  11
ENDBRANCH   7   8
ENDBRANCH   1   7
BRANCH   6  13
ATOM     13  N   LIG d   1       2.058  81.087 113.454  0.00  0.00    -0.311 N 
ATOM     14  C   LIG d   1       2.499  82.342 113.526  0.00  0.00     0.210 C 
ATOM     15  C   LIG d   1       4.004  82.485 113.768  0.00  0.00     0.109 C 
ATOM     16  O   LIG d   1       1.780  83.349 113.446  0.00  0.00    -0.276 OA
ATOM     17  H   LIG d   1       2.705  80.330 113.563  0.00  0.00     0.149 HD
ENDBRANCH   6  13
BRANCH   5  18
ATOM     18  N   LIG d   1       0.040  80.352 115.627  0.00  0.00     0.381 N 
ATOM     19  H   LIG d   1       0.093  81.349 115.564  0.00  0.00    -0.090 HD
ATOM     20  H   LIG d   1       0.837  80.026 116.145  0.00  0.00    -0.090 HD
ATOM     21  H   LIG d   1      -0.800  80.085 116.092  0.00  0.00    -0.090 HD
ENDBRANCH   5  18
BRANCH   3  22
ATOM     22  C   LIG d   1      -2.472  78.003 112.294  0.00  0.00     0.382 C 
ATOM     23  O   LIG d   1      -3.422  77.837 113.096  0.00  0.00    -0.241 OA
ATOM     24  O   LIG d   1      -2.408  77.303 111.266  0.00  0.00    -0.241 OA
ENDBRANCH   3  22
TORSDOF 7
ENDMDL
MODEL 7
REMARK VINA RESULT:      -4.6      2.366      3.612
REMARK  7 active torsions:
REMARK  status: ('A' for Active; 'I' for Inactive)
REMARK    1  A    between atoms: C_2  and  C_3 
REMARK    2  A    between atoms: C_3  and  O_6 
REMARK    3  A    between atoms: C_3  and  C_4 
REMARK    4  A    between atoms: C_7  and  O_6 
REMARK    5  A    between atoms: C_9  and  C_10 
REMARK    6  A    between atoms: N_15  and  C_14 
REMARK    7  A    between atoms: N_20  and  C_19 
REMARK       I    between atoms: C_22  and  N_20 
ROOT
ATOM      1  C   LIG d   1       1.203  80.740 112.123  0.00  0.00     0.161 C 
ATOM      2  C   LIG d   1       0.036  80.188 111.568  0.00  0.00     0.016 C 
ATOM      3  C   LIG d   1      -1.032  79.684 112.345  0.00  0.00     0.038 C 
ATOM      4  C   LIG d   1      -1.072  79.836 113.739  0.00  0.00     0.028 C 
ATOM      5  C   LIG d   1       0.310  79.932 114.377  0.00  0.00    -0.047 C 
ATOM      6  C   LIG d   1       1.129  81.016 113.640  0.00  0.00     0.091 C 
ENDROOT
BRANCH   1   7
ATOM      7  O   LIG d   1       1.561  81.941 111.412  0.00  0.00    -0.368 OA
BRANCH   7   8
ATOM      8  C   LIG d   1       2.452  81.772 110.283  0.00  0.00     0.119 C 
BRANCH   8   9
ATOM      9  C   LIG d   1       3.876  81.578 110.841  0.00  0.00     0.028 C 
ATOM     10  C   LIG d   1       4.389  82.823 111.584  0.00  0.00     0.006 C 
ENDBRANCH   8   9
BRANCH   8  11
ATOM     11  C   LIG d   1       2.520  83.042 109.431  0.00  0.00     0.028 C 
ATOM     12  C   LIG d   1       1.440  84.069 109.805  0.00  0.00     0.006 C 
ENDBRANCH   8  11
ENDBRANCH   7   8
ENDBRANCH   1   7
BRANCH   6  13
ATOM     13  N   LIG d   1       2.523  81.116 114.147  0.00  0.00    -0.311 N 
ATOM     14  C   LIG d   1       2.906  81.997 115.069  0.00  0.00     0.210 C 
ATOM     15  C   LIG d   1       4.393  81.945 115.435  0.00  0.00     0.109 C 
ATOM     16  O   LIG d   1       2.150  82.796 115.641  0.00  0.00    -0.276 OA
ATOM     17  H   LIG d   1       3.196  80.484 113.759  0.00  0.00     0.149 HD
ENDBRANCH   6  13
BRANCH   5  18
ATOM     18  N   LIG d   1       0.120  80.226 115.810  0.00  0.00     0.381 N 
ATOM     19  H   LIG d   1      -0.583  79.623 116.189  0.00  0.00    -0.090 HD
ATOM     20  H   LIG d   1      -0.193  81.176 115.908  0.00  0.00    -0.090 HD
ATOM     21  H   LIG d   1       0.977  80.099 116.301  0.00  0.00    -0.090 HD
ENDBRANCH   5  18
BRANCH   3  22
ATOM     22  C   LIG d   1      -2.058  78.983 111.730  0.00  0.00     0.382 C 
ATOM     23  O   LIG d   1      -1.907  78.544 110.564  0.00  0.00    -0.241 OA
ATOM     24  O   LIG d   1      -3.150  78.823 112.309  0.00  0.00    -0.241 OA
ENDBRANCH   3  22
TORSDOF 7
ENDMDL
MODEL 8
REMARK VINA RESULT:      -4.5      2.738      6.015
REMARK  7 active torsions:
REMARK  status: ('A' for Active; 'I' for Inactive)
REMARK    1  A    between atoms: C_2  and  C_3 
REMARK    2  A    between atoms: C_3  and  O_6 
REMARK    3  A    between atoms: C_3  and  C_4 
REMARK    4  A    between atoms: C_7  and  O_6 
REMARK    5  A    between atoms: C_9  and  C_10 
REMARK    6  A    between atoms: N_15  and  C_14 
REMARK    7  A    between atoms: N_20  and  C_19 
REMARK       I    between atoms: C_22  and  N_20 
ROOT
ATOM      1  C   LIG d   1       0.590  80.220 113.708  0.00  0.00     0.161 C 
ATOM      2  C   LIG d   1       1.822  80.870 113.893  0.00  0.00     0.016 C 
ATOM      3  C   LIG d   1       2.511  81.542 112.858  0.00  0.00     0.038 C 
ATOM      4  C   LIG d   1       1.938  81.740 111.593  0.00  0.00     0.028 C 
ATOM      5  C   LIG d   1       0.921  80.669 111.214  0.00  0.00    -0.047 C 
ATOM      6  C   LIG d   1      -0.103  80.521 112.363  0.00  0.00     0.091 C 
ENDROOT
BRANCH   1   7
ATOM      7  O   LIG d   1      -0.293  80.525 114.806  0.00  0.00    -0.368 OA
BRANCH   7   8
ATOM      8  C   LIG d   1      -0.323  79.559 115.886  0.00  0.00     0.119 C 
BRANCH   8   9
ATOM      9  C   LIG d   1      -0.504  78.165 115.255  0.00  0.00     0.028 C 
ATOM     10  C   LIG d   1      -0.154  77.029 116.231  0.00  0.00     0.006 C 
ENDBRANCH   8   9
BRANCH   8  11
ATOM     11  C   LIG d   1      -1.550  79.761 116.780  0.00  0.00     0.028 C 
ATOM     12  C   LIG d   1      -2.874  79.506 116.041  0.00  0.00     0.006 C 
ENDBRANCH   8  11
ENDBRANCH   7   8
ENDBRANCH   1   7
BRANCH   6  13
ATOM     13  N   LIG d   1      -1.085  79.434 112.110  0.00  0.00    -0.311 N 
ATOM     14  C   LIG d   1      -2.400  79.584 112.259  0.00  0.00     0.210 C 
ATOM     15  C   LIG d   1      -3.232  78.332 111.966  0.00  0.00     0.109 C 
ATOM     16  O   LIG d   1      -2.959  80.646 112.574  0.00  0.00    -0.276 OA
ATOM     17  H   LIG d   1      -0.720  78.548 111.821  0.00  0.00     0.149 HD
ENDBRANCH   6  13
BRANCH   5  18
ATOM     18  N   LIG d   1       0.303  81.072 109.937  0.00  0.00     0.381 N 
ATOM     19  H   LIG d   1      -0.453  80.455 109.717  0.00  0.00    -0.090 HD
ATOM     20  H   LIG d   1       0.990  81.002 109.207  0.00  0.00    -0.090 HD
ATOM     21  H   LIG d   1      -0.031  82.009 110.001  0.00  0.00    -0.090 HD
ENDBRANCH   5  18
BRANCH   3  22
ATOM     22  C   LIG d   1       3.806  81.990 113.071  0.00  0.00     0.382 C 
ATOM     23  O   LIG d   1       4.364  82.724 112.220  0.00  0.00    -0.241 OA
ATOM     24  O   LIG d   1       4.438  81.633 114.083  0.00  0.00    -0.241 OA
ENDBRANCH   3  22
TORSDOF 7
ENDMDL
MODEL 9
REMARK VINA RESULT:      -4.5      2.913      3.973
REMARK  7 active torsions:
REMARK  status: ('A' for Active; 'I' for Inactive)
REMARK    1  A    between atoms: C_2  and  C_3 
REMARK    2  A    between atoms: C_3  and  O_6 
REMARK    3  A    between atoms: C_3  and  C_4 
REMARK    4  A    between atoms: C_7  and  O_6 
REMARK    5  A    between atoms: C_9  and  C_10 
REMARK    6  A    between atoms: N_15  and  C_14 
REMARK    7  A    between atoms: N_20  and  C_19 
REMARK       I    between atoms: C_22  and  N_20 
ROOT
ATOM      1  C   LIG d   1       0.417  80.330 112.875  0.00  0.00     0.161 C 
ATOM      2  C   LIG d   1      -0.534  79.854 111.957  0.00  0.00     0.016 C 
ATOM      3  C   LIG d   1      -1.559  78.943 112.301  0.00  0.00     0.038 C 
ATOM      4  C   LIG d   1      -1.797  78.562 113.630  0.00  0.00     0.028 C 
ATOM      5  C   LIG d   1      -0.552  78.622 114.509  0.00  0.00    -0.047 C 
ATOM      6  C   LIG d   1       0.107  80.011 114.352  0.00  0.00     0.091 C 
ENDROOT
BRANCH   1   7
ATOM      7  O   LIG d   1       0.601  81.748 112.696  0.00  0.00    -0.368 OA
BRANCH   7   8
ATOM      8  C   LIG d   1       1.820  82.154 112.027  0.00  0.00     0.119 C 
BRANCH   8   9
ATOM      9  C   LIG d   1       1.461  82.473 110.563  0.00  0.00     0.028 C 
ATOM     10  C   LIG d   1       2.300  81.661 109.562  0.00  0.00     0.006 C 
ENDBRANCH   8   9
BRANCH   8  11
ATOM     11  C   LIG d   1       2.826  81.001 111.955  0.00  0.00     0.028 C 
ATOM     12  C   LIG d   1       4.051  81.222 112.858  0.00  0.00     0.006 C 
ENDBRANCH   8  11
ENDBRANCH   7   8
ENDBRANCH   1   7
BRANCH   6  13
ATOM     13  N   LIG d   1       1.378  80.125 115.114  0.00  0.00    -0.311 N 
ATOM     14  C   LIG d   1       1.464  80.692 116.316  0.00  0.00     0.210 C 
ATOM     15  C   LIG d   1       2.872  80.724 116.917  0.00  0.00     0.109 C 
ATOM     16  O   LIG d   1       0.502  81.143 116.956  0.00  0.00    -0.276 OA
ATOM     17  H   LIG d   1       2.203  79.758 114.682  0.00  0.00     0.149 HD
ENDBRANCH   6  13
BRANCH   5  18
ATOM     18  N   LIG d   1      -0.970  78.333 115.894  0.00  0.00     0.381 N 
ATOM     19  H   LIG d   1      -0.379  77.628 116.286  0.00  0.00    -0.090 HD
ATOM     20  H   LIG d   1      -1.913  77.985 115.883  0.00  0.00    -0.090 HD
ATOM     21  H   LIG d   1      -0.921  79.162 116.445  0.00  0.00    -0.090 HD
ENDBRANCH   5  18
BRANCH   3  22
ATOM     22  C   LIG d   1      -2.336  78.373 111.304  0.00  0.00     0.382 C 
ATOM     23  O   LIG d   1      -1.949  78.409 110.111  0.00  0.00    -0.241 OA
ATOM     24  O   LIG d   1      -3.439  77.863 111.576  0.00  0.00    -0.241 OA
ENDBRANCH   3  22
TORSDOF 7
ENDMDL
