MODEL 1
REMARK VINA RESULT:      -5.5      0.000      0.000
REMARK  7 active torsions:
REMARK  status: ('A' for Active; 'I' for Inactive)
REMARK    1  A    between atoms: C_2  and  C_3 
REMARK    2  A    between atoms: C_3  and  O_6 
REMARK    3  A    between atoms: C_3  and  C_4 
REMARK    4  A    between atoms: C_7  and  O_6 
REMARK    5  A    between atoms: C_9  and  C_10 
REMARK    6  A    between atoms: N_15  and  C_14 
REMARK    7  A    between atoms: N_20  and  C_19 
REMARK       I    between atoms: C_22  and  N_20 
ROOT
ATOM      1  C   LIG d   1       0.697  80.145 110.816  0.00  0.00     0.161 C 
ATOM      2  C   LIG d   1       0.423  78.772 110.701  0.00  0.00     0.016 C 
ATOM      3  C   LIG d   1      -0.687  78.146 111.313  0.00  0.00     0.038 C 
ATOM      4  C   LIG d   1      -1.689  78.882 111.961  0.00  0.00     0.028 C 
ATOM      5  C   LIG d   1      -1.194  80.206 112.533  0.00  0.00    -0.047 C 
ATOM      6  C   LIG d   1      -0.446  80.983 111.426  0.00  0.00     0.091 C 
ENDROOT
BRANCH   1   7
ATOM      7  O   LIG d   1       1.077  80.676 109.531  0.00  0.00    -0.368 OA
BRANCH   7   8
ATOM      8  C   LIG d   1       2.426  81.196 109.430  0.00  0.00     0.119 C 
BRANCH   8   9
ATOM      9  C   LIG d   1       3.227  80.640 110.624  0.00  0.00     0.028 C 
ATOM     10  C   LIG d   1       4.358  79.696 110.183  0.00  0.00     0.006 C 
ENDBRANCH   8   9
BRANCH   8  11
ATOM     11  C   LIG d   1       2.451  82.718 109.598  0.00  0.00     0.028 C 
ATOM     12  C   LIG d   1       3.870  83.271 109.802  0.00  0.00     0.006 C 
ENDBRANCH   8  11
ENDBRANCH   7   8
ENDBRANCH   1   7
BRANCH   6  13
ATOM     13  N   LIG d   1       0.144  82.253 111.924  0.00  0.00    -0.311 N 
ATOM     14  C   LIG d   1      -0.292  83.457 111.558  0.00  0.00     0.210 C 
ATOM     15  C   LIG d   1       0.470  84.635 112.174  0.00  0.00     0.109 C 
ATOM     16  O   LIG d   1      -1.257  83.662 110.807  0.00  0.00    -0.276 OA
ATOM     17  H   LIG d   1       0.912  82.180 112.562  0.00  0.00     0.149 HD
ENDBRANCH   6  13
BRANCH   5  18
ATOM     18  N   LIG d   1      -2.367  80.932 113.057  0.00  0.00     0.381 N 
ATOM     19  H   LIG d   1      -2.084  81.827 113.402  0.00  0.00    -0.090 HD
ATOM     20  H   LIG d   1      -2.758  80.409 113.821  0.00  0.00    -0.090 HD
ATOM     21  H   LIG d   1      -3.047  81.044 112.339  0.00  0.00    -0.090 HD
ENDBRANCH   5  18
BRANCH   3  22
ATOM     22  C   LIG d   1      -0.781  76.762 111.314  0.00  0.00     0.382 C 
ATOM     23  O   LIG d   1       0.245  76.064 111.129  0.00  0.00    -0.241 OA
ATOM     24  O   LIG d   1      -1.886  76.204 111.453  0.00  0.00    -0.241 OA
ENDBRANCH   3  22
TORSDOF 7
ENDMDL
MODEL 2
REMARK VINA RESULT:      -5.2      2.663      4.736
REMARK  7 active torsions:
REMARK  status: ('A' for Active; 'I' for Inactive)
REMARK    1  A    between atoms: C_2  and  C_3 
REMARK    2  A    between atoms: C_3  and  O_6 
REMARK    3  A    between atoms: C_3  and  C_4 
REMARK    4  A    between atoms: C_7  and  O_6 
REMARK    5  A    between atoms: C_9  and  C_10 
REMARK    6  A    between atoms: N_15  and  C_14 
REMARK    7  A    between atoms: N_20  and  C_19 
REMARK       I    between atoms: C_22  and  N_20 
ROOT
ATOM      1  C   LIG d   1      -1.178  80.074 112.845  0.00  0.00     0.161 C 
ATOM      2  C   LIG d   1      -1.832  78.857 112.589  0.00  0.00     0.016 C 
ATOM      3  C   LIG d   1      -1.390  77.924 111.623  0.00  0.00     0.038 C 
ATOM      4  C   LIG d   1      -0.170  78.078 110.948  0.00  0.00     0.028 C 
ATOM      5  C   LIG d   1       0.266  79.532 110.808  0.00  0.00    -0.047 C 
ATOM      6  C   LIG d   1       0.216  80.208 112.197  0.00  0.00     0.091 C 
ENDROOT
BRANCH   1   7
ATOM      7  O   LIG d   1      -1.093  80.294 114.267  0.00  0.00    -0.368 OA
BRANCH   7   8
ATOM      8  C   LIG d   1      -1.082  79.106 115.096  0.00  0.00     0.119 C 
BRANCH   8   9
ATOM      9  C   LIG d   1      -1.973  79.387 116.321  0.00  0.00     0.028 C 
ATOM     10  C   LIG d   1      -3.338  78.683 116.228  0.00  0.00     0.006 C 
ENDBRANCH   8   9
BRANCH   8  11
ATOM     11  C   LIG d   1       0.315  78.836 115.664  0.00  0.00     0.028 C 
ATOM     12  C   LIG d   1       1.164  80.111 115.787  0.00  0.00     0.006 C 
ENDBRANCH   8  11
ENDBRANCH   7   8
ENDBRANCH   1   7
BRANCH   6  13
ATOM     13  N   LIG d   1       0.547  81.655 112.136  0.00  0.00    -0.311 N 
ATOM     14  C   LIG d   1       1.774  82.136 112.330  0.00  0.00     0.210 C 
ATOM     15  C   LIG d   1       1.893  83.660 112.242  0.00  0.00     0.109 C 
ATOM     16  O   LIG d   1       2.781  81.441 112.533  0.00  0.00    -0.276 OA
ATOM     17  H   LIG d   1      -0.206  82.287 111.945  0.00  0.00     0.149 HD
ENDBRANCH   6  13
BRANCH   5  18
ATOM     18  N   LIG d   1       1.615  79.538 110.210  0.00  0.00     0.381 N 
ATOM     19  H   LIG d   1       1.996  80.462 110.242  0.00  0.00    -0.090 HD
ATOM     20  H   LIG d   1       1.545  79.258 109.248  0.00  0.00    -0.090 HD
ATOM     21  H   LIG d   1       2.209  78.909 110.704  0.00  0.00    -0.090 HD
ENDBRANCH   5  18
BRANCH   3  22
ATOM     22  C   LIG d   1      -2.193  76.842 111.295  0.00  0.00     0.382 C 
ATOM     23  O   LIG d   1      -3.427  77.002 111.141  0.00  0.00    -0.241 OA
ATOM     24  O   LIG d   1      -1.704  75.701 111.195  0.00  0.00    -0.241 OA
ENDBRANCH   3  22
TORSDOF 7
ENDMDL
MODEL 3
REMARK VINA RESULT:      -5.1      3.745      6.803
REMARK  7 active torsions:
REMARK  status: ('A' for Active; 'I' for Inactive)
REMARK    1  A    between atoms: C_2  and  C_3 
REMARK    2  A    between atoms: C_3  and  O_6 
REMARK    3  A    between atoms: C_3  and  C_4 
REMARK    4  A    between atoms: C_7  and  O_6 
REMARK    5  A    between atoms: C_9  and  C_10 
REMARK    6  A    between atoms: N_15  and  C_14 
REMARK    7  A    between atoms: N_20  and  C_19 
REMARK       I    between atoms: C_22  and  N_20 
ROOT
ATOM      1  C   LIG d   1      -2.569  77.124 113.688  0.00  0.00     0.161 C 
ATOM      2  C   LIG d   1      -2.540  78.326 112.961  0.00  0.00     0.016 C 
ATOM      3  C   LIG d   1      -2.147  79.564 113.520  0.00  0.00     0.038 C 
ATOM      4  C   LIG d   1      -1.608  79.656 114.812  0.00  0.00     0.028 C 
ATOM      5  C   LIG d   1      -2.091  78.555 115.750  0.00  0.00    -0.047 C 
ATOM      6  C   LIG d   1      -1.879  77.185 115.066  0.00  0.00     0.091 C 
ENDROOT
BRANCH   1   7
ATOM      7  O   LIG d   1      -2.010  76.060 112.894  0.00  0.00    -0.368 OA
BRANCH   7   8
ATOM      8  C   LIG d   1      -0.576  76.104 112.688  0.00  0.00     0.119 C 
BRANCH   8   9
ATOM      9  C   LIG d   1      -0.331  76.359 111.188  0.00  0.00     0.028 C 
ATOM     10  C   LIG d   1       0.331  77.722 110.925  0.00  0.00     0.006 C 
ENDBRANCH   8   9
BRANCH   8  11
ATOM     11  C   LIG d   1       0.071  74.747 112.979  0.00  0.00     0.028 C 
ATOM     12  C   LIG d   1       1.573  74.721 112.656  0.00  0.00     0.006 C 
ENDBRANCH   8  11
ENDBRANCH   7   8
ENDBRANCH   1   7
BRANCH   6  13
ATOM     13  N   LIG d   1      -2.402  76.058 115.882  0.00  0.00    -0.311 N 
ATOM     14  C   LIG d   1      -1.635  75.301 116.664  0.00  0.00     0.210 C 
ATOM     15  C   LIG d   1      -2.372  74.180 117.403  0.00  0.00     0.109 C 
ATOM     16  O   LIG d   1      -0.420  75.472 116.842  0.00  0.00    -0.276 OA
ATOM     17  H   LIG d   1      -3.384  75.869 115.822  0.00  0.00     0.149 HD
ENDBRANCH   6  13
BRANCH   5  18
ATOM     18  N   LIG d   1      -1.347  78.691 117.016  0.00  0.00     0.381 N 
ATOM     19  H   LIG d   1      -1.909  78.365 117.776  0.00  0.00    -0.090 HD
ATOM     20  H   LIG d   1      -1.141  79.662 117.170  0.00  0.00    -0.090 HD
ATOM     21  H   LIG d   1      -0.500  78.168 116.972  0.00  0.00    -0.090 HD
ENDBRANCH   5  18
BRANCH   3  22
ATOM     22  C   LIG d   1      -2.329  80.733 112.797  0.00  0.00     0.382 C 
ATOM     23  O   LIG d   1      -3.440  81.316 112.817  0.00  0.00    -0.241 OA
ATOM     24  O   LIG d   1      -1.410  81.188 112.090  0.00  0.00    -0.241 OA
ENDBRANCH   3  22
TORSDOF 7
ENDMDL
MODEL 4
REMARK VINA RESULT:      -4.9      2.508      6.540
REMARK  7 active torsions:
REMARK  status: ('A' for Active; 'I' for Inactive)
REMARK    1  A    between atoms: C_2  and  C_3 
REMARK    2  A    between atoms: C_3  and  O_6 
REMARK    3  A    between atoms: C_3  and  C_4 
REMARK    4  A    between atoms: C_7  and  O_6 
REMARK    5  A    between atoms: C_9  and  C_10 
REMARK    6  A    between atoms: N_15  and  C_14 
REMARK    7  A    between atoms: N_20  and  C_19 
REMARK       I    between atoms: C_22  and  N_20 
ROOT
ATOM      1  C   LIG d   1      -0.800  79.056 112.511  0.00  0.00     0.161 C 
ATOM      2  C   LIG d   1      -0.890  80.456 112.428  0.00  0.00     0.016 C 
ATOM      3  C   LIG d   1      -0.239  81.220 111.433  0.00  0.00     0.038 C 
ATOM      4  C   LIG d   1       0.429  80.619 110.356  0.00  0.00     0.028 C 
ATOM      5  C   LIG d   1       0.971  79.230 110.677  0.00  0.00    -0.047 C 
ATOM      6  C   LIG d   1      -0.167  78.375 111.280  0.00  0.00     0.091 C 
ENDROOT
BRANCH   1   7
ATOM      7  O   LIG d   1      -2.102  78.498 112.779  0.00  0.00    -0.368 OA
BRANCH   7   8
ATOM      8  C   LIG d   1      -2.374  78.148 114.158  0.00  0.00     0.119 C 
BRANCH   8   9
ATOM      9  C   LIG d   1      -1.026  78.129 114.905  0.00  0.00     0.028 C 
ATOM     10  C   LIG d   1      -1.035  79.025 116.155  0.00  0.00     0.006 C 
ENDBRANCH   8   9
BRANCH   8  11
ATOM     11  C   LIG d   1      -2.921  76.722 114.273  0.00  0.00     0.028 C 
ATOM     12  C   LIG d   1      -1.898  75.736 114.857  0.00  0.00     0.006 C 
ENDBRANCH   8  11
ENDBRANCH   7   8
ENDBRANCH   1   7
BRANCH   6  13
ATOM     13  N   LIG d   1       0.298  77.028 111.701  0.00  0.00    -0.311 N 
ATOM     14  C   LIG d   1      -0.410  75.916 111.512  0.00  0.00     0.210 C 
ATOM     15  C   LIG d   1       0.244  74.635 112.040  0.00  0.00     0.109 C 
ATOM     16  O   LIG d   1      -1.504  75.864 110.930  0.00  0.00    -0.276 OA
ATOM     17  H   LIG d   1       1.189  76.974 112.154  0.00  0.00     0.149 HD
ENDBRANCH   6  13
BRANCH   5  18
ATOM     18  N   LIG d   1       1.520  78.666 109.430  0.00  0.00     0.381 N 
ATOM     19  H   LIG d   1       0.865  78.792 108.684  0.00  0.00    -0.090 HD
ATOM     20  H   LIG d   1       1.668  77.680 109.557  0.00  0.00    -0.090 HD
ATOM     21  H   LIG d   1       2.382  79.112 109.204  0.00  0.00    -0.090 HD
ENDBRANCH   5  18
BRANCH   3  22
ATOM     22  C   LIG d   1      -0.218  82.603 111.532  0.00  0.00     0.382 C 
ATOM     23  O   LIG d   1       0.767  83.179 112.054  0.00  0.00    -0.241 OA
ATOM     24  O   LIG d   1      -1.191  83.279 111.147  0.00  0.00    -0.241 OA
ENDBRANCH   3  22
TORSDOF 7
ENDMDL
MODEL 5
REMARK VINA RESULT:      -4.8      3.619      6.111
REMARK  7 active torsions:
REMARK  status: ('A' for Active; 'I' for Inactive)
REMARK    1  A    between atoms: C_2  and  C_3 
REMARK    2  A    between atoms: C_3  and  O_6 
REMARK    3  A    between atoms: C_3  and  C_4 
REMARK    4  A    between atoms: C_7  and  O_6 
REMARK    5  A    between atoms: C_9  and  C_10 
REMARK    6  A    between atoms: N_15  and  C_14 
REMARK    7  A    between atoms: N_20  and  C_19 
REMARK       I    between atoms: C_22  and  N_20 
ROOT
ATOM      1  C   LIG d   1      -0.588  77.574 114.094  0.00  0.00     0.161 C 
ATOM      2  C   LIG d   1      -1.302  77.587 115.303  0.00  0.00     0.016 C 
ATOM      3  C   LIG d   1      -2.225  78.600 115.651  0.00  0.00     0.038 C 
ATOM      4  C   LIG d   1      -2.611  79.596 114.742  0.00  0.00     0.028 C 
ATOM      5  C   LIG d   1      -1.542  79.912 113.700  0.00  0.00    -0.047 C 
ATOM      6  C   LIG d   1      -1.077  78.592 113.043  0.00  0.00     0.091 C 
ENDROOT
BRANCH   1   7
ATOM      7  O   LIG d   1      -0.587  76.244 113.540  0.00  0.00    -0.368 OA
BRANCH   7   8
ATOM      8  C   LIG d   1       0.476  75.367 113.988  0.00  0.00     0.119 C 
BRANCH   8   9
ATOM      9  C   LIG d   1       1.127  74.752 112.734  0.00  0.00     0.028 C 
ATOM     10  C   LIG d   1       0.411  75.167 111.437  0.00  0.00     0.006 C 
ENDBRANCH   8   9
BRANCH   8  11
ATOM     11  C   LIG d   1      -0.077  74.180 114.782  0.00  0.00     0.028 C 
ATOM     12  C   LIG d   1       0.329  74.214 116.264  0.00  0.00     0.006 C 
ENDBRANCH   8  11
ENDBRANCH   7   8
ENDBRANCH   1   7
BRANCH   6  13
ATOM     13  N   LIG d   1       0.027  78.802 112.071  0.00  0.00    -0.311 N 
ATOM     14  C   LIG d   1      -0.152  78.825 110.751  0.00  0.00     0.210 C 
ATOM     15  C   LIG d   1       1.124  79.035 109.929  0.00  0.00     0.109 C 
ATOM     16  O   LIG d   1      -1.250  78.724 110.185  0.00  0.00    -0.276 OA
ATOM     17  H   LIG d   1       0.948  78.924 112.446  0.00  0.00     0.149 HD
ENDBRANCH   6  13
BRANCH   5  18
ATOM     18  N   LIG d   1      -2.127  80.864 112.737  0.00  0.00     0.381 N 
ATOM     19  H   LIG d   1      -3.001  80.511 112.400  0.00  0.00    -0.090 HD
ATOM     20  H   LIG d   1      -1.503  80.959 111.955  0.00  0.00    -0.090 HD
ATOM     21  H   LIG d   1      -2.263  81.749 113.172  0.00  0.00    -0.090 HD
ENDBRANCH   5  18
BRANCH   3  22
ATOM     22  C   LIG d   1      -2.743  78.646 116.937  0.00  0.00     0.382 C 
ATOM     23  O   LIG d   1      -3.437  77.693 117.367  0.00  0.00    -0.241 OA
ATOM     24  O   LIG d   1      -2.562  79.647 117.655  0.00  0.00    -0.241 OA
ENDBRANCH   3  22
TORSDOF 7
ENDMDL
MODEL 6
REMARK VINA RESULT:      -4.8      4.604      7.833
REMARK  7 active torsions:
REMARK  status: ('A' for Active; 'I' for Inactive)
REMARK    1  A    between atoms: C_2  and  C_3 
REMARK    2  A    between atoms: C_3  and  O_6 
REMARK    3  A    between atoms: C_3  and  C_4 
REMARK    4  A    between atoms: C_7  and  O_6 
REMARK    5  A    between atoms: C_9  and  C_10 
REMARK    6  A    between atoms: N_15  and  C_14 
REMARK    7  A    between atoms: N_20  and  C_19 
REMARK       I    between atoms: C_22  and  N_20 
ROOT
ATOM      1  C   LIG d   1      -1.456  78.507 115.524  0.00  0.00     0.161 C 
ATOM      2  C   LIG d   1      -1.903  79.639 114.823  0.00  0.00     0.016 C 
ATOM      3  C   LIG d   1      -2.030  79.682 113.415  0.00  0.00     0.038 C 
ATOM      4  C   LIG d   1      -1.862  78.539 112.620  0.00  0.00     0.028 C 
ATOM      5  C   LIG d   1      -0.921  77.507 113.234  0.00  0.00    -0.047 C 
ATOM      6  C   LIG d   1      -1.374  77.216 114.683  0.00  0.00     0.091 C 
ENDROOT
BRANCH   1   7
ATOM      7  O   LIG d   1      -2.281  78.296 116.687  0.00  0.00    -0.368 OA
BRANCH   7   8
ATOM      8  C   LIG d   1      -1.627  78.461 117.970  0.00  0.00     0.119 C 
BRANCH   8   9
ATOM      9  C   LIG d   1      -2.239  77.428 118.937  0.00  0.00     0.028 C 
ATOM     10  C   LIG d   1      -2.878  76.240 118.199  0.00  0.00     0.006 C 
ENDBRANCH   8   9
BRANCH   8  11
ATOM     11  C   LIG d   1      -1.943  79.828 118.584  0.00  0.00     0.028 C 
ATOM     12  C   LIG d   1      -3.439  80.017 118.881  0.00  0.00     0.006 C 
ENDBRANCH   8  11
ENDBRANCH   7   8
ENDBRANCH   1   7
BRANCH   6  13
ATOM     13  N   LIG d   1      -0.458  76.279 115.385  0.00  0.00    -0.311 N 
ATOM     14  C   LIG d   1      -0.658  74.964 115.444  0.00  0.00     0.210 C 
ATOM     15  C   LIG d   1       0.396  74.184 116.235  0.00  0.00     0.109 C 
ATOM     16  O   LIG d   1      -1.592  74.365 114.889  0.00  0.00    -0.276 OA
ATOM     17  H   LIG d   1       0.342  76.677 115.837  0.00  0.00     0.149 HD
ENDBRANCH   6  13
BRANCH   5  18
ATOM     18  N   LIG d   1      -0.945  76.312 112.370  0.00  0.00     0.381 N 
ATOM     19  H   LIG d   1      -0.835  75.489 112.927  0.00  0.00    -0.090 HD
ATOM     20  H   LIG d   1      -0.175  76.362 111.726  0.00  0.00    -0.090 HD
ATOM     21  H   LIG d   1      -1.805  76.271 111.868  0.00  0.00    -0.090 HD
ENDBRANCH   5  18
BRANCH   3  22
ATOM     22  C   LIG d   1      -2.291  80.890 112.785  0.00  0.00     0.382 C 
ATOM     23  O   LIG d   1      -1.359  81.521 112.230  0.00  0.00    -0.241 OA
ATOM     24  O   LIG d   1      -3.437  81.378 112.804  0.00  0.00    -0.241 OA
ENDBRANCH   3  22
TORSDOF 7
ENDMDL
MODEL 7
REMARK VINA RESULT:      -4.5      3.321      4.607
REMARK  7 active torsions:
REMARK  status: ('A' for Active; 'I' for Inactive)
REMARK    1  A    between atoms: C_2  and  C_3 
REMARK    2  A    between atoms: C_3  and  O_6 
REMARK    3  A    between atoms: C_3  and  C_4 
REMARK    4  A    between atoms: C_7  and  O_6 
REMARK    5  A    between atoms: C_9  and  C_10 
REMARK    6  A    between atoms: N_15  and  C_14 
REMARK    7  A    between atoms: N_20  and  C_19 
REMARK       I    between atoms: C_22  and  N_20 
ROOT
ATOM      1  C   LIG d   1      -1.502  79.515 114.142  0.00  0.00     0.161 C 
ATOM      2  C   LIG d   1      -1.944  78.257 114.582  0.00  0.00     0.016 C 
ATOM      3  C   LIG d   1      -1.913  77.095 113.776  0.00  0.00     0.038 C 
ATOM      4  C   LIG d   1      -1.294  77.083 112.518  0.00  0.00     0.028 C 
ATOM      5  C   LIG d   1      -1.287  78.445 111.832  0.00  0.00    -0.047 C 
ATOM      6  C   LIG d   1      -0.720  79.497 112.811  0.00  0.00     0.091 C 
ENDROOT
BRANCH   1   7
ATOM      7  O   LIG d   1      -0.719  80.147 115.174  0.00  0.00    -0.368 OA
BRANCH   7   8
ATOM      8  C   LIG d   1       0.605  79.601 115.393  0.00  0.00     0.119 C 
BRANCH   8   9
ATOM      9  C   LIG d   1       0.711  79.225 116.884  0.00  0.00     0.028 C 
ATOM     10  C   LIG d   1       0.538  77.716 117.122  0.00  0.00     0.006 C 
ENDBRANCH   8   9
BRANCH   8  11
ATOM     11  C   LIG d   1       1.689  80.660 115.165  0.00  0.00     0.028 C 
ATOM     12  C   LIG d   1       2.762  80.662 116.265  0.00  0.00     0.006 C 
ENDBRANCH   8  11
ENDBRANCH   7   8
ENDBRANCH   1   7
BRANCH   6  13
ATOM     13  N   LIG d   1      -0.757  80.872 112.249  0.00  0.00    -0.311 N 
ATOM     14  C   LIG d   1       0.262  81.423 111.592  0.00  0.00     0.210 C 
ATOM     15  C   LIG d   1       0.023  82.859 111.114  0.00  0.00     0.109 C 
ATOM     16  O   LIG d   1       1.330  80.848 111.333  0.00  0.00    -0.276 OA
ATOM     17  H   LIG d   1      -1.597  81.399 112.387  0.00  0.00     0.149 HD
ENDBRANCH   6  13
BRANCH   5  18
ATOM     18  N   LIG d   1      -0.492  78.317 110.596  0.00  0.00     0.381 N 
ATOM     19  H   LIG d   1       0.465  78.543 110.784  0.00  0.00    -0.090 HD
ATOM     20  H   LIG d   1      -0.842  78.969 109.915  0.00  0.00    -0.090 HD
ATOM     21  H   LIG d   1      -0.558  77.388 110.242  0.00  0.00    -0.090 HD
ENDBRANCH   5  18
BRANCH   3  22
ATOM     22  C   LIG d   1      -2.543  75.940 114.212  0.00  0.00     0.382 C 
ATOM     23  O   LIG d   1      -3.439  75.411 113.511  0.00  0.00    -0.241 OA
ATOM     24  O   LIG d   1      -2.257  75.443 115.318  0.00  0.00    -0.241 OA
ENDBRANCH   3  22
TORSDOF 7
ENDMDL
MODEL 8
REMARK VINA RESULT:      -4.4      3.218      6.288
REMARK  7 active torsions:
REMARK  status: ('A' for Active; 'I' for Inactive)
REMARK    1  A    between atoms: C_2  and  C_3 
REMARK    2  A    between atoms: C_3  and  O_6 
REMARK    3  A    between atoms: C_3  and  C_4 
REMARK    4  A    between atoms: C_7  and  O_6 
REMARK    5  A    between atoms: C_9  and  C_10 
REMARK    6  A    between atoms: N_15  and  C_14 
REMARK    7  A    between atoms: N_20  and  C_19 
REMARK       I    between atoms: C_22  and  N_20 
ROOT
ATOM      1  C   LIG d   1      -1.521  76.929 112.813  0.00  0.00     0.161 C 
ATOM      2  C   LIG d   1      -0.868  77.282 111.620  0.00  0.00     0.016 C 
ATOM      3  C   LIG d   1      -0.123  78.473 111.464  0.00  0.00     0.038 C 
ATOM      4  C   LIG d   1       0.147  79.326 112.544  0.00  0.00     0.028 C 
ATOM      5  C   LIG d   1      -0.911  79.269 113.641  0.00  0.00    -0.047 C 
ATOM      6  C   LIG d   1      -1.145  77.793 114.036  0.00  0.00     0.091 C 
ENDROOT
BRANCH   1   7
ATOM      7  O   LIG d   1      -1.299  75.534 113.098  0.00  0.00    -0.368 OA
BRANCH   7   8
ATOM      8  C   LIG d   1      -0.004  75.195 113.653  0.00  0.00     0.119 C 
BRANCH   8   9
ATOM      9  C   LIG d   1       0.714  74.290 112.634  0.00  0.00     0.028 C 
ATOM     10  C   LIG d   1       1.885  75.003 111.937  0.00  0.00     0.006 C 
ENDBRANCH   8   9
BRANCH   8  11
ATOM     11  C   LIG d   1      -0.146  74.347 114.920  0.00  0.00     0.028 C 
ATOM     12  C   LIG d   1      -1.586  74.309 115.454  0.00  0.00     0.006 C 
ENDBRANCH   8  11
ENDBRANCH   7   8
ENDBRANCH   1   7
BRANCH   6  13
ATOM     13  N   LIG d   1      -2.227  77.640 115.044  0.00  0.00    -0.311 N 
ATOM     14  C   LIG d   1      -2.004  77.595 116.356  0.00  0.00     0.210 C 
ATOM     15  C   LIG d   1      -3.258  77.413 117.218  0.00  0.00     0.109 C 
ATOM     16  O   LIG d   1      -0.892  77.721 116.890  0.00  0.00    -0.276 OA
ATOM     17  H   LIG d   1      -3.164  77.562 114.699  0.00  0.00     0.149 HD
ENDBRANCH   6  13
BRANCH   5  18
ATOM     18  N   LIG d   1      -0.436  80.099 114.763  0.00  0.00     0.381 N 
ATOM     19  H   LIG d   1      -1.190  80.653 115.118  0.00  0.00    -0.090 HD
ATOM     20  H   LIG d   1       0.281  80.719 114.428  0.00  0.00    -0.090 HD
ATOM     21  H   LIG d   1      -0.072  79.519 115.486  0.00  0.00    -0.090 HD
ENDBRANCH   5  18
BRANCH   3  22
ATOM     22  C   LIG d   1       0.327  78.842 110.205  0.00  0.00     0.382 C 
ATOM     23  O   LIG d   1      -0.421  79.495 109.438  0.00  0.00    -0.241 OA
ATOM     24  O   LIG d   1       1.455  78.491 109.810  0.00  0.00    -0.241 OA
ENDBRANCH   3  22
TORSDOF 7
ENDMDL
MODEL 9
REMARK VINA RESULT:      -4.4      4.776      7.429
REMARK  7 active torsions:
REMARK  status: ('A' for Active; 'I' for Inactive)
REMARK    1  A    between atoms: C_2  and  C_3 
REMARK    2  A    between atoms: C_3  and  O_6 
REMARK    3  A    between atoms: C_3  and  C_4 
REMARK    4  A    between atoms: C_7  and  O_6 
REMARK    5  A    between atoms: C_9  and  C_10 
REMARK    6  A    between atoms: N_15  and  C_14 
REMARK    7  A    between atoms: N_20  and  C_19 
REMARK       I    between atoms: C_22  and  N_20 
ROOT
ATOM      1  C   LIG d   1       0.114  78.722 115.437  0.00  0.00     0.161 C 
ATOM      2  C   LIG d   1      -0.515  79.729 114.686  0.00  0.00     0.016 C 
ATOM      3  C   LIG d   1      -1.650  79.499 113.874  0.00  0.00     0.038 C 
ATOM      4  C   LIG d   1      -2.327  78.271 113.877  0.00  0.00     0.028 C 
ATOM      5  C   LIG d   1      -1.433  77.087 114.229  0.00  0.00    -0.047 C 
ATOM      6  C   LIG d   1      -0.676  77.401 115.540  0.00  0.00     0.091 C 
ENDROOT
BRANCH   1   7
ATOM      7  O   LIG d   1       0.431  79.220 116.752  0.00  0.00    -0.368 OA
BRANCH   7   8
ATOM      8  C   LIG d   1      -0.406  80.295 117.245  0.00  0.00     0.119 C 
BRANCH   8   9
ATOM      9  C   LIG d   1       0.506  81.285 117.995  0.00  0.00     0.028 C 
ATOM     10  C   LIG d   1      -0.291  82.294 118.839  0.00  0.00     0.006 C 
ENDBRANCH   8   9
BRANCH   8  11
ATOM     11  C   LIG d   1      -1.402  79.789 118.293  0.00  0.00     0.028 C 
ATOM     12  C   LIG d   1      -2.809  79.564 117.717  0.00  0.00     0.006 C 
ENDBRANCH   8  11
ENDBRANCH   7   8
ENDBRANCH   1   7
BRANCH   6  13
ATOM     13  N   LIG d   1       0.284  76.330 115.911  0.00  0.00    -0.311 N 
ATOM     14  C   LIG d   1      -0.007  75.347 116.762  0.00  0.00     0.210 C 
ATOM     15  C   LIG d   1       1.134  74.358 117.021  0.00  0.00     0.109 C 
ATOM     16  O   LIG d   1      -1.111  75.182 117.301  0.00  0.00    -0.276 OA
ATOM     17  H   LIG d   1       1.194  76.369 115.495  0.00  0.00     0.149 HD
ENDBRANCH   6  13
BRANCH   5  18
ATOM     18  N   LIG d   1      -2.293  75.893 114.330  0.00  0.00     0.381 N 
ATOM     19  H   LIG d   1      -2.148  75.302 113.536  0.00  0.00    -0.090 HD
ATOM     20  H   LIG d   1      -3.255  76.185 114.335  0.00  0.00    -0.090 HD
ATOM     21  H   LIG d   1      -2.086  75.393 115.167  0.00  0.00    -0.090 HD
ENDBRANCH   5  18
BRANCH   3  22
ATOM     22  C   LIG d   1      -2.094  80.494 113.017  0.00  0.00     0.382 C 
ATOM     23  O   LIG d   1      -3.324  80.658 112.830  0.00  0.00    -0.241 OA
ATOM     24  O   LIG d   1      -1.280  81.202 112.394  0.00  0.00    -0.241 OA
ENDBRANCH   3  22
TORSDOF 7
ENDMDL
