MODEL 1
REMARK VINA RESULT:      -5.0      0.000      0.000
REMARK  7 active torsions:
REMARK  status: ('A' for Active; 'I' for Inactive)
REMARK    1  A    between atoms: C_2  and  C_3 
REMARK    2  A    between atoms: C_3  and  O_6 
REMARK    3  A    between atoms: C_3  and  C_4 
REMARK    4  A    between atoms: C_7  and  O_6 
REMARK    5  A    between atoms: C_9  and  C_10 
REMARK    6  A    between atoms: N_15  and  C_14 
REMARK    7  A    between atoms: N_20  and  C_19 
REMARK       I    between atoms: C_22  and  N_20 
ROOT
ATOM      1  C   LIG d   1       0.546  81.404 113.032  0.00  0.00     0.161 C 
ATOM      2  C   LIG d   1       1.426  82.303 112.408  0.00  0.00     0.016 C 
ATOM      3  C   LIG d   1       1.547  82.426 111.004  0.00  0.00     0.038 C 
ATOM      4  C   LIG d   1       0.681  81.760 110.124  0.00  0.00     0.028 C 
ATOM      5  C   LIG d   1       0.118  80.464 110.695  0.00  0.00    -0.047 C 
ATOM      6  C   LIG d   1      -0.485  80.749 112.089  0.00  0.00     0.091 C 
ENDROOT
BRANCH   1   7
ATOM      7  O   LIG d   1      -0.122  82.056 114.130  0.00  0.00    -0.368 OA
BRANCH   7   8
ATOM      8  C   LIG d   1      -1.245  82.902 113.780  0.00  0.00     0.119 C 
BRANCH   8   9
ATOM      9  C   LIG d   1      -0.827  84.361 114.051  0.00  0.00     0.028 C 
ATOM     10  C   LIG d   1       0.130  84.485 115.248  0.00  0.00     0.006 C 
ENDBRANCH   8   9
BRANCH   8  11
ATOM     11  C   LIG d   1      -2.443  82.646 114.700  0.00  0.00     0.028 C 
ATOM     12  C   LIG d   1      -2.142  81.614 115.797  0.00  0.00     0.006 C 
ENDBRANCH   8  11
ENDBRANCH   7   8
ENDBRANCH   1   7
BRANCH   6  13
ATOM     13  N   LIG d   1      -0.984  79.517 112.755  0.00  0.00    -0.311 N 
ATOM     14  C   LIG d   1      -2.276  79.264 112.955  0.00  0.00     0.210 C 
ATOM     15  C   LIG d   1      -2.572  77.946 113.677  0.00  0.00     0.109 C 
ATOM     16  O   LIG d   1      -3.206  79.990 112.575  0.00  0.00    -0.276 OA
ATOM     17  H   LIG d   1      -0.298  78.858 113.067  0.00  0.00     0.149 HD
ENDBRANCH   6  13
BRANCH   5  18
ATOM     18  N   LIG d   1      -0.872  79.946 109.732  0.00  0.00     0.381 N 
ATOM     19  H   LIG d   1      -0.661  80.284 108.814  0.00  0.00    -0.090 HD
ATOM     20  H   LIG d   1      -1.783  80.283 109.990  0.00  0.00    -0.090 HD
ATOM     21  H   LIG d   1      -0.865  78.950 109.737  0.00  0.00    -0.090 HD
ENDBRANCH   5  18
BRANCH   3  22
ATOM     22  C   LIG d   1       2.570  83.193 110.468  0.00  0.00     0.382 C 
ATOM     23  O   LIG d   1       3.737  83.085 110.917  0.00  0.00    -0.241 OA
ATOM     24  O   LIG d   1       2.333  84.024 109.570  0.00  0.00    -0.241 OA
ENDBRANCH   3  22
TORSDOF 7
ENDMDL
MODEL 2
REMARK VINA RESULT:      -4.9      2.323      3.028
REMARK  7 active torsions:
REMARK  status: ('A' for Active; 'I' for Inactive)
REMARK    1  A    between atoms: C_2  and  C_3 
REMARK    2  A    between atoms: C_3  and  O_6 
REMARK    3  A    between atoms: C_3  and  C_4 
REMARK    4  A    between atoms: C_7  and  O_6 
REMARK    5  A    between atoms: C_9  and  C_10 
REMARK    6  A    between atoms: N_15  and  C_14 
REMARK    7  A    between atoms: N_20  and  C_19 
REMARK       I    between atoms: C_22  and  N_20 
ROOT
ATOM      1  C   LIG d   1      -1.747  80.854 113.889  0.00  0.00     0.161 C 
ATOM      2  C   LIG d   1      -1.580  82.215 113.583  0.00  0.00     0.016 C 
ATOM      3  C   LIG d   1      -1.080  82.679 112.345  0.00  0.00     0.038 C 
ATOM      4  C   LIG d   1      -0.855  81.812 111.265  0.00  0.00     0.028 C 
ATOM      5  C   LIG d   1      -0.530  80.385 111.692  0.00  0.00    -0.047 C 
ATOM      6  C   LIG d   1      -1.611  79.899 112.684  0.00  0.00     0.091 C 
ENDROOT
BRANCH   1   7
ATOM      7  O   LIG d   1      -3.013  80.653 114.547  0.00  0.00    -0.368 OA
BRANCH   7   8
ATOM      8  C   LIG d   1      -2.955  80.351 115.963  0.00  0.00     0.119 C 
BRANCH   8   9
ATOM      9  C   LIG d   1      -3.320  81.639 116.726  0.00  0.00     0.028 C 
ATOM     10  C   LIG d   1      -2.208  82.084 117.691  0.00  0.00     0.006 C 
ENDBRANCH   8   9
BRANCH   8  11
ATOM     11  C   LIG d   1      -1.528  80.010 116.402  0.00  0.00     0.028 C 
ATOM     12  C   LIG d   1      -1.381  78.555 116.874  0.00  0.00     0.006 C 
ENDBRANCH   8  11
ENDBRANCH   7   8
ENDBRANCH   1   7
BRANCH   6  13
ATOM     13  N   LIG d   1      -1.323  78.542 113.216  0.00  0.00    -0.311 N 
ATOM     14  C   LIG d   1      -2.251  77.597 113.355  0.00  0.00     0.210 C 
ATOM     15  C   LIG d   1      -1.746  76.275 113.941  0.00  0.00     0.109 C 
ATOM     16  O   LIG d   1      -3.439  77.717 113.018  0.00  0.00    -0.276 OA
ATOM     17  H   LIG d   1      -0.378  78.348 113.486  0.00  0.00     0.149 HD
ENDBRANCH   6  13
BRANCH   5  18
ATOM     18  N   LIG d   1      -0.454  79.561 110.471  0.00  0.00     0.381 N 
ATOM     19  H   LIG d   1       0.313  78.922 110.540  0.00  0.00    -0.090 HD
ATOM     20  H   LIG d   1      -0.293  80.162 109.682  0.00  0.00    -0.090 HD
ATOM     21  H   LIG d   1      -1.305  79.058 110.345  0.00  0.00    -0.090 HD
ENDBRANCH   5  18
BRANCH   3  22
ATOM     22  C   LIG d   1      -0.764  84.020 112.190  0.00  0.00     0.382 C 
ATOM     23  O   LIG d   1      -0.162  84.632 113.106  0.00  0.00    -0.241 OA
ATOM     24  O   LIG d   1      -1.112  84.637 111.166  0.00  0.00    -0.241 OA
ENDBRANCH   3  22
TORSDOF 7
ENDMDL
MODEL 3
REMARK VINA RESULT:      -4.9      1.677      5.006
REMARK  7 active torsions:
REMARK  status: ('A' for Active; 'I' for Inactive)
REMARK    1  A    between atoms: C_2  and  C_3 
REMARK    2  A    between atoms: C_3  and  O_6 
REMARK    3  A    between atoms: C_3  and  C_4 
REMARK    4  A    between atoms: C_7  and  O_6 
REMARK    5  A    between atoms: C_9  and  C_10 
REMARK    6  A    between atoms: N_15  and  C_14 
REMARK    7  A    between atoms: N_20  and  C_19 
REMARK       I    between atoms: C_22  and  N_20 
ROOT
ATOM      1  C   LIG d   1      -1.019  82.698 112.447  0.00  0.00     0.161 C 
ATOM      2  C   LIG d   1      -1.923  81.746 112.946  0.00  0.00     0.016 C 
ATOM      3  C   LIG d   1      -1.913  80.386 112.561  0.00  0.00     0.038 C 
ATOM      4  C   LIG d   1      -0.895  79.850 111.758  0.00  0.00     0.028 C 
ATOM      5  C   LIG d   1      -0.255  80.875 110.827  0.00  0.00    -0.047 C 
ATOM      6  C   LIG d   1       0.168  82.110 111.656  0.00  0.00     0.091 C 
ENDROOT
BRANCH   1   7
ATOM      7  O   LIG d   1      -0.541  83.529 113.523  0.00  0.00    -0.368 OA
BRANCH   7   8
ATOM      8  C   LIG d   1       0.219  82.858 114.558  0.00  0.00     0.119 C 
BRANCH   8   9
ATOM      9  C   LIG d   1      -0.186  83.482 115.908  0.00  0.00     0.028 C 
ATOM     10  C   LIG d   1      -0.721  82.437 116.901  0.00  0.00     0.006 C 
ENDBRANCH   8   9
BRANCH   8  11
ATOM     11  C   LIG d   1       1.718  83.134 114.417  0.00  0.00     0.028 C 
ATOM     12  C   LIG d   1       2.027  84.613 114.131  0.00  0.00     0.006 C 
ENDBRANCH   8  11
ENDBRANCH   7   8
ENDBRANCH   1   7
BRANCH   6  13
ATOM     13  N   LIG d   1       0.727  83.196 110.809  0.00  0.00    -0.311 N 
ATOM     14  C   LIG d   1       2.032  83.376 110.615  0.00  0.00     0.210 C 
ATOM     15  C   LIG d   1       2.395  84.568 109.723  0.00  0.00     0.109 C 
ATOM     16  O   LIG d   1       2.923  82.643 111.070  0.00  0.00    -0.276 OA
ATOM     17  H   LIG d   1       0.073  83.819 110.376  0.00  0.00     0.149 HD
ENDBRANCH   6  13
BRANCH   5  18
ATOM     18  N   LIG d   1       0.878  80.217 110.151  0.00  0.00     0.381 N 
ATOM     19  H   LIG d   1       1.417  79.700 110.817  0.00  0.00    -0.090 HD
ATOM     20  H   LIG d   1       1.469  80.921 109.746  0.00  0.00    -0.090 HD
ATOM     21  H   LIG d   1       0.543  79.605 109.440  0.00  0.00    -0.090 HD
ENDBRANCH   5  18
BRANCH   3  22
ATOM     22  C   LIG d   1      -2.953  79.554 112.947  0.00  0.00     0.382 C 
ATOM     23  O   LIG d   1      -3.440  78.737 112.129  0.00  0.00    -0.241 OA
ATOM     24  O   LIG d   1      -3.440  79.641 114.090  0.00  0.00    -0.241 OA
ENDBRANCH   3  22
TORSDOF 7
ENDMDL
MODEL 4
REMARK VINA RESULT:      -4.6      2.072      4.792
REMARK  7 active torsions:
REMARK  status: ('A' for Active; 'I' for Inactive)
REMARK    1  A    between atoms: C_2  and  C_3 
REMARK    2  A    between atoms: C_3  and  O_6 
REMARK    3  A    between atoms: C_3  and  C_4 
REMARK    4  A    between atoms: C_7  and  O_6 
REMARK    5  A    between atoms: C_9  and  C_10 
REMARK    6  A    between atoms: N_15  and  C_14 
REMARK    7  A    between atoms: N_20  and  C_19 
REMARK       I    between atoms: C_22  and  N_20 
ROOT
ATOM      1  C   LIG d   1       0.525  83.076 112.449  0.00  0.00     0.161 C 
ATOM      2  C   LIG d   1      -0.739  82.724 112.952  0.00  0.00     0.016 C 
ATOM      3  C   LIG d   1      -1.541  81.701 112.396  0.00  0.00     0.038 C 
ATOM      4  C   LIG d   1      -1.065  80.853 111.385  0.00  0.00     0.028 C 
ATOM      5  C   LIG d   1       0.005  81.496 110.509  0.00  0.00    -0.047 C 
ATOM      6  C   LIG d   1       1.107  82.088 111.416  0.00  0.00     0.091 C 
ENDROOT
BRANCH   1   7
ATOM      7  O   LIG d   1       1.449  83.265 113.538  0.00  0.00    -0.368 OA
BRANCH   7   8
ATOM      8  C   LIG d   1       1.048  82.714 114.817  0.00  0.00     0.119 C 
BRANCH   8   9
ATOM      9  C   LIG d   1       1.547  83.677 115.912  0.00  0.00     0.028 C 
ATOM     10  C   LIG d   1       2.593  84.675 115.385  0.00  0.00     0.006 C 
ENDBRANCH   8   9
BRANCH   8  11
ATOM     11  C   LIG d   1       1.753  81.383 115.096  0.00  0.00     0.028 C 
ATOM     12  C   LIG d   1       1.352  80.769 116.447  0.00  0.00     0.006 C 
ENDBRANCH   8  11
ENDBRANCH   7   8
ENDBRANCH   1   7
BRANCH   6  13
ATOM     13  N   LIG d   1       2.151  82.810 110.643  0.00  0.00    -0.311 N 
ATOM     14  C   LIG d   1       3.260  82.229 110.188  0.00  0.00     0.210 C 
ATOM     15  C   LIG d   1       4.214  83.158 109.432  0.00  0.00     0.109 C 
ATOM     16  O   LIG d   1       3.528  81.024 110.310  0.00  0.00    -0.276 OA
ATOM     17  H   LIG d   1       1.999  83.784 110.471  0.00  0.00     0.149 HD
ENDBRANCH   6  13
BRANCH   5  18
ATOM     18  N   LIG d   1       0.509  80.460 109.588  0.00  0.00     0.381 N 
ATOM     19  H   LIG d   1       1.299  80.000 109.995  0.00  0.00    -0.090 HD
ATOM     20  H   LIG d   1       0.805  80.900 108.734  0.00  0.00    -0.090 HD
ATOM     21  H   LIG d   1      -0.208  79.795 109.397  0.00  0.00    -0.090 HD
ENDBRANCH   5  18
BRANCH   3  22
ATOM     22  C   LIG d   1      -2.850  81.544 112.825  0.00  0.00     0.382 C 
ATOM     23  O   LIG d   1      -3.434  82.486 113.412  0.00  0.00    -0.241 OA
ATOM     24  O   LIG d   1      -3.439  80.457 112.672  0.00  0.00    -0.241 OA
ENDBRANCH   3  22
TORSDOF 7
ENDMDL
MODEL 5
REMARK VINA RESULT:      -4.4      2.840      5.759
REMARK  7 active torsions:
REMARK  status: ('A' for Active; 'I' for Inactive)
REMARK    1  A    between atoms: C_2  and  C_3 
REMARK    2  A    between atoms: C_3  and  O_6 
REMARK    3  A    between atoms: C_3  and  C_4 
REMARK    4  A    between atoms: C_7  and  O_6 
REMARK    5  A    between atoms: C_9  and  C_10 
REMARK    6  A    between atoms: N_15  and  C_14 
REMARK    7  A    between atoms: N_20  and  C_19 
REMARK       I    between atoms: C_22  and  N_20 
ROOT
ATOM      1  C   LIG d   1       0.608  80.981 113.889  0.00  0.00     0.161 C 
ATOM      2  C   LIG d   1      -0.595  81.626 113.556  0.00  0.00     0.016 C 
ATOM      3  C   LIG d   1      -1.511  82.109 114.519  0.00  0.00     0.038 C 
ATOM      4  C   LIG d   1      -1.211  82.116 115.890  0.00  0.00     0.028 C 
ATOM      5  C   LIG d   1      -0.233  81.020 116.301  0.00  0.00    -0.047 C 
ATOM      6  C   LIG d   1       1.004  81.079 115.377  0.00  0.00     0.091 C 
ENDROOT
BRANCH   1   7
ATOM      7  O   LIG d   1       1.674  81.475 113.053  0.00  0.00    -0.368 OA
BRANCH   7   8
ATOM      8  C   LIG d   1       1.286  81.952 111.741  0.00  0.00     0.119 C 
BRANCH   8   9
ATOM      9  C   LIG d   1       1.794  80.928 110.707  0.00  0.00     0.028 C 
ATOM     10  C   LIG d   1       3.080  81.393 110.004  0.00  0.00     0.006 C 
ENDBRANCH   8   9
BRANCH   8  11
ATOM     11  C   LIG d   1       1.994  83.265 111.393  0.00  0.00     0.028 C 
ATOM     12  C   LIG d   1       2.310  84.117 112.632  0.00  0.00     0.006 C 
ENDBRANCH   8  11
ENDBRANCH   7   8
ENDBRANCH   1   7
BRANCH   6  13
ATOM     13  N   LIG d   1       1.973  79.988 115.657  0.00  0.00    -0.311 N 
ATOM     14  C   LIG d   1       3.258  80.201 115.934  0.00  0.00     0.210 C 
ATOM     15  C   LIG d   1       4.088  78.935 116.171  0.00  0.00     0.109 C 
ATOM     16  O   LIG d   1       3.783  81.320 116.038  0.00  0.00    -0.276 OA
ATOM     17  H   LIG d   1       1.625  79.049 115.624  0.00  0.00     0.149 HD
ENDBRANCH   6  13
BRANCH   5  18
ATOM     18  N   LIG d   1       0.097  81.229 117.723  0.00  0.00     0.381 N 
ATOM     19  H   LIG d   1      -0.664  80.925 118.296  0.00  0.00    -0.090 HD
ATOM     20  H   LIG d   1       0.239  82.211 117.884  0.00  0.00    -0.090 HD
ATOM     21  H   LIG d   1       0.923  80.724 117.960  0.00  0.00    -0.090 HD
ENDBRANCH   5  18
BRANCH   3  22
ATOM     22  C   LIG d   1      -2.760  82.557 114.116  0.00  0.00     0.382 C 
ATOM     23  O   LIG d   1      -3.440  83.286 114.877  0.00  0.00    -0.241 OA
ATOM     24  O   LIG d   1      -3.233  82.205 113.019  0.00  0.00    -0.241 OA
ENDBRANCH   3  22
TORSDOF 7
ENDMDL
MODEL 6
REMARK VINA RESULT:      -4.3      2.890      3.457
REMARK  7 active torsions:
REMARK  status: ('A' for Active; 'I' for Inactive)
REMARK    1  A    between atoms: C_2  and  C_3 
REMARK    2  A    between atoms: C_3  and  O_6 
REMARK    3  A    between atoms: C_3  and  C_4 
REMARK    4  A    between atoms: C_7  and  O_6 
REMARK    5  A    between atoms: C_9  and  C_10 
REMARK    6  A    between atoms: N_15  and  C_14 
REMARK    7  A    between atoms: N_20  and  C_19 
REMARK       I    between atoms: C_22  and  N_20 
ROOT
ATOM      1  C   LIG d   1      -0.375  80.629 114.804  0.00  0.00     0.161 C 
ATOM      2  C   LIG d   1      -0.471  81.821 114.067  0.00  0.00     0.016 C 
ATOM      3  C   LIG d   1      -1.350  81.991 112.973  0.00  0.00     0.038 C 
ATOM      4  C   LIG d   1      -2.308  81.024 112.635  0.00  0.00     0.028 C 
ATOM      5  C   LIG d   1      -1.906  79.608 113.031  0.00  0.00    -0.047 C 
ATOM      6  C   LIG d   1      -1.491  79.602 114.520  0.00  0.00     0.091 C 
ENDROOT
BRANCH   1   7
ATOM      7  O   LIG d   1      -0.317  80.929 116.213  0.00  0.00    -0.368 OA
BRANCH   7   8
ATOM      8  C   LIG d   1      -0.892  82.195 116.620  0.00  0.00     0.119 C 
BRANCH   8   9
ATOM      9  C   LIG d   1      -0.055  82.727 117.798  0.00  0.00     0.028 C 
ATOM     10  C   LIG d   1      -0.771  82.562 119.149  0.00  0.00     0.006 C 
ENDBRANCH   8   9
BRANCH   8  11
ATOM     11  C   LIG d   1      -2.307  82.010 117.178  0.00  0.00     0.028 C 
ATOM     12  C   LIG d   1      -3.400  82.401 116.171  0.00  0.00     0.006 C 
ENDBRANCH   8  11
ENDBRANCH   7   8
ENDBRANCH   1   7
BRANCH   6  13
ATOM     13  N   LIG d   1      -1.002  78.271 114.968  0.00  0.00    -0.311 N 
ATOM     14  C   LIG d   1      -1.790  77.348 115.517  0.00  0.00     0.210 C 
ATOM     15  C   LIG d   1      -1.080  76.053 115.925  0.00  0.00     0.109 C 
ATOM     16  O   LIG d   1      -3.014  77.466 115.676  0.00  0.00    -0.276 OA
ATOM     17  H   LIG d   1      -0.027  78.080 114.847  0.00  0.00     0.149 HD
ENDBRANCH   6  13
BRANCH   5  18
ATOM     18  N   LIG d   1      -3.051  78.723 112.746  0.00  0.00     0.381 N 
ATOM     19  H   LIG d   1      -3.124  78.024 113.458  0.00  0.00    -0.090 HD
ATOM     20  H   LIG d   1      -2.895  78.262 111.867  0.00  0.00    -0.090 HD
ATOM     21  H   LIG d   1      -3.892  79.255 112.706  0.00  0.00    -0.090 HD
ENDBRANCH   5  18
BRANCH   3  22
ATOM     22  C   LIG d   1      -1.248  83.124 112.180  0.00  0.00     0.382 C 
ATOM     23  O   LIG d   1      -1.037  84.242 112.707  0.00  0.00    -0.241 OA
ATOM     24  O   LIG d   1      -1.409  83.047 110.947  0.00  0.00    -0.241 OA
ENDBRANCH   3  22
TORSDOF 7
ENDMDL
MODEL 7
REMARK VINA RESULT:      -4.2      1.572      2.370
REMARK  7 active torsions:
REMARK  status: ('A' for Active; 'I' for Inactive)
REMARK    1  A    between atoms: C_2  and  C_3 
REMARK    2  A    between atoms: C_3  and  O_6 
REMARK    3  A    between atoms: C_3  and  C_4 
REMARK    4  A    between atoms: C_7  and  O_6 
REMARK    5  A    between atoms: C_9  and  C_10 
REMARK    6  A    between atoms: N_15  and  C_14 
REMARK    7  A    between atoms: N_20  and  C_19 
REMARK       I    between atoms: C_22  and  N_20 
ROOT
ATOM      1  C   LIG d   1      -0.165  81.102 113.733  0.00  0.00     0.161 C 
ATOM      2  C   LIG d   1       0.540  82.239 113.305  0.00  0.00     0.016 C 
ATOM      3  C   LIG d   1       0.785  82.536 111.944  0.00  0.00     0.038 C 
ATOM      4  C   LIG d   1       0.208  81.790 110.907  0.00  0.00     0.028 C 
ATOM      5  C   LIG d   1      -0.092  80.345 111.293  0.00  0.00    -0.047 C 
ATOM      6  C   LIG d   1      -0.898  80.336 112.612  0.00  0.00     0.091 C 
ENDROOT
BRANCH   1   7
ATOM      7  O   LIG d   1      -1.089  81.465 114.778  0.00  0.00    -0.368 OA
BRANCH   7   8
ATOM      8  C   LIG d   1      -0.571  81.418 116.131  0.00  0.00     0.119 C 
BRANCH   8   9
ATOM      9  C   LIG d   1      -1.237  80.223 116.840  0.00  0.00     0.028 C 
ATOM     10  C   LIG d   1      -0.241  79.092 117.146  0.00  0.00     0.006 C 
ENDBRANCH   8   9
BRANCH   8  11
ATOM     11  C   LIG d   1      -0.994  82.653 116.932  0.00  0.00     0.028 C 
ATOM     12  C   LIG d   1      -0.189  82.825 118.230  0.00  0.00     0.006 C 
ENDBRANCH   8  11
ENDBRANCH   7   8
ENDBRANCH   1   7
BRANCH   6  13
ATOM     13  N   LIG d   1      -1.161  78.959 113.106  0.00  0.00    -0.311 N 
ATOM     14  C   LIG d   1      -2.383  78.480 113.329  0.00  0.00     0.210 C 
ATOM     15  C   LIG d   1      -2.429  77.043 113.856  0.00  0.00     0.109 C 
ATOM     16  O   LIG d   1      -3.436  79.099 113.110  0.00  0.00    -0.276 OA
ATOM     17  H   LIG d   1      -0.364  78.377 113.280  0.00  0.00     0.149 HD
ENDBRANCH   6  13
BRANCH   5  18
ATOM     18  N   LIG d   1      -0.815  79.724 110.168  0.00  0.00     0.381 N 
ATOM     19  H   LIG d   1      -1.344  78.941 110.497  0.00  0.00    -0.090 HD
ATOM     20  H   LIG d   1      -0.146  79.392 109.495  0.00  0.00    -0.090 HD
ATOM     21  H   LIG d   1      -1.422  80.390 109.744  0.00  0.00    -0.090 HD
ENDBRANCH   5  18
BRANCH   3  22
ATOM     22  C   LIG d   1       1.650  83.568 111.612  0.00  0.00     0.382 C 
ATOM     23  O   LIG d   1       1.398  84.304 110.627  0.00  0.00    -0.241 OA
ATOM     24  O   LIG d   1       2.701  83.744 112.256  0.00  0.00    -0.241 OA
ENDBRANCH   3  22
TORSDOF 7
ENDMDL
MODEL 8
REMARK VINA RESULT:      -4.1      2.638      5.818
REMARK  7 active torsions:
REMARK  status: ('A' for Active; 'I' for Inactive)
REMARK    1  A    between atoms: C_2  and  C_3 
REMARK    2  A    between atoms: C_3  and  O_6 
REMARK    3  A    between atoms: C_3  and  C_4 
REMARK    4  A    between atoms: C_7  and  O_6 
REMARK    5  A    between atoms: C_9  and  C_10 
REMARK    6  A    between atoms: N_15  and  C_14 
REMARK    7  A    between atoms: N_20  and  C_19 
REMARK       I    between atoms: C_22  and  N_20 
ROOT
ATOM      1  C   LIG d   1      -1.190  80.572 113.176  0.00  0.00     0.161 C 
ATOM      2  C   LIG d   1      -1.574  79.239 112.956  0.00  0.00     0.016 C 
ATOM      3  C   LIG d   1      -2.253  78.455 113.917  0.00  0.00     0.038 C 
ATOM      4  C   LIG d   1      -2.730  79.003 115.117  0.00  0.00     0.028 C 
ATOM      5  C   LIG d   1      -1.925  80.207 115.596  0.00  0.00    -0.047 C 
ATOM      6  C   LIG d   1      -1.800  81.221 114.436  0.00  0.00     0.091 C 
ENDROOT
BRANCH   1   7
ATOM      7  O   LIG d   1      -1.487  81.365 112.010  0.00  0.00    -0.368 OA
BRANCH   7   8
ATOM      8  C   LIG d   1      -0.407  81.532 111.060  0.00  0.00     0.119 C 
BRANCH   8   9
ATOM      9  C   LIG d   1       0.917  81.372 111.832  0.00  0.00     0.028 C 
ATOM     10  C   LIG d   1       2.118  81.144 110.898  0.00  0.00     0.006 C 
ENDBRANCH   8   9
BRANCH   8  11
ATOM     11  C   LIG d   1      -0.376  82.954 110.493  0.00  0.00     0.028 C 
ATOM     12  C   LIG d   1      -0.546  84.031 111.577  0.00  0.00     0.006 C 
ENDBRANCH   8  11
ENDBRANCH   7   8
ENDBRANCH   1   7
BRANCH   6  13
ATOM     13  N   LIG d   1      -0.955  82.390 114.794  0.00  0.00    -0.311 N 
ATOM     14  C   LIG d   1      -1.443  83.614 114.991  0.00  0.00     0.210 C 
ATOM     15  C   LIG d   1      -0.396  84.679 115.332  0.00  0.00     0.109 C 
ATOM     16  O   LIG d   1      -2.646  83.911 114.948  0.00  0.00    -0.276 OA
ATOM     17  H   LIG d   1       0.029  82.232 114.880  0.00  0.00     0.149 HD
ENDBRANCH   6  13
BRANCH   5  18
ATOM     18  N   LIG d   1      -2.612  80.761 116.778  0.00  0.00     0.381 N 
ATOM     19  H   LIG d   1      -1.976  81.324 117.306  0.00  0.00    -0.090 HD
ATOM     20  H   LIG d   1      -2.921  80.003 117.360  0.00  0.00    -0.090 HD
ATOM     21  H   LIG d   1      -3.393  81.309 116.492  0.00  0.00    -0.090 HD
ENDBRANCH   5  18
BRANCH   3  22
ATOM     22  C   LIG d   1      -2.425  77.097 113.699  0.00  0.00     0.382 C 
ATOM     23  O   LIG d   1      -1.535  76.287 114.056  0.00  0.00    -0.241 OA
ATOM     24  O   LIG d   1      -3.438  76.675 113.111  0.00  0.00    -0.241 OA
ENDBRANCH   3  22
TORSDOF 7
ENDMDL
MODEL 9
REMARK VINA RESULT:      -4.0      2.370      5.075
REMARK  7 active torsions:
REMARK  status: ('A' for Active; 'I' for Inactive)
REMARK    1  A    between atoms: C_2  and  C_3 
REMARK    2  A    between atoms: C_3  and  O_6 
REMARK    3  A    between atoms: C_3  and  C_4 
REMARK    4  A    between atoms: C_7  and  O_6 
REMARK    5  A    between atoms: C_9  and  C_10 
REMARK    6  A    between atoms: N_15  and  C_14 
REMARK    7  A    between atoms: N_20  and  C_19 
REMARK       I    between atoms: C_22  and  N_20 
ROOT
ATOM      1  C   LIG d   1       0.495  81.505 113.338  0.00  0.00     0.161 C 
ATOM      2  C   LIG d   1      -0.526  80.944 114.123  0.00  0.00     0.016 C 
ATOM      3  C   LIG d   1      -1.541  80.111 113.600  0.00  0.00     0.038 C 
ATOM      4  C   LIG d   1      -1.517  79.656 112.273  0.00  0.00     0.028 C 
ATOM      5  C   LIG d   1      -0.790  80.601 111.323  0.00  0.00    -0.047 C 
ATOM      6  C   LIG d   1       0.601  80.930 111.909  0.00  0.00     0.091 C 
ENDROOT
BRANCH   1   7
ATOM      7  O   LIG d   1       1.758  81.386 114.021  0.00  0.00    -0.368 OA
BRANCH   7   8
ATOM      8  C   LIG d   1       1.758  81.736 115.427  0.00  0.00     0.119 C 
BRANCH   8   9
ATOM      9  C   LIG d   1       2.805  82.849 115.627  0.00  0.00     0.028 C 
ATOM     10  C   LIG d   1       2.462  84.126 114.842  0.00  0.00     0.006 C 
ENDBRANCH   8   9
BRANCH   8  11
ATOM     11  C   LIG d   1       2.238  80.567 116.292  0.00  0.00     0.028 C 
ATOM     12  C   LIG d   1       3.608  80.826 116.937  0.00  0.00     0.006 C 
ENDBRANCH   8  11
ENDBRANCH   7   8
ENDBRANCH   1   7
BRANCH   6  13
ATOM     13  N   LIG d   1       1.346  81.916 111.083  0.00  0.00    -0.311 N 
ATOM     14  C   LIG d   1       2.236  81.570 110.154  0.00  0.00     0.210 C 
ATOM     15  C   LIG d   1       2.905  82.742 109.430  0.00  0.00     0.109 C 
ATOM     16  O   LIG d   1       2.510  80.402 109.838  0.00  0.00    -0.276 OA
ATOM     17  H   LIG d   1       1.162  82.885 111.252  0.00  0.00     0.149 HD
ENDBRANCH   6  13
BRANCH   5  18
ATOM     18  N   LIG d   1      -0.720  79.940 110.005  0.00  0.00     0.381 N 
ATOM     19  H   LIG d   1      -1.455  79.266 109.925  0.00  0.00    -0.090 HD
ATOM     20  H   LIG d   1       0.159  79.459 109.929  0.00  0.00    -0.090 HD
ATOM     21  H   LIG d   1      -0.800  80.618 109.279  0.00  0.00    -0.090 HD
ENDBRANCH   5  18
BRANCH   3  22
ATOM     22  C   LIG d   1      -2.618  79.756 114.399  0.00  0.00     0.382 C 
ATOM     23  O   LIG d   1      -2.744  80.259 115.541  0.00  0.00    -0.241 OA
ATOM     24  O   LIG d   1      -3.440  78.905 114.009  0.00  0.00    -0.241 OA
ENDBRANCH   3  22
TORSDOF 7
ENDMDL
