MODEL 1
REMARK VINA RESULT:      -5.3      0.000      0.000
REMARK  7 active torsions:
REMARK  status: ('A' for Active; 'I' for Inactive)
REMARK    1  A    between atoms: C_2  and  C_3 
REMARK    2  A    between atoms: C_3  and  O_6 
REMARK    3  A    between atoms: C_3  and  C_4 
REMARK    4  A    between atoms: C_7  and  O_6 
REMARK    5  A    between atoms: C_9  and  C_10 
REMARK    6  A    between atoms: N_15  and  C_14 
REMARK    7  A    between atoms: N_20  and  C_19 
REMARK       I    between atoms: C_22  and  N_20 
ROOT
ATOM      1  C   LIG d   1       1.469  81.194 112.866  0.00  0.00     0.161 C 
ATOM      2  C   LIG d   1       2.609  81.855 112.379  0.00  0.00     0.016 C 
ATOM      3  C   LIG d   1       2.783  82.206 111.020  0.00  0.00     0.038 C 
ATOM      4  C   LIG d   1       1.756  82.052 110.077  0.00  0.00     0.028 C 
ATOM      5  C   LIG d   1       0.782  80.931 110.420  0.00  0.00    -0.047 C 
ATOM      6  C   LIG d   1       0.291  81.119 111.873  0.00  0.00     0.091 C 
ENDROOT
BRANCH   1   7
ATOM      7  O   LIG d   1       1.044  81.801 114.103  0.00  0.00    -0.368 OA
BRANCH   7   8
ATOM      8  C   LIG d   1       2.099  82.229 114.999  0.00  0.00     0.119 C 
BRANCH   8   9
ATOM      9  C   LIG d   1       2.163  81.215 116.157  0.00  0.00     0.028 C 
ATOM     10  C   LIG d   1       3.506  80.468 116.210  0.00  0.00     0.006 C 
ENDBRANCH   8   9
BRANCH   8  11
ATOM     11  C   LIG d   1       1.764  83.572 115.653  0.00  0.00     0.028 C 
ATOM     12  C   LIG d   1       1.475  84.679 114.627  0.00  0.00     0.006 C 
ENDBRANCH   8  11
ENDBRANCH   7   8
ENDBRANCH   1   7
BRANCH   6  13
ATOM     13  N   LIG d   1      -0.602  80.016 112.317  0.00  0.00    -0.311 N 
ATOM     14  C   LIG d   1      -1.928  80.123 112.369  0.00  0.00     0.210 C 
ATOM     15  C   LIG d   1      -2.658  78.874 112.875  0.00  0.00     0.109 C 
ATOM     16  O   LIG d   1      -2.572  81.122 112.013  0.00  0.00    -0.276 OA
ATOM     17  H   LIG d   1      -0.165  79.159 112.594  0.00  0.00     0.149 HD
ENDBRANCH   6  13
BRANCH   5  18
ATOM     18  N   LIG d   1      -0.312  80.972 109.430  0.00  0.00     0.381 N 
ATOM     19  H   LIG d   1       0.053  81.225 108.533  0.00  0.00    -0.090 HD
ATOM     20  H   LIG d   1      -0.976  81.672 109.709  0.00  0.00    -0.090 HD
ATOM     21  H   LIG d   1      -0.758  80.083 109.377  0.00  0.00    -0.090 HD
ENDBRANCH   5  18
BRANCH   3  22
ATOM     22  C   LIG d   1       4.012  82.679 110.585  0.00  0.00     0.382 C 
ATOM     23  O   LIG d   1       4.605  83.574 111.235  0.00  0.00    -0.241 OA
ATOM     24  O   LIG d   1       4.513  82.255 109.527  0.00  0.00    -0.241 OA
ENDBRANCH   3  22
TORSDOF 7
ENDMDL
MODEL 2
REMARK VINA RESULT:      -5.1      1.671      4.823
REMARK  7 active torsions:
REMARK  status: ('A' for Active; 'I' for Inactive)
REMARK    1  A    between atoms: C_2  and  C_3 
REMARK    2  A    between atoms: C_3  and  O_6 
REMARK    3  A    between atoms: C_3  and  C_4 
REMARK    4  A    between atoms: C_7  and  O_6 
REMARK    5  A    between atoms: C_9  and  C_10 
REMARK    6  A    between atoms: N_15  and  C_14 
REMARK    7  A    between atoms: N_20  and  C_19 
REMARK       I    between atoms: C_22  and  N_20 
ROOT
ATOM      1  C   LIG d   1       0.382  83.008 111.934  0.00  0.00     0.161 C 
ATOM      2  C   LIG d   1      -0.823  82.450 112.392  0.00  0.00     0.016 C 
ATOM      3  C   LIG d   1      -1.242  81.137 112.075  0.00  0.00     0.038 C 
ATOM      4  C   LIG d   1      -0.407  80.235 111.399  0.00  0.00     0.028 C 
ATOM      5  C   LIG d   1       0.605  80.916 110.484  0.00  0.00    -0.047 C 
ATOM      6  C   LIG d   1       1.357  82.002 111.288  0.00  0.00     0.091 C 
ENDROOT
BRANCH   1   7
ATOM      7  O   LIG d   1       1.032  83.716 113.009  0.00  0.00    -0.368 OA
BRANCH   7   8
ATOM      8  C   LIG d   1       2.223  83.095 113.552  0.00  0.00     0.119 C 
BRANCH   8   9
ATOM      9  C   LIG d   1       1.892  82.633 114.985  0.00  0.00     0.028 C 
ATOM     10  C   LIG d   1       1.813  81.102 115.105  0.00  0.00     0.006 C 
ENDBRANCH   8   9
BRANCH   8  11
ATOM     11  C   LIG d   1       3.360  84.109 113.706  0.00  0.00     0.028 C 
ATOM     12  C   LIG d   1       3.758  84.341 115.172  0.00  0.00     0.006 C 
ENDBRANCH   8  11
ENDBRANCH   7   8
ENDBRANCH   1   7
BRANCH   6  13
ATOM     13  N   LIG d   1       2.308  82.774 110.446  0.00  0.00    -0.311 N 
ATOM     14  C   LIG d   1       3.600  82.470 110.333  0.00  0.00     0.210 C 
ATOM     15  C   LIG d   1       4.408  83.407 109.430  0.00  0.00     0.109 C 
ATOM     16  O   LIG d   1       4.147  81.494 110.869  0.00  0.00    -0.276 OA
ATOM     17  H   LIG d   1       1.942  83.563 109.952  0.00  0.00     0.149 HD
ENDBRANCH   6  13
BRANCH   5  18
ATOM     18  N   LIG d   1       1.498  79.870 109.951  0.00  0.00     0.381 N 
ATOM     19  H   LIG d   1       1.637  79.159 110.641  0.00  0.00    -0.090 HD
ATOM     20  H   LIG d   1       2.390  80.281 109.738  0.00  0.00    -0.090 HD
ATOM     21  H   LIG d   1       1.103  79.472 109.127  0.00  0.00    -0.090 HD
ENDBRANCH   5  18
BRANCH   3  22
ATOM     22  C   LIG d   1      -2.526  80.729 112.401  0.00  0.00     0.382 C 
ATOM     23  O   LIG d   1      -2.814  79.507 112.403  0.00  0.00    -0.241 OA
ATOM     24  O   LIG d   1      -3.412  81.568 112.651  0.00  0.00    -0.241 OA
ENDBRANCH   3  22
TORSDOF 7
ENDMDL
MODEL 3
REMARK VINA RESULT:      -4.5      1.649      4.590
REMARK  7 active torsions:
REMARK  status: ('A' for Active; 'I' for Inactive)
REMARK    1  A    between atoms: C_2  and  C_3 
REMARK    2  A    between atoms: C_3  and  O_6 
REMARK    3  A    between atoms: C_3  and  C_4 
REMARK    4  A    between atoms: C_7  and  O_6 
REMARK    5  A    between atoms: C_9  and  C_10 
REMARK    6  A    between atoms: N_15  and  C_14 
REMARK    7  A    between atoms: N_20  and  C_19 
REMARK       I    between atoms: C_22  and  N_20 
ROOT
ATOM      1  C   LIG d   1       1.246  81.604 113.171  0.00  0.00     0.161 C 
ATOM      2  C   LIG d   1       0.294  80.649 113.562  0.00  0.00     0.016 C 
ATOM      3  C   LIG d   1      -0.618  80.047 112.664  0.00  0.00     0.038 C 
ATOM      4  C   LIG d   1      -0.538  80.250 111.278  0.00  0.00     0.028 C 
ATOM      5  C   LIG d   1       0.080  81.591 110.897  0.00  0.00    -0.047 C 
ATOM      6  C   LIG d   1       1.423  81.756 111.645  0.00  0.00     0.091 C 
ENDROOT
BRANCH   1   7
ATOM      7  O   LIG d   1       2.513  81.315 113.795  0.00  0.00    -0.368 OA
BRANCH   7   8
ATOM      8  C   LIG d   1       2.861  82.133 114.939  0.00  0.00     0.119 C 
BRANCH   8   9
ATOM      9  C   LIG d   1       2.413  81.374 116.204  0.00  0.00     0.028 C 
ATOM     10  C   LIG d   1       3.309  80.161 116.509  0.00  0.00     0.006 C 
ENDBRANCH   8   9
BRANCH   8  11
ATOM     11  C   LIG d   1       2.068  83.443 114.950  0.00  0.00     0.028 C 
ATOM     12  C   LIG d   1       2.925  84.662 114.575  0.00  0.00     0.006 C 
ENDBRANCH   8  11
ENDBRANCH   7   8
ENDBRANCH   1   7
BRANCH   6  13
ATOM     13  N   LIG d   1       2.053  83.078 111.394  0.00  0.00    -0.311 N 
ATOM     14  C   LIG d   1       3.340  83.229 111.085  0.00  0.00     0.210 C 
ATOM     15  C   LIG d   1       3.791  84.680 110.887  0.00  0.00     0.109 C 
ATOM     16  O   LIG d   1       4.144  82.298 110.925  0.00  0.00    -0.276 OA
ATOM     17  H   LIG d   1       1.467  83.885 111.472  0.00  0.00     0.149 HD
ENDBRANCH   6  13
BRANCH   5  18
ATOM     18  N   LIG d   1       0.229  81.613 109.430  0.00  0.00     0.381 N 
ATOM     19  H   LIG d   1       0.956  82.250 109.173  0.00  0.00    -0.090 HD
ATOM     20  H   LIG d   1      -0.631  81.932 109.020  0.00  0.00    -0.090 HD
ATOM     21  H   LIG d   1       0.445  80.699 109.096  0.00  0.00    -0.090 HD
ENDBRANCH   5  18
BRANCH   3  22
ATOM     22  C   LIG d   1      -1.650  79.263 113.156  0.00  0.00     0.382 C 
ATOM     23  O   LIG d   1      -2.643  79.803 113.701  0.00  0.00    -0.241 OA
ATOM     24  O   LIG d   1      -1.580  78.020 113.102  0.00  0.00    -0.241 OA
ENDBRANCH   3  22
TORSDOF 7
ENDMDL
MODEL 4
REMARK VINA RESULT:      -4.4      4.928      7.345
REMARK  7 active torsions:
REMARK  status: ('A' for Active; 'I' for Inactive)
REMARK    1  A    between atoms: C_2  and  C_3 
REMARK    2  A    between atoms: C_3  and  O_6 
REMARK    3  A    between atoms: C_3  and  C_4 
REMARK    4  A    between atoms: C_7  and  O_6 
REMARK    5  A    between atoms: C_9  and  C_10 
REMARK    6  A    between atoms: N_15  and  C_14 
REMARK    7  A    between atoms: N_20  and  C_19 
REMARK       I    between atoms: C_22  and  N_20 
ROOT
ATOM      1  C   LIG d   1      -2.325  76.876 115.155  0.00  0.00     0.161 C 
ATOM      2  C   LIG d   1      -2.439  77.076 113.769  0.00  0.00     0.016 C 
ATOM      3  C   LIG d   1      -1.803  78.134 113.080  0.00  0.00     0.038 C 
ATOM      4  C   LIG d   1      -0.882  78.983 113.712  0.00  0.00     0.028 C 
ATOM      5  C   LIG d   1      -1.125  79.131 115.210  0.00  0.00    -0.047 C 
ATOM      6  C   LIG d   1      -1.236  77.725 115.843  0.00  0.00     0.091 C 
ENDROOT
BRANCH   1   7
ATOM      7  O   LIG d   1      -2.120  75.477 115.432  0.00  0.00    -0.368 OA
BRANCH   7   8
ATOM      8  C   LIG d   1      -0.766  75.087 115.769  0.00  0.00     0.119 C 
BRANCH   8   9
ATOM      9  C   LIG d   1      -0.249  74.180 114.635  0.00  0.00     0.028 C 
ATOM     10  C   LIG d   1       0.656  74.935 113.647  0.00  0.00     0.006 C 
ENDBRANCH   8   9
BRANCH   8  11
ATOM     11  C   LIG d   1      -0.734  74.217 117.029  0.00  0.00     0.028 C 
ATOM     12  C   LIG d   1      -2.026  74.318 117.855  0.00  0.00     0.006 C 
ENDBRANCH   8  11
ENDBRANCH   7   8
ENDBRANCH   1   7
BRANCH   6  13
ATOM     13  N   LIG d   1      -1.558  77.780 117.293  0.00  0.00    -0.311 N 
ATOM     14  C   LIG d   1      -0.632  77.764 118.250  0.00  0.00     0.210 C 
ATOM     15  C   LIG d   1      -1.180  77.808 119.680  0.00  0.00     0.109 C 
ATOM     16  O   LIG d   1       0.592  77.750 118.050  0.00  0.00    -0.276 OA
ATOM     17  H   LIG d   1      -2.526  77.825 117.544  0.00  0.00     0.149 HD
ENDBRANCH   6  13
BRANCH   5  18
ATOM     18  N   LIG d   1      -0.015  79.929 115.765  0.00  0.00     0.381 N 
ATOM     19  H   LIG d   1       0.797  79.353 115.868  0.00  0.00    -0.090 HD
ATOM     20  H   LIG d   1      -0.279  80.267 116.674  0.00  0.00    -0.090 HD
ATOM     21  H   LIG d   1       0.187  80.697 115.163  0.00  0.00    -0.090 HD
ENDBRANCH   5  18
BRANCH   3  22
ATOM     22  C   LIG d   1      -2.118  78.377 111.752  0.00  0.00     0.382 C 
ATOM     23  O   LIG d   1      -2.756  77.521 111.092  0.00  0.00    -0.241 OA
ATOM     24  O   LIG d   1      -1.734  79.421 111.192  0.00  0.00    -0.241 OA
ENDBRANCH   3  22
TORSDOF 7
ENDMDL
MODEL 5
REMARK VINA RESULT:      -4.1      5.033      7.418
REMARK  7 active torsions:
REMARK  status: ('A' for Active; 'I' for Inactive)
REMARK    1  A    between atoms: C_2  and  C_3 
REMARK    2  A    between atoms: C_3  and  O_6 
REMARK    3  A    between atoms: C_3  and  C_4 
REMARK    4  A    between atoms: C_7  and  O_6 
REMARK    5  A    between atoms: C_9  and  C_10 
REMARK    6  A    between atoms: N_15  and  C_14 
REMARK    7  A    between atoms: N_20  and  C_19 
REMARK       I    between atoms: C_22  and  N_20 
ROOT
ATOM      1  C   LIG d   1      -1.847  78.132 115.982  0.00  0.00     0.161 C 
ATOM      2  C   LIG d   1      -2.078  77.425 117.174  0.00  0.00     0.016 C 
ATOM      3  C   LIG d   1      -1.532  76.148 117.439  0.00  0.00     0.038 C 
ATOM      4  C   LIG d   1      -0.589  75.553 116.587  0.00  0.00     0.028 C 
ATOM      5  C   LIG d   1      -0.716  76.003 115.136  0.00  0.00    -0.047 C 
ATOM      6  C   LIG d   1      -0.733  77.548 115.089  0.00  0.00     0.091 C 
ENDROOT
BRANCH   1   7
ATOM      7  O   LIG d   1      -1.577  79.516 116.280  0.00  0.00    -0.368 OA
BRANCH   7   8
ATOM      8  C   LIG d   1      -0.872  79.776 117.519  0.00  0.00     0.119 C 
BRANCH   8   9
ATOM      9  C   LIG d   1      -1.702  80.798 118.319  0.00  0.00     0.028 C 
ATOM     10  C   LIG d   1      -0.875  82.026 118.737  0.00  0.00     0.006 C 
ENDBRANCH   8   9
BRANCH   8  11
ATOM     11  C   LIG d   1       0.475  80.459 117.261  0.00  0.00     0.028 C 
ATOM     12  C   LIG d   1       1.630  79.458 117.101  0.00  0.00     0.006 C 
ENDBRANCH   8  11
ENDBRANCH   7   8
ENDBRANCH   1   7
BRANCH   6  13
ATOM     13  N   LIG d   1      -0.938  78.072 113.714  0.00  0.00    -0.311 N 
ATOM     14  C   LIG d   1      -1.941  77.689 112.926  0.00  0.00     0.210 C 
ATOM     15  C   LIG d   1      -1.957  78.337 111.538  0.00  0.00     0.109 C 
ATOM     16  O   LIG d   1      -2.838  76.898 113.256  0.00  0.00    -0.276 OA
ATOM     17  H   LIG d   1      -0.275  78.741 113.376  0.00  0.00     0.149 HD
ENDBRANCH   6  13
BRANCH   5  18
ATOM     18  N   LIG d   1       0.411  75.414 114.387  0.00  0.00     0.381 N 
ATOM     19  H   LIG d   1       1.014  76.141 114.056  0.00  0.00    -0.090 HD
ATOM     20  H   LIG d   1       0.048  74.919 113.591  0.00  0.00    -0.090 HD
ATOM     21  H   LIG d   1       0.920  74.790 114.972  0.00  0.00    -0.090 HD
ENDBRANCH   5  18
BRANCH   3  22
ATOM     22  C   LIG d   1      -1.960  75.434 118.548  0.00  0.00     0.382 C 
ATOM     23  O   LIG d   1      -2.002  74.181 118.510  0.00  0.00    -0.241 OA
ATOM     24  O   LIG d   1      -2.345  76.030 119.572  0.00  0.00    -0.241 OA
ENDBRANCH   3  22
TORSDOF 7
ENDMDL
MODEL 6
REMARK VINA RESULT:      -4.1      3.796      7.547
REMARK  7 active torsions:
REMARK  status: ('A' for Active; 'I' for Inactive)
REMARK    1  A    between atoms: C_2  and  C_3 
REMARK    2  A    between atoms: C_3  and  O_6 
REMARK    3  A    between atoms: C_3  and  C_4 
REMARK    4  A    between atoms: C_7  and  O_6 
REMARK    5  A    between atoms: C_9  and  C_10 
REMARK    6  A    between atoms: N_15  and  C_14 
REMARK    7  A    between atoms: N_20  and  C_19 
REMARK       I    between atoms: C_22  and  N_20 
ROOT
ATOM      1  C   LIG d   1      -1.364  78.489 114.566  0.00  0.00     0.161 C 
ATOM      2  C   LIG d   1      -2.143  77.345 114.803  0.00  0.00     0.016 C 
ATOM      3  C   LIG d   1      -1.977  76.511 115.932  0.00  0.00     0.038 C 
ATOM      4  C   LIG d   1      -1.114  76.851 116.985  0.00  0.00     0.028 C 
ATOM      5  C   LIG d   1       0.054  77.729 116.551  0.00  0.00    -0.047 C 
ATOM      6  C   LIG d   1      -0.494  78.938 115.758  0.00  0.00     0.091 C 
ENDROOT
BRANCH   1   7
ATOM      7  O   LIG d   1      -2.207  79.572 114.125  0.00  0.00    -0.368 OA
BRANCH   7   8
ATOM      8  C   LIG d   1      -2.235  79.819 112.698  0.00  0.00     0.119 C 
BRANCH   8   9
ATOM      9  C   LIG d   1      -2.847  78.575 112.025  0.00  0.00     0.028 C 
ATOM     10  C   LIG d   1      -1.950  78.009 110.910  0.00  0.00     0.006 C 
ENDBRANCH   8   9
BRANCH   8  11
ATOM     11  C   LIG d   1      -0.819  79.934 112.125  0.00  0.00     0.028 C 
ATOM     12  C   LIG d   1      -0.434  81.381 111.776  0.00  0.00     0.006 C 
ENDBRANCH   8  11
ENDBRANCH   7   8
ENDBRANCH   1   7
BRANCH   6  13
ATOM     13  N   LIG d   1       0.590  79.804 115.224  0.00  0.00    -0.311 N 
ATOM     14  C   LIG d   1       1.057  80.874 115.866  0.00  0.00     0.210 C 
ATOM     15  C   LIG d   1       2.161  81.638 115.129  0.00  0.00     0.109 C 
ATOM     16  O   LIG d   1       0.684  81.243 116.989  0.00  0.00    -0.276 OA
ATOM     17  H   LIG d   1       0.971  79.558 114.332  0.00  0.00     0.149 HD
ENDBRANCH   6  13
BRANCH   5  18
ATOM     18  N   LIG d   1       0.793  78.121 117.766  0.00  0.00     0.381 N 
ATOM     19  H   LIG d   1       1.665  77.632 117.805  0.00  0.00    -0.090 HD
ATOM     20  H   LIG d   1       0.251  77.866 118.572  0.00  0.00    -0.090 HD
ATOM     21  H   LIG d   1       0.955  79.104 117.764  0.00  0.00    -0.090 HD
ENDBRANCH   5  18
BRANCH   3  22
ATOM     22  C   LIG d   1      -2.650  75.300 115.997  0.00  0.00     0.382 C 
ATOM     23  O   LIG d   1      -3.440  74.972 115.080  0.00  0.00    -0.241 OA
ATOM     24  O   LIG d   1      -2.510  74.552 116.984  0.00  0.00    -0.241 OA
ENDBRANCH   3  22
TORSDOF 7
ENDMDL
MODEL 7
REMARK VINA RESULT:      -4.0      6.316      7.927
REMARK  7 active torsions:
REMARK  status: ('A' for Active; 'I' for Inactive)
REMARK    1  A    between atoms: C_2  and  C_3 
REMARK    2  A    between atoms: C_3  and  O_6 
REMARK    3  A    between atoms: C_3  and  C_4 
REMARK    4  A    between atoms: C_7  and  O_6 
REMARK    5  A    between atoms: C_9  and  C_10 
REMARK    6  A    between atoms: N_15  and  C_14 
REMARK    7  A    between atoms: N_20  and  C_19 
REMARK       I    between atoms: C_22  and  N_20 
ROOT
ATOM      1  C   LIG d   1      -0.692  77.998 116.992  0.00  0.00     0.161 C 
ATOM      2  C   LIG d   1      -1.514  78.337 115.904  0.00  0.00     0.016 C 
ATOM      3  C   LIG d   1      -1.967  77.398 114.949  0.00  0.00     0.038 C 
ATOM      4  C   LIG d   1      -1.751  76.020 115.103  0.00  0.00     0.028 C 
ATOM      5  C   LIG d   1      -0.501  75.690 115.912  0.00  0.00    -0.047 C 
ATOM      6  C   LIG d   1      -0.538  76.483 117.238  0.00  0.00     0.091 C 
ENDROOT
BRANCH   1   7
ATOM      7  O   LIG d   1      -1.165  78.654 118.185  0.00  0.00    -0.368 OA
BRANCH   7   8
ATOM      8  C   LIG d   1      -2.210  79.640 117.998  0.00  0.00     0.119 C 
BRANCH   8   9
ATOM      9  C   LIG d   1      -1.680  80.984 118.536  0.00  0.00     0.028 C 
ATOM     10  C   LIG d   1      -2.719  81.722 119.397  0.00  0.00     0.006 C 
ENDBRANCH   8   9
BRANCH   8  11
ATOM     11  C   LIG d   1      -3.440  79.318 118.852  0.00  0.00     0.028 C 
ATOM     12  C   LIG d   1      -3.440  77.873 119.375  0.00  0.00     0.006 C 
ENDBRANCH   8  11
ENDBRANCH   7   8
ENDBRANCH   1   7
BRANCH   6  13
ATOM     13  N   LIG d   1       0.689  76.282 118.053  0.00  0.00    -0.311 N 
ATOM     14  C   LIG d   1       0.778  75.390 119.037  0.00  0.00     0.210 C 
ATOM     15  C   LIG d   1       2.127  75.360 119.763  0.00  0.00     0.109 C 
ATOM     16  O   LIG d   1      -0.121  74.599 119.358  0.00  0.00    -0.276 OA
ATOM     17  H   LIG d   1       1.478  76.862 117.840  0.00  0.00     0.149 HD
ENDBRANCH   6  13
BRANCH   5  18
ATOM     18  N   LIG d   1      -0.473  74.229 116.112  0.00  0.00     0.381 N 
ATOM     19  H   LIG d   1       0.316  73.979 116.674  0.00  0.00    -0.090 HD
ATOM     20  H   LIG d   1      -0.377  73.780 115.218  0.00  0.00    -0.090 HD
ATOM     21  H   LIG d   1      -1.313  73.929 116.554  0.00  0.00    -0.090 HD
ENDBRANCH   5  18
BRANCH   3  22
ATOM     22  C   LIG d   1      -2.611  77.839 113.803  0.00  0.00     0.382 C 
ATOM     23  O   LIG d   1      -3.070  79.006 113.752  0.00  0.00    -0.241 OA
ATOM     24  O   LIG d   1      -2.778  77.071 112.837  0.00  0.00    -0.241 OA
ENDBRANCH   3  22
TORSDOF 7
ENDMDL
MODEL 8
REMARK VINA RESULT:      -4.0      1.375      2.093
REMARK  7 active torsions:
REMARK  status: ('A' for Active; 'I' for Inactive)
REMARK    1  A    between atoms: C_2  and  C_3 
REMARK    2  A    between atoms: C_3  and  O_6 
REMARK    3  A    between atoms: C_3  and  C_4 
REMARK    4  A    between atoms: C_7  and  O_6 
REMARK    5  A    between atoms: C_9  and  C_10 
REMARK    6  A    between atoms: N_15  and  C_14 
REMARK    7  A    between atoms: N_20  and  C_19 
REMARK       I    between atoms: C_22  and  N_20 
ROOT
ATOM      1  C   LIG d   1       1.774  81.610 113.845  0.00  0.00     0.161 C 
ATOM      2  C   LIG d   1       2.638  82.464 113.139  0.00  0.00     0.016 C 
ATOM      3  C   LIG d   1       2.597  82.625 111.735  0.00  0.00     0.038 C 
ATOM      4  C   LIG d   1       1.582  82.054 110.953  0.00  0.00     0.028 C 
ATOM      5  C   LIG d   1       0.994  80.784 111.557  0.00  0.00    -0.047 C 
ATOM      6  C   LIG d   1       0.589  81.065 113.022  0.00  0.00     0.091 C 
ENDROOT
BRANCH   1   7
ATOM      7  O   LIG d   1       1.297  82.272 115.033  0.00  0.00    -0.368 OA
BRANCH   7   8
ATOM      8  C   LIG d   1       1.779  81.746 116.294  0.00  0.00     0.119 C 
BRANCH   8   9
ATOM      9  C   LIG d   1       2.709  82.807 116.913  0.00  0.00     0.028 C 
ATOM     10  C   LIG d   1       4.197  82.490 116.683  0.00  0.00     0.006 C 
ENDBRANCH   8   9
BRANCH   8  11
ATOM     11  C   LIG d   1       2.659  80.510 116.082  0.00  0.00     0.028 C 
ATOM     12  C   LIG d   1       2.074  79.245 116.728  0.00  0.00     0.006 C 
ENDBRANCH   8  11
ENDBRANCH   7   8
ENDBRANCH   1   7
BRANCH   6  13
ATOM     13  N   LIG d   1       0.082  79.851 113.713  0.00  0.00    -0.311 N 
ATOM     14  C   LIG d   1      -1.210  79.531 113.781  0.00  0.00     0.210 C 
ATOM     15  C   LIG d   1      -1.518  78.248 114.558  0.00  0.00     0.109 C 
ATOM     16  O   LIG d   1      -2.126  80.172 113.244  0.00  0.00    -0.276 OA
ATOM     17  H   LIG d   1       0.760  79.258 114.150  0.00  0.00     0.149 HD
ENDBRANCH   6  13
BRANCH   5  18
ATOM     18  N   LIG d   1      -0.143  80.373 110.712  0.00  0.00     0.381 N 
ATOM     19  H   LIG d   1      -0.939  80.945 110.913  0.00  0.00    -0.090 HD
ATOM     20  H   LIG d   1      -0.378  79.419 110.924  0.00  0.00    -0.090 HD
ATOM     21  H   LIG d   1       0.100  80.457 109.749  0.00  0.00    -0.090 HD
ENDBRANCH   5  18
BRANCH   3  22
ATOM     22  C   LIG d   1       3.603  83.332 111.095  0.00  0.00     0.382 C 
ATOM     23  O   LIG d   1       4.567  82.720 110.576  0.00  0.00    -0.241 OA
ATOM     24  O   LIG d   1       3.581  84.577 111.068  0.00  0.00    -0.241 OA
ENDBRANCH   3  22
TORSDOF 7
ENDMDL
MODEL 9
REMARK VINA RESULT:      -3.9      5.155      7.727
REMARK  7 active torsions:
REMARK  status: ('A' for Active; 'I' for Inactive)
REMARK    1  A    between atoms: C_2  and  C_3 
REMARK    2  A    between atoms: C_3  and  O_6 
REMARK    3  A    between atoms: C_3  and  C_4 
REMARK    4  A    between atoms: C_7  and  O_6 
REMARK    5  A    between atoms: C_9  and  C_10 
REMARK    6  A    between atoms: N_15  and  C_14 
REMARK    7  A    between atoms: N_20  and  C_19 
REMARK       I    between atoms: C_22  and  N_20 
ROOT
ATOM      1  C   LIG d   1      -1.671  77.137 116.116  0.00  0.00     0.161 C 
ATOM      2  C   LIG d   1      -2.233  77.122 114.829  0.00  0.00     0.016 C 
ATOM      3  C   LIG d   1      -1.859  78.024 113.806  0.00  0.00     0.038 C 
ATOM      4  C   LIG d   1      -0.783  78.911 113.957  0.00  0.00     0.028 C 
ATOM      5  C   LIG d   1      -0.522  79.306 115.406  0.00  0.00    -0.047 C 
ATOM      6  C   LIG d   1      -0.418  78.025 116.264  0.00  0.00     0.091 C 
ENDROOT
BRANCH   1   7
ATOM      7  O   LIG d   1      -1.384  75.790 116.540  0.00  0.00    -0.368 OA
BRANCH   7   8
ATOM      8  C   LIG d   1      -2.358  75.177 117.420  0.00  0.00     0.119 C 
BRANCH   8   9
ATOM      9  C   LIG d   1      -2.955  76.293 118.298  0.00  0.00     0.028 C 
ATOM     10  C   LIG d   1      -2.452  76.229 119.751  0.00  0.00     0.006 C 
ENDBRANCH   8   9
BRANCH   8  11
ATOM     11  C   LIG d   1      -1.692  74.204 118.397  0.00  0.00     0.028 C 
ATOM     12  C   LIG d   1      -0.161  74.180 118.263  0.00  0.00     0.006 C 
ENDBRANCH   8  11
ENDBRANCH   7   8
ENDBRANCH   1   7
BRANCH   6  13
ATOM     13  N   LIG d   1      -0.247  78.323 117.710  0.00  0.00    -0.311 N 
ATOM     14  C   LIG d   1       0.773  77.869 118.437  0.00  0.00     0.210 C 
ATOM     15  C   LIG d   1       0.748  78.278 119.913  0.00  0.00     0.109 C 
ATOM     16  O   LIG d   1       1.713  77.193 117.992  0.00  0.00    -0.276 OA
ATOM     17  H   LIG d   1      -0.947  78.891 118.145  0.00  0.00     0.149 HD
ENDBRANCH   6  13
BRANCH   5  18
ATOM     18  N   LIG d   1       0.707  80.121 115.432  0.00  0.00     0.381 N 
ATOM     19  H   LIG d   1       0.665  80.774 116.189  0.00  0.00    -0.090 HD
ATOM     20  H   LIG d   1       0.773  80.638 114.572  0.00  0.00    -0.090 HD
ATOM     21  H   LIG d   1       1.504  79.532 115.535  0.00  0.00    -0.090 HD
ENDBRANCH   5  18
BRANCH   3  22
ATOM     22  C   LIG d   1      -2.592  78.072 112.630  0.00  0.00     0.382 C 
ATOM     23  O   LIG d   1      -2.489  77.146 111.789  0.00  0.00    -0.241 OA
ATOM     24  O   LIG d   1      -3.321  79.050 112.379  0.00  0.00    -0.241 OA
ENDBRANCH   3  22
TORSDOF 7
ENDMDL
