MODEL 1
REMARK VINA RESULT:      -5.6      0.000      0.000
REMARK  7 active torsions:
REMARK  status: ('A' for Active; 'I' for Inactive)
REMARK    1  A    between atoms: C_2  and  C_3 
REMARK    2  A    between atoms: C_3  and  O_6 
REMARK    3  A    between atoms: C_3  and  C_4 
REMARK    4  A    between atoms: C_7  and  O_6 
REMARK    5  A    between atoms: C_9  and  C_10 
REMARK    6  A    between atoms: N_15  and  C_14 
REMARK    7  A    between atoms: N_20  and  C_19 
REMARK       I    between atoms: C_22  and  N_20 
ROOT
ATOM      1  C   LIG d   1       1.287  81.254 112.546  0.00  0.00     0.161 C 
ATOM      2  C   LIG d   1       2.435  81.638 111.833  0.00  0.00     0.016 C 
ATOM      3  C   LIG d   1       2.567  81.492 110.433  0.00  0.00     0.038 C 
ATOM      4  C   LIG d   1       1.492  81.090 109.626  0.00  0.00     0.028 C 
ATOM      5  C   LIG d   1       0.480  80.214 110.356  0.00  0.00    -0.047 C 
ATOM      6  C   LIG d   1       0.064  80.917 111.669  0.00  0.00     0.091 C 
ENDROOT
BRANCH   1   7
ATOM      7  O   LIG d   1       0.948  82.272 113.509  0.00  0.00    -0.368 OA
BRANCH   7   8
ATOM      8  C   LIG d   1       1.766  83.467 113.490  0.00  0.00     0.119 C 
BRANCH   8   9
ATOM      9  C   LIG d   1       2.096  83.826 114.951  0.00  0.00     0.028 C 
ATOM     10  C   LIG d   1       2.543  82.604 115.770  0.00  0.00     0.006 C 
ENDBRANCH   8   9
BRANCH   8  11
ATOM     11  C   LIG d   1       0.988  84.667 112.942  0.00  0.00     0.028 C 
ATOM     12  C   LIG d   1      -0.517  84.387 112.802  0.00  0.00     0.006 C 
ENDBRANCH   8  11
ENDBRANCH   7   8
ENDBRANCH   1   7
BRANCH   6  13
ATOM     13  N   LIG d   1      -0.862  80.089 112.486  0.00  0.00    -0.311 N 
ATOM     14  C   LIG d   1      -2.080  80.490 112.846  0.00  0.00     0.210 C 
ATOM     15  C   LIG d   1      -2.861  79.492 113.705  0.00  0.00     0.109 C 
ATOM     16  O   LIG d   1      -2.599  81.565 112.509  0.00  0.00    -0.276 OA
ATOM     17  H   LIG d   1      -0.533  79.190 112.777  0.00  0.00     0.149 HD
ENDBRANCH   6  13
BRANCH   5  18
ATOM     18  N   LIG d   1      -0.652  79.983 109.440  0.00  0.00     0.381 N 
ATOM     19  H   LIG d   1      -1.513  80.188 109.907  0.00  0.00    -0.090 HD
ATOM     20  H   LIG d   1      -0.662  79.014 109.172  0.00  0.00    -0.090 HD
ATOM     21  H   LIG d   1      -0.560  80.558 108.631  0.00  0.00    -0.090 HD
ENDBRANCH   5  18
BRANCH   3  22
ATOM     22  C   LIG d   1       3.796  81.713 109.832  0.00  0.00     0.382 C 
ATOM     23  O   LIG d   1       4.200  82.885 109.642  0.00  0.00    -0.241 OA
ATOM     24  O   LIG d   1       4.487  80.754 109.436  0.00  0.00    -0.241 OA
ENDBRANCH   3  22
TORSDOF 7
ENDMDL
MODEL 2
REMARK VINA RESULT:      -5.0      1.315      1.732
REMARK  7 active torsions:
REMARK  status: ('A' for Active; 'I' for Inactive)
REMARK    1  A    between atoms: C_2  and  C_3 
REMARK    2  A    between atoms: C_3  and  O_6 
REMARK    3  A    between atoms: C_3  and  C_4 
REMARK    4  A    between atoms: C_7  and  O_6 
REMARK    5  A    between atoms: C_9  and  C_10 
REMARK    6  A    between atoms: N_15  and  C_14 
REMARK    7  A    between atoms: N_20  and  C_19 
REMARK       I    between atoms: C_22  and  N_20 
ROOT
ATOM      1  C   LIG d   1       1.672  81.791 112.928  0.00  0.00     0.161 C 
ATOM      2  C   LIG d   1       2.692  82.423 112.198  0.00  0.00     0.016 C 
ATOM      3  C   LIG d   1       2.682  82.543 110.790  0.00  0.00     0.038 C 
ATOM      4  C   LIG d   1       1.570  82.168 110.022  0.00  0.00     0.028 C 
ATOM      5  C   LIG d   1       0.733  81.066 110.664  0.00  0.00    -0.047 C 
ATOM      6  C   LIG d   1       0.398  81.474 112.117  0.00  0.00     0.091 C 
ENDROOT
BRANCH   1   7
ATOM      7  O   LIG d   1       1.343  82.576 114.091  0.00  0.00    -0.368 OA
BRANCH   7   8
ATOM      8  C   LIG d   1       2.465  83.087 114.852  0.00  0.00     0.119 C 
BRANCH   8   9
ATOM      9  C   LIG d   1       2.821  82.032 115.917  0.00  0.00     0.028 C 
ATOM     10  C   LIG d   1       4.186  81.373 115.656  0.00  0.00     0.006 C 
ENDBRANCH   8   9
BRANCH   8  11
ATOM     11  C   LIG d   1       2.078  84.343 115.640  0.00  0.00     0.028 C 
ATOM     12  C   LIG d   1       2.071  84.114 117.160  0.00  0.00     0.006 C 
ENDBRANCH   8  11
ENDBRANCH   7   8
ENDBRANCH   1   7
BRANCH   6  13
ATOM     13  N   LIG d   1      -0.347  80.414 112.845  0.00  0.00    -0.311 N 
ATOM     14  C   LIG d   1      -1.676  80.382 112.935  0.00  0.00     0.210 C 
ATOM     15  C   LIG d   1      -2.241  79.213 113.749  0.00  0.00     0.109 C 
ATOM     16  O   LIG d   1      -2.442  81.191 112.391  0.00  0.00    -0.276 OA
ATOM     17  H   LIG d   1       0.194  79.700 113.291  0.00  0.00     0.149 HD
ENDBRANCH   6  13
BRANCH   5  18
ATOM     18  N   LIG d   1      -0.465  80.871 109.827  0.00  0.00     0.381 N 
ATOM     19  H   LIG d   1      -1.193  81.488 110.127  0.00  0.00    -0.090 HD
ATOM     20  H   LIG d   1      -0.788  79.926 109.937  0.00  0.00    -0.090 HD
ATOM     21  H   LIG d   1      -0.245  81.045 108.871  0.00  0.00    -0.090 HD
ENDBRANCH   5  18
BRANCH   3  22
ATOM     22  C   LIG d   1       3.811  83.006 110.131  0.00  0.00     0.382 C 
ATOM     23  O   LIG d   1       4.027  84.239 110.049  0.00  0.00    -0.241 OA
ATOM     24  O   LIG d   1       4.593  82.208 109.581  0.00  0.00    -0.241 OA
ENDBRANCH   3  22
TORSDOF 7
ENDMDL
MODEL 3
REMARK VINA RESULT:      -4.6      1.612      4.860
REMARK  7 active torsions:
REMARK  status: ('A' for Active; 'I' for Inactive)
REMARK    1  A    between atoms: C_2  and  C_3 
REMARK    2  A    between atoms: C_3  and  O_6 
REMARK    3  A    between atoms: C_3  and  C_4 
REMARK    4  A    between atoms: C_7  and  O_6 
REMARK    5  A    between atoms: C_9  and  C_10 
REMARK    6  A    between atoms: N_15  and  C_14 
REMARK    7  A    between atoms: N_20  and  C_19 
REMARK       I    between atoms: C_22  and  N_20 
ROOT
ATOM      1  C   LIG d   1       0.521  82.618 112.264  0.00  0.00     0.161 C 
ATOM      2  C   LIG d   1      -0.714  82.200 112.788  0.00  0.00     0.016 C 
ATOM      3  C   LIG d   1      -1.358  81.003 112.402  0.00  0.00     0.038 C 
ATOM      4  C   LIG d   1      -0.735  80.061 111.570  0.00  0.00     0.028 C 
ATOM      5  C   LIG d   1       0.290  80.674 110.622  0.00  0.00    -0.047 C 
ATOM      6  C   LIG d   1       1.268  81.550 111.439  0.00  0.00     0.091 C 
ENDROOT
BRANCH   1   7
ATOM      7  O   LIG d   1       1.362  83.109 113.326  0.00  0.00    -0.368 OA
BRANCH   7   8
ATOM      8  C   LIG d   1       2.408  82.214 113.777  0.00  0.00     0.119 C 
BRANCH   8   9
ATOM      9  C   LIG d   1       2.167  81.936 115.273  0.00  0.00     0.028 C 
ATOM     10  C   LIG d   1       3.479  81.784 116.061  0.00  0.00     0.006 C 
ENDBRANCH   8   9
BRANCH   8  11
ATOM     11  C   LIG d   1       3.783  82.884 113.705  0.00  0.00     0.028 C 
ATOM     12  C   LIG d   1       3.708  84.355 113.266  0.00  0.00     0.006 C 
ENDBRANCH   8  11
ENDBRANCH   7   8
ENDBRANCH   1   7
BRANCH   6  13
ATOM     13  N   LIG d   1       2.253  82.254 110.577  0.00  0.00    -0.311 N 
ATOM     14  C   LIG d   1       3.475  81.787 110.328  0.00  0.00     0.210 C 
ATOM     15  C   LIG d   1       4.337  82.680 109.430  0.00  0.00     0.109 C 
ATOM     16  O   LIG d   1       3.915  80.702 110.738  0.00  0.00    -0.276 OA
ATOM     17  H   LIG d   1       1.967  83.127 110.178  0.00  0.00     0.149 HD
ENDBRANCH   6  13
BRANCH   5  18
ATOM     18  N   LIG d   1       0.960  79.567 109.913  0.00  0.00     0.381 N 
ATOM     19  H   LIG d   1       0.727  78.696 110.348  0.00  0.00    -0.090 HD
ATOM     20  H   LIG d   1       1.954  79.695 109.976  0.00  0.00    -0.090 HD
ATOM     21  H   LIG d   1       0.679  79.555 108.957  0.00  0.00    -0.090 HD
ENDBRANCH   5  18
BRANCH   3  22
ATOM     22  C   LIG d   1      -2.658  80.756 112.817  0.00  0.00     0.382 C 
ATOM     23  O   LIG d   1      -3.069  79.576 112.924  0.00  0.00    -0.241 OA
ATOM     24  O   LIG d   1      -3.438  81.701 113.044  0.00  0.00    -0.241 OA
ENDBRANCH   3  22
TORSDOF 7
ENDMDL
MODEL 4
REMARK VINA RESULT:      -4.3      3.118      5.465
REMARK  7 active torsions:
REMARK  status: ('A' for Active; 'I' for Inactive)
REMARK    1  A    between atoms: C_2  and  C_3 
REMARK    2  A    between atoms: C_3  and  O_6 
REMARK    3  A    between atoms: C_3  and  C_4 
REMARK    4  A    between atoms: C_7  and  O_6 
REMARK    5  A    between atoms: C_9  and  C_10 
REMARK    6  A    between atoms: N_15  and  C_14 
REMARK    7  A    between atoms: N_20  and  C_19 
REMARK       I    between atoms: C_22  and  N_20 
ROOT
ATOM      1  C   LIG d   1      -1.235  79.912 113.182  0.00  0.00     0.161 C 
ATOM      2  C   LIG d   1      -1.776  78.745 112.619  0.00  0.00     0.016 C 
ATOM      3  C   LIG d   1      -1.531  78.337 111.287  0.00  0.00     0.038 C 
ATOM      4  C   LIG d   1      -0.600  78.996 110.470  0.00  0.00     0.028 C 
ATOM      5  C   LIG d   1      -0.415  80.467 110.826  0.00  0.00    -0.047 C 
ATOM      6  C   LIG d   1      -0.129  80.584 112.341  0.00  0.00     0.091 C 
ENDROOT
BRANCH   1   7
ATOM      7  O   LIG d   1      -0.754  79.636 114.512  0.00  0.00    -0.368 OA
BRANCH   7   8
ATOM      8  C   LIG d   1      -1.261  78.430 115.135  0.00  0.00     0.119 C 
BRANCH   8   9
ATOM      9  C   LIG d   1      -2.504  78.821 115.958  0.00  0.00     0.028 C 
ATOM     10  C   LIG d   1      -3.440  77.627 116.211  0.00  0.00     0.006 C 
ENDBRANCH   8   9
BRANCH   8  11
ATOM     11  C   LIG d   1      -0.263  77.867 116.152  0.00  0.00     0.028 C 
ATOM     12  C   LIG d   1       0.021  78.837 117.309  0.00  0.00     0.006 C 
ENDBRANCH   8  11
ENDBRANCH   7   8
ENDBRANCH   1   7
BRANCH   6  13
ATOM     13  N   LIG d   1      -0.018  81.996 112.789  0.00  0.00    -0.311 N 
ATOM     14  C   LIG d   1      -0.700  82.997 112.234  0.00  0.00     0.210 C 
ATOM     15  C   LIG d   1      -0.423  84.379 112.835  0.00  0.00     0.109 C 
ATOM     16  O   LIG d   1      -1.532  82.867 111.324  0.00  0.00    -0.276 OA
ATOM     17  H   LIG d   1       0.611  82.187 113.544  0.00  0.00     0.149 HD
ENDBRANCH   6  13
BRANCH   5  18
ATOM     18  N   LIG d   1       0.679  80.993 109.989  0.00  0.00     0.381 N 
ATOM     19  H   LIG d   1       1.291  80.248 109.722  0.00  0.00    -0.090 HD
ATOM     20  H   LIG d   1       1.208  81.658 110.526  0.00  0.00    -0.090 HD
ATOM     21  H   LIG d   1       0.306  81.434 109.177  0.00  0.00    -0.090 HD
ENDBRANCH   5  18
BRANCH   3  22
ATOM     22  C   LIG d   1      -2.252  77.282 110.748  0.00  0.00     0.382 C 
ATOM     23  O   LIG d   1      -3.433  77.461 110.364  0.00  0.00    -0.241 OA
ATOM     24  O   LIG d   1      -1.751  76.144 110.681  0.00  0.00    -0.241 OA
ENDBRANCH   3  22
TORSDOF 7
ENDMDL
MODEL 5
REMARK VINA RESULT:      -3.9      4.339      7.736
REMARK  7 active torsions:
REMARK  status: ('A' for Active; 'I' for Inactive)
REMARK    1  A    between atoms: C_2  and  C_3 
REMARK    2  A    between atoms: C_3  and  O_6 
REMARK    3  A    between atoms: C_3  and  C_4 
REMARK    4  A    between atoms: C_7  and  O_6 
REMARK    5  A    between atoms: C_9  and  C_10 
REMARK    6  A    between atoms: N_15  and  C_14 
REMARK    7  A    between atoms: N_20  and  C_19 
REMARK       I    between atoms: C_22  and  N_20 
ROOT
ATOM      1  C   LIG d   1      -0.970  78.238 115.248  0.00  0.00     0.161 C 
ATOM      2  C   LIG d   1      -1.865  77.158 115.169  0.00  0.00     0.016 C 
ATOM      3  C   LIG d   1      -2.159  76.310 116.261  0.00  0.00     0.038 C 
ATOM      4  C   LIG d   1      -1.689  76.578 117.556  0.00  0.00     0.028 C 
ATOM      5  C   LIG d   1      -0.382  77.363 117.575  0.00  0.00    -0.047 C 
ATOM      6  C   LIG d   1      -0.534  78.613 116.680  0.00  0.00     0.091 C 
ENDROOT
BRANCH   1   7
ATOM      7  O   LIG d   1      -1.528  79.385 114.578  0.00  0.00    -0.368 OA
BRANCH   7   8
ATOM      8  C   LIG d   1      -1.531  79.339 113.130  0.00  0.00     0.119 C 
BRANCH   8   9
ATOM      9  C   LIG d   1      -1.108  80.731 112.621  0.00  0.00     0.028 C 
ATOM     10  C   LIG d   1      -0.029  80.653 111.528  0.00  0.00     0.006 C 
ENDBRANCH   8   9
BRANCH   8  11
ATOM     11  C   LIG d   1      -2.944  79.118 112.581  0.00  0.00     0.028 C 
ATOM     12  C   LIG d   1      -3.003  78.016 111.513  0.00  0.00     0.006 C 
ENDBRANCH   8  11
ENDBRANCH   7   8
ENDBRANCH   1   7
BRANCH   6  13
ATOM     13  N   LIG d   1       0.728  79.393 116.576  0.00  0.00    -0.311 N 
ATOM     14  C   LIG d   1       1.047  80.384 117.406  0.00  0.00     0.210 C 
ATOM     15  C   LIG d   1       2.385  81.070 117.110  0.00  0.00     0.109 C 
ATOM     16  O   LIG d   1       0.365  80.739 118.379  0.00  0.00    -0.276 OA
ATOM     17  H   LIG d   1       1.354  79.150 115.833  0.00  0.00     0.149 HD
ENDBRANCH   6  13
BRANCH   5  18
ATOM     18  N   LIG d   1      -0.080  77.692 118.981  0.00  0.00     0.381 N 
ATOM     19  H   LIG d   1       0.141  78.664 119.062  0.00  0.00    -0.090 HD
ATOM     20  H   LIG d   1       0.721  77.161 119.275  0.00  0.00    -0.090 HD
ATOM     21  H   LIG d   1      -0.863  77.472 119.558  0.00  0.00    -0.090 HD
ENDBRANCH   5  18
BRANCH   3  22
ATOM     22  C   LIG d   1      -2.899  75.155 116.055  0.00  0.00     0.382 C 
ATOM     23  O   LIG d   1      -2.991  74.299 116.967  0.00  0.00    -0.241 OA
ATOM     24  O   LIG d   1      -3.438  74.939 114.953  0.00  0.00    -0.241 OA
ENDBRANCH   3  22
TORSDOF 7
ENDMDL
MODEL 6
REMARK VINA RESULT:      -3.8      5.063      7.519
REMARK  7 active torsions:
REMARK  status: ('A' for Active; 'I' for Inactive)
REMARK    1  A    between atoms: C_2  and  C_3 
REMARK    2  A    between atoms: C_3  and  O_6 
REMARK    3  A    between atoms: C_3  and  C_4 
REMARK    4  A    between atoms: C_7  and  O_6 
REMARK    5  A    between atoms: C_9  and  C_10 
REMARK    6  A    between atoms: N_15  and  C_14 
REMARK    7  A    between atoms: N_20  and  C_19 
REMARK       I    between atoms: C_22  and  N_20 
ROOT
ATOM      1  C   LIG d   1      -2.204  76.409 114.368  0.00  0.00     0.161 C 
ATOM      2  C   LIG d   1      -2.105  77.214 113.221  0.00  0.00     0.016 C 
ATOM      3  C   LIG d   1      -1.926  78.616 113.267  0.00  0.00     0.038 C 
ATOM      4  C   LIG d   1      -1.680  79.293 114.471  0.00  0.00     0.028 C 
ATOM      5  C   LIG d   1      -2.273  78.595 115.690  0.00  0.00    -0.047 C 
ATOM      6  C   LIG d   1      -1.827  77.115 115.687  0.00  0.00     0.091 C 
ENDROOT
BRANCH   1   7
ATOM      7  O   LIG d   1      -1.417  75.215 114.195  0.00  0.00    -0.368 OA
BRANCH   7   8
ATOM      8  C   LIG d   1      -0.024  75.414 113.849  0.00  0.00     0.119 C 
BRANCH   8   9
ATOM      9  C   LIG d   1       0.308  74.448 112.695  0.00  0.00     0.028 C 
ATOM     10  C   LIG d   1       0.160  75.110 111.314  0.00  0.00     0.006 C 
ENDBRANCH   8   9
BRANCH   8  11
ATOM     11  C   LIG d   1       0.901  75.004 114.999  0.00  0.00     0.028 C 
ATOM     12  C   LIG d   1       0.178  74.190 116.084  0.00  0.00     0.006 C 
ENDBRANCH   8  11
ENDBRANCH   7   8
ENDBRANCH   1   7
BRANCH   6  13
ATOM     13  N   LIG d   1      -2.432  76.338 116.801  0.00  0.00    -0.311 N 
ATOM     14  C   LIG d   1      -1.855  76.196 117.993  0.00  0.00     0.210 C 
ATOM     15  C   LIG d   1      -2.639  75.339 118.992  0.00  0.00     0.109 C 
ATOM     16  O   LIG d   1      -0.785  76.725 118.329  0.00  0.00    -0.276 OA
ATOM     17  H   LIG d   1      -3.315  75.901 116.625  0.00  0.00     0.149 HD
ENDBRANCH   6  13
BRANCH   5  18
ATOM     18  N   LIG d   1      -1.825  79.331 116.887  0.00  0.00     0.381 N 
ATOM     19  H   LIG d   1      -2.006  80.308 116.771  0.00  0.00    -0.090 HD
ATOM     20  H   LIG d   1      -0.834  79.205 116.995  0.00  0.00    -0.090 HD
ATOM     21  H   LIG d   1      -2.300  78.991 117.694  0.00  0.00    -0.090 HD
ENDBRANCH   5  18
BRANCH   3  22
ATOM     22  C   LIG d   1      -2.032  79.361 112.103  0.00  0.00     0.382 C 
ATOM     23  O   LIG d   1      -2.314  80.582 112.163  0.00  0.00    -0.241 OA
ATOM     24  O   LIG d   1      -1.891  78.818 110.990  0.00  0.00    -0.241 OA
ENDBRANCH   3  22
TORSDOF 7
ENDMDL
MODEL 7
REMARK VINA RESULT:      -3.8      5.543      7.045
REMARK  7 active torsions:
REMARK  status: ('A' for Active; 'I' for Inactive)
REMARK    1  A    between atoms: C_2  and  C_3 
REMARK    2  A    between atoms: C_3  and  O_6 
REMARK    3  A    between atoms: C_3  and  C_4 
REMARK    4  A    between atoms: C_7  and  O_6 
REMARK    5  A    between atoms: C_9  and  C_10 
REMARK    6  A    between atoms: N_15  and  C_14 
REMARK    7  A    between atoms: N_20  and  C_19 
REMARK       I    between atoms: C_22  and  N_20 
ROOT
ATOM      1  C   LIG d   1      -1.552  76.720 113.492  0.00  0.00     0.161 C 
ATOM      2  C   LIG d   1      -0.815  76.040 112.507  0.00  0.00     0.016 C 
ATOM      3  C   LIG d   1       0.146  75.046 112.803  0.00  0.00     0.038 C 
ATOM      4  C   LIG d   1       0.328  74.554 114.104  0.00  0.00     0.028 C 
ATOM      5  C   LIG d   1      -0.031  75.564 115.189  0.00  0.00    -0.047 C 
ATOM      6  C   LIG d   1      -1.446  76.119 114.909  0.00  0.00     0.091 C 
ENDROOT
BRANCH   1   7
ATOM      7  O   LIG d   1      -2.932  76.816 113.089  0.00  0.00    -0.368 OA
BRANCH   7   8
ATOM      8  C   LIG d   1      -3.291  77.987 112.315  0.00  0.00     0.119 C 
BRANCH   8   9
ATOM      9  C   LIG d   1      -3.033  77.657 110.832  0.00  0.00     0.028 C 
ATOM     10  C   LIG d   1      -1.780  78.360 110.284  0.00  0.00     0.006 C 
ENDBRANCH   8   9
BRANCH   8  11
ATOM     11  C   LIG d   1      -2.371  79.169 112.634  0.00  0.00     0.028 C 
ATOM     12  C   LIG d   1      -3.037  80.214 113.542  0.00  0.00     0.006 C 
ENDBRANCH   8  11
ENDBRANCH   7   8
ENDBRANCH   1   7
BRANCH   6  13
ATOM     13  N   LIG d   1      -1.842  77.176 115.876  0.00  0.00    -0.311 N 
ATOM     14  C   LIG d   1      -2.563  76.936 116.970  0.00  0.00     0.210 C 
ATOM     15  C   LIG d   1      -2.878  78.170 117.821  0.00  0.00     0.109 C 
ATOM     16  O   LIG d   1      -2.944  75.813 117.334  0.00  0.00    -0.276 OA
ATOM     17  H   LIG d   1      -1.548  78.112 115.675  0.00  0.00     0.149 HD
ENDBRANCH   6  13
BRANCH   5  18
ATOM     18  N   LIG d   1       0.074  74.877 116.490  0.00  0.00     0.381 N 
ATOM     19  H   LIG d   1      -0.755  75.039 117.026  0.00  0.00    -0.090 HD
ATOM     20  H   LIG d   1       0.856  75.255 116.995  0.00  0.00    -0.090 HD
ATOM     21  H   LIG d   1       0.201  73.899 116.350  0.00  0.00    -0.090 HD
ENDBRANCH   5  18
BRANCH   3  22
ATOM     22  C   LIG d   1       0.965  74.561 111.795  0.00  0.00     0.382 C 
ATOM     23  O   LIG d   1       2.133  74.188 112.061  0.00  0.00    -0.241 OA
ATOM     24  O   LIG d   1       0.567  74.533 110.615  0.00  0.00    -0.241 OA
ENDBRANCH   3  22
TORSDOF 7
ENDMDL
MODEL 8
REMARK VINA RESULT:      -3.7      5.522      6.971
REMARK  7 active torsions:
REMARK  status: ('A' for Active; 'I' for Inactive)
REMARK    1  A    between atoms: C_2  and  C_3 
REMARK    2  A    between atoms: C_3  and  O_6 
REMARK    3  A    between atoms: C_3  and  C_4 
REMARK    4  A    between atoms: C_7  and  O_6 
REMARK    5  A    between atoms: C_9  and  C_10 
REMARK    6  A    between atoms: N_15  and  C_14 
REMARK    7  A    between atoms: N_20  and  C_19 
REMARK       I    between atoms: C_22  and  N_20 
ROOT
ATOM      1  C   LIG d   1      -1.087  78.089 115.674  0.00  0.00     0.161 C 
ATOM      2  C   LIG d   1      -1.518  78.605 114.440  0.00  0.00     0.016 C 
ATOM      3  C   LIG d   1      -2.511  77.990 113.644  0.00  0.00     0.038 C 
ATOM      4  C   LIG d   1      -3.252  76.890 114.102  0.00  0.00     0.028 C 
ATOM      5  C   LIG d   1      -2.504  76.036 115.120  0.00  0.00    -0.047 C 
ATOM      6  C   LIG d   1      -1.962  76.952 116.241  0.00  0.00     0.091 C 
ENDROOT
BRANCH   1   7
ATOM      7  O   LIG d   1      -0.967  79.157 116.635  0.00  0.00    -0.368 OA
BRANCH   7   8
ATOM      8  C   LIG d   1       0.080  79.008 117.625  0.00  0.00     0.119 C 
BRANCH   8   9
ATOM      9  C   LIG d   1      -0.503  79.441 118.984  0.00  0.00     0.028 C 
ATOM     10  C   LIG d   1      -2.040  79.495 118.973  0.00  0.00     0.006 C 
ENDBRANCH   8   9
BRANCH   8  11
ATOM     11  C   LIG d   1       1.241  79.970 117.357  0.00  0.00     0.028 C 
ATOM     12  C   LIG d   1       1.304  81.125 118.369  0.00  0.00     0.006 C 
ENDBRANCH   8  11
ENDBRANCH   7   8
ENDBRANCH   1   7
BRANCH   6  13
ATOM     13  N   LIG d   1      -1.145  76.208 117.235  0.00  0.00    -0.311 N 
ATOM     14  C   LIG d   1      -1.636  75.729 118.376  0.00  0.00     0.210 C 
ATOM     15  C   LIG d   1      -0.618  75.011 119.267  0.00  0.00     0.109 C 
ATOM     16  O   LIG d   1      -2.825  75.802 118.720  0.00  0.00    -0.276 OA
ATOM     17  H   LIG d   1      -0.176  76.076 117.021  0.00  0.00     0.149 HD
ENDBRANCH   6  13
BRANCH   5  18
ATOM     18  N   LIG d   1      -3.440  75.009 115.614  0.00  0.00     0.381 N 
ATOM     19  H   LIG d   1      -3.054  74.098 115.464  0.00  0.00    -0.090 HD
ATOM     20  H   LIG d   1      -4.299  75.077 115.098  0.00  0.00    -0.090 HD
ATOM     21  H   LIG d   1      -3.616  75.147 116.585  0.00  0.00    -0.090 HD
ENDBRANCH   5  18
BRANCH   3  22
ATOM     22  C   LIG d   1      -2.743  78.451 112.357  0.00  0.00     0.382 C 
ATOM     23  O   LIG d   1      -2.514  79.650 112.070  0.00  0.00    -0.241 OA
ATOM     24  O   LIG d   1      -3.221  77.693 111.491  0.00  0.00    -0.241 OA
ENDBRANCH   3  22
TORSDOF 7
ENDMDL
MODEL 9
REMARK VINA RESULT:      -3.6      4.436      6.509
REMARK  7 active torsions:
REMARK  status: ('A' for Active; 'I' for Inactive)
REMARK    1  A    between atoms: C_2  and  C_3 
REMARK    2  A    between atoms: C_3  and  O_6 
REMARK    3  A    between atoms: C_3  and  C_4 
REMARK    4  A    between atoms: C_7  and  O_6 
REMARK    5  A    between atoms: C_9  and  C_10 
REMARK    6  A    between atoms: N_15  and  C_14 
REMARK    7  A    between atoms: N_20  and  C_19 
REMARK       I    between atoms: C_22  and  N_20 
ROOT
ATOM      1  C   LIG d   1       4.328  81.390 115.663  0.00  0.00     0.161 C 
ATOM      2  C   LIG d   1       5.177  80.328 115.309  0.00  0.00     0.016 C 
ATOM      3  C   LIG d   1       5.525  79.282 116.194  0.00  0.00     0.038 C 
ATOM      4  C   LIG d   1       4.923  79.145 117.454  0.00  0.00     0.028 C 
ATOM      5  C   LIG d   1       4.445  80.468 118.044  0.00  0.00    -0.047 C 
ATOM      6  C   LIG d   1       3.574  81.198 116.996  0.00  0.00     0.091 C 
ENDROOT
BRANCH   1   7
ATOM      7  O   LIG d   1       3.397  81.649 114.594  0.00  0.00    -0.368 OA
BRANCH   7   8
ATOM      8  C   LIG d   1       3.966  81.757 113.266  0.00  0.00     0.119 C 
BRANCH   8   9
ATOM      9  C   LIG d   1       4.498  83.194 113.106  0.00  0.00     0.028 C 
ATOM     10  C   LIG d   1       4.485  83.665 111.642  0.00  0.00     0.006 C 
ENDBRANCH   8   9
BRANCH   8  11
ATOM     11  C   LIG d   1       2.892  81.599 112.185  0.00  0.00     0.028 C 
ATOM     12  C   LIG d   1       1.466  81.596 112.759  0.00  0.00     0.006 C 
ENDBRANCH   8  11
ENDBRANCH   7   8
ENDBRANCH   1   7
BRANCH   6  13
ATOM     13  N   LIG d   1       3.135  82.540 117.461  0.00  0.00    -0.311 N 
ATOM     14  C   LIG d   1       1.897  82.802 117.878  0.00  0.00     0.210 C 
ATOM     15  C   LIG d   1       1.650  84.255 118.295  0.00  0.00     0.109 C 
ATOM     16  O   LIG d   1       0.990  81.962 117.972  0.00  0.00    -0.276 OA
ATOM     17  H   LIG d   1       3.816  83.273 117.447  0.00  0.00     0.149 HD
ENDBRANCH   6  13
BRANCH   5  18
ATOM     18  N   LIG d   1       3.717  80.163 119.290  0.00  0.00     0.381 N 
ATOM     19  H   LIG d   1       4.160  80.620 120.061  0.00  0.00    -0.090 HD
ATOM     20  H   LIG d   1       3.749  79.171 119.450  0.00  0.00    -0.090 HD
ATOM     21  H   LIG d   1       2.771  80.464 119.214  0.00  0.00    -0.090 HD
ENDBRANCH   5  18
BRANCH   3  22
ATOM     22  C   LIG d   1       6.516  78.380 115.836  0.00  0.00     0.382 C 
ATOM     23  O   LIG d   1       7.038  77.644 116.707  0.00  0.00    -0.241 OA
ATOM     24  O   LIG d   1       6.925  78.325 114.661  0.00  0.00    -0.241 OA
ENDBRANCH   3  22
TORSDOF 7
ENDMDL
