MODEL 1
REMARK VINA RESULT:      -5.2      0.000      0.000
REMARK  7 active torsions:
REMARK  status: ('A' for Active; 'I' for Inactive)
REMARK    1  A    between atoms: C_2  and  C_3 
REMARK    2  A    between atoms: C_3  and  O_6 
REMARK    3  A    between atoms: C_3  and  C_4 
REMARK    4  A    between atoms: C_7  and  O_6 
REMARK    5  A    between atoms: C_9  and  C_10 
REMARK    6  A    between atoms: N_15  and  C_14 
REMARK    7  A    between atoms: N_20  and  C_19 
REMARK       I    between atoms: C_22  and  N_20 
ROOT
ATOM      1  C   LIG d   1       1.074  80.940 112.495  0.00  0.00     0.161 C 
ATOM      2  C   LIG d   1       2.055  81.602 111.737  0.00  0.00     0.016 C 
ATOM      3  C   LIG d   1       2.208  81.430 110.342  0.00  0.00     0.038 C 
ATOM      4  C   LIG d   1       1.287  80.696 109.580  0.00  0.00     0.028 C 
ATOM      5  C   LIG d   1       0.578  79.603 110.374  0.00  0.00    -0.047 C 
ATOM      6  C   LIG d   1      -0.009  80.221 111.663  0.00  0.00     0.091 C 
ENDROOT
BRANCH   1   7
ATOM      7  O   LIG d   1       0.465  81.863 113.419  0.00  0.00    -0.368 OA
BRANCH   7   8
ATOM      8  C   LIG d   1       0.571  83.268 113.080  0.00  0.00     0.119 C 
BRANCH   8   9
ATOM      9  C   LIG d   1       0.707  84.054 114.398  0.00  0.00     0.028 C 
ATOM     10  C   LIG d   1      -0.621  84.144 115.168  0.00  0.00     0.006 C 
ENDBRANCH   8   9
BRANCH   8  11
ATOM     11  C   LIG d   1      -0.718  83.783 112.432  0.00  0.00     0.028 C 
ATOM     12  C   LIG d   1      -0.510  84.255 110.985  0.00  0.00     0.006 C 
ENDBRANCH   8  11
ENDBRANCH   7   8
ENDBRANCH   1   7
BRANCH   6  13
ATOM     13  N   LIG d   1      -0.647  79.204 112.539  0.00  0.00    -0.311 N 
ATOM     14  C   LIG d   1      -1.899  79.301 112.984  0.00  0.00     0.210 C 
ATOM     15  C   LIG d   1      -2.354  78.153 113.891  0.00  0.00     0.109 C 
ATOM     16  O   LIG d   1      -2.686  80.212 112.687  0.00  0.00    -0.276 OA
ATOM     17  H   LIG d   1      -0.090  78.415 112.803  0.00  0.00     0.149 HD
ENDBRANCH   6  13
BRANCH   5  18
ATOM     18  N   LIG d   1      -0.449  79.010 109.497  0.00  0.00     0.381 N 
ATOM     19  H   LIG d   1      -1.190  78.631 110.052  0.00  0.00    -0.090 HD
ATOM     20  H   LIG d   1      -0.034  78.261 108.971  0.00  0.00    -0.090 HD
ATOM     21  H   LIG d   1      -0.808  79.702 108.876  0.00  0.00    -0.090 HD
ENDBRANCH   5  18
BRANCH   3  22
ATOM     22  C   LIG d   1       3.315  81.965 109.702  0.00  0.00     0.382 C 
ATOM     23  O   LIG d   1       4.297  81.232 109.430  0.00  0.00    -0.241 OA
ATOM     24  O   LIG d   1       3.363  83.180 109.431  0.00  0.00    -0.241 OA
ENDBRANCH   3  22
TORSDOF 7
ENDMDL
MODEL 2
REMARK VINA RESULT:      -5.2      1.444      2.308
REMARK  7 active torsions:
REMARK  status: ('A' for Active; 'I' for Inactive)
REMARK    1  A    between atoms: C_2  and  C_3 
REMARK    2  A    between atoms: C_3  and  O_6 
REMARK    3  A    between atoms: C_3  and  C_4 
REMARK    4  A    between atoms: C_7  and  O_6 
REMARK    5  A    between atoms: C_9  and  C_10 
REMARK    6  A    between atoms: N_15  and  C_14 
REMARK    7  A    between atoms: N_20  and  C_19 
REMARK       I    between atoms: C_22  and  N_20 
ROOT
ATOM      1  C   LIG d   1       1.103  81.611 112.997  0.00  0.00     0.161 C 
ATOM      2  C   LIG d   1       2.115  81.453 112.035  0.00  0.00     0.016 C 
ATOM      3  C   LIG d   1       1.995  80.603 110.911  0.00  0.00     0.038 C 
ATOM      4  C   LIG d   1       0.787  79.965 110.590  0.00  0.00     0.028 C 
ATOM      5  C   LIG d   1      -0.097  79.697 111.803  0.00  0.00    -0.047 C 
ATOM      6  C   LIG d   1      -0.262  81.008 112.604  0.00  0.00     0.091 C 
ENDROOT
BRANCH   1   7
ATOM      7  O   LIG d   1       0.958  83.006 113.329  0.00  0.00    -0.368 OA
BRANCH   7   8
ATOM      8  C   LIG d   1      -0.011  83.749 112.550  0.00  0.00     0.119 C 
BRANCH   8   9
ATOM      9  C   LIG d   1       0.771  84.680 111.603  0.00  0.00     0.028 C 
ATOM     10  C   LIG d   1       0.573  84.312 110.123  0.00  0.00     0.006 C 
ENDBRANCH   8   9
BRANCH   8  11
ATOM     11  C   LIG d   1      -0.843  84.680 113.438  0.00  0.00     0.028 C 
ATOM     12  C   LIG d   1      -0.747  84.324 114.930  0.00  0.00     0.006 C 
ENDBRANCH   8  11
ENDBRANCH   7   8
ENDBRANCH   1   7
BRANCH   6  13
ATOM     13  N   LIG d   1      -1.044  80.816 113.853  0.00  0.00    -0.311 N 
ATOM     14  C   LIG d   1      -2.335  81.125 113.965  0.00  0.00     0.210 C 
ATOM     15  C   LIG d   1      -2.945  80.866 115.346  0.00  0.00     0.109 C 
ATOM     16  O   LIG d   1      -3.040  81.560 113.042  0.00  0.00    -0.276 OA
ATOM     17  H   LIG d   1      -0.558  80.438 114.642  0.00  0.00     0.149 HD
ENDBRANCH   6  13
BRANCH   5  18
ATOM     18  N   LIG d   1      -1.377  79.155 111.310  0.00  0.00     0.381 N 
ATOM     19  H   LIG d   1      -1.899  78.771 112.073  0.00  0.00    -0.090 HD
ATOM     20  H   LIG d   1      -1.188  78.418 110.655  0.00  0.00    -0.090 HD
ATOM     21  H   LIG d   1      -1.904  79.875 110.868  0.00  0.00    -0.090 HD
ENDBRANCH   5  18
BRANCH   3  22
ATOM     22  C   LIG d   1       3.103  80.354 110.116  0.00  0.00     0.382 C 
ATOM     23  O   LIG d   1       3.922  81.274 109.877  0.00  0.00    -0.241 OA
ATOM     24  O   LIG d   1       3.271  79.233 109.600  0.00  0.00    -0.241 OA
ENDBRANCH   3  22
TORSDOF 7
ENDMDL
MODEL 3
REMARK VINA RESULT:      -5.0      1.561      4.932
REMARK  7 active torsions:
REMARK  status: ('A' for Active; 'I' for Inactive)
REMARK    1  A    between atoms: C_2  and  C_3 
REMARK    2  A    between atoms: C_3  and  O_6 
REMARK    3  A    between atoms: C_3  and  C_4 
REMARK    4  A    between atoms: C_7  and  O_6 
REMARK    5  A    between atoms: C_9  and  C_10 
REMARK    6  A    between atoms: N_15  and  C_14 
REMARK    7  A    between atoms: N_20  and  C_19 
REMARK       I    between atoms: C_22  and  N_20 
ROOT
ATOM      1  C   LIG d   1      -0.439  81.457 112.452  0.00  0.00     0.161 C 
ATOM      2  C   LIG d   1      -1.436  80.646 113.019  0.00  0.00     0.016 C 
ATOM      3  C   LIG d   1      -1.629  79.290 112.667  0.00  0.00     0.038 C 
ATOM      4  C   LIG d   1      -0.736  78.608 111.828  0.00  0.00     0.028 C 
ATOM      5  C   LIG d   1      -0.014  79.520 110.842  0.00  0.00    -0.047 C 
ATOM      6  C   LIG d   1       0.615  80.700 111.618  0.00  0.00     0.091 C 
ENDROOT
BRANCH   1   7
ATOM      7  O   LIG d   1       0.202  82.235 113.483  0.00  0.00    -0.368 OA
BRANCH   7   8
ATOM      8  C   LIG d   1      -0.341  83.558 113.714  0.00  0.00     0.119 C 
BRANCH   8   9
ATOM      9  C   LIG d   1       0.696  84.579 113.208  0.00  0.00     0.028 C 
ATOM     10  C   LIG d   1       2.140  84.072 113.356  0.00  0.00     0.006 C 
ENDBRANCH   8   9
BRANCH   8  11
ATOM     11  C   LIG d   1      -0.494  83.843 115.211  0.00  0.00     0.028 C 
ATOM     12  C   LIG d   1      -1.871  83.434 115.758  0.00  0.00     0.006 C 
ENDBRANCH   8  11
ENDBRANCH   7   8
ENDBRANCH   1   7
BRANCH   6  13
ATOM     13  N   LIG d   1       1.269  81.685 110.718  0.00  0.00    -0.311 N 
ATOM     14  C   LIG d   1       2.584  81.726 110.508  0.00  0.00     0.210 C 
ATOM     15  C   LIG d   1       3.053  82.834 109.560  0.00  0.00     0.109 C 
ATOM     16  O   LIG d   1       3.403  80.931 110.993  0.00  0.00    -0.276 OA
ATOM     17  H   LIG d   1       0.676  82.349 110.260  0.00  0.00     0.149 HD
ENDBRANCH   6  13
BRANCH   5  18
ATOM     18  N   LIG d   1       0.984  78.702 110.126  0.00  0.00     0.381 N 
ATOM     19  H   LIG d   1       1.742  79.280 109.823  0.00  0.00    -0.090 HD
ATOM     20  H   LIG d   1       0.551  78.299 109.314  0.00  0.00    -0.090 HD
ATOM     21  H   LIG d   1       1.325  77.981 110.723  0.00  0.00    -0.090 HD
ENDBRANCH   5  18
BRANCH   3  22
ATOM     22  C   LIG d   1      -2.750  78.614 113.125  0.00  0.00     0.382 C 
ATOM     23  O   LIG d   1      -3.439  77.932 112.329  0.00  0.00    -0.241 OA
ATOM     24  O   LIG d   1      -3.105  78.713 114.314  0.00  0.00    -0.241 OA
ENDBRANCH   3  22
TORSDOF 7
ENDMDL
MODEL 4
REMARK VINA RESULT:      -4.9      1.950      5.003
REMARK  7 active torsions:
REMARK  status: ('A' for Active; 'I' for Inactive)
REMARK    1  A    between atoms: C_2  and  C_3 
REMARK    2  A    between atoms: C_3  and  O_6 
REMARK    3  A    between atoms: C_3  and  C_4 
REMARK    4  A    between atoms: C_7  and  O_6 
REMARK    5  A    between atoms: C_9  and  C_10 
REMARK    6  A    between atoms: N_15  and  C_14 
REMARK    7  A    between atoms: N_20  and  C_19 
REMARK       I    between atoms: C_22  and  N_20 
ROOT
ATOM      1  C   LIG d   1       0.247  83.343 112.350  0.00  0.00     0.161 C 
ATOM      2  C   LIG d   1      -0.937  82.916 112.973  0.00  0.00     0.016 C 
ATOM      3  C   LIG d   1      -1.395  81.578 112.939  0.00  0.00     0.038 C 
ATOM      4  C   LIG d   1      -0.617  80.541 112.404  0.00  0.00     0.028 C 
ATOM      5  C   LIG d   1       0.351  81.007 111.321  0.00  0.00    -0.047 C 
ATOM      6  C   LIG d   1       1.166  82.205 111.857  0.00  0.00     0.091 C 
ENDROOT
BRANCH   1   7
ATOM      7  O   LIG d   1       0.971  84.225 113.231  0.00  0.00    -0.368 OA
BRANCH   7   8
ATOM      8  C   LIG d   1       1.188  83.743 114.580  0.00  0.00     0.119 C 
BRANCH   8   9
ATOM      9  C   LIG d   1       0.402  84.664 115.533  0.00  0.00     0.028 C 
ATOM     10  C   LIG d   1      -0.632  83.895 116.372  0.00  0.00     0.006 C 
ENDBRANCH   8   9
BRANCH   8  11
ATOM     11  C   LIG d   1       2.655  83.887 114.994  0.00  0.00     0.028 C 
ATOM     12  C   LIG d   1       3.488  84.679 113.973  0.00  0.00     0.006 C 
ENDBRANCH   8  11
ENDBRANCH   7   8
ENDBRANCH   1   7
BRANCH   6  13
ATOM     13  N   LIG d   1       2.077  82.776 110.831  0.00  0.00    -0.311 N 
ATOM     14  C   LIG d   1       3.262  82.248 110.528  0.00  0.00     0.210 C 
ATOM     15  C   LIG d   1       4.052  83.004 109.455  0.00  0.00     0.109 C 
ATOM     16  O   LIG d   1       3.720  81.207 111.023  0.00  0.00    -0.276 OA
ATOM     17  H   LIG d   1       1.771  83.603 110.358  0.00  0.00     0.149 HD
ENDBRANCH   6  13
BRANCH   5  18
ATOM     18  N   LIG d   1       1.193  79.854 110.950  0.00  0.00     0.381 N 
ATOM     19  H   LIG d   1       0.621  79.123 110.577  0.00  0.00    -0.090 HD
ATOM     20  H   LIG d   1       1.650  79.507 111.775  0.00  0.00    -0.090 HD
ATOM     21  H   LIG d   1       1.873  80.131 110.276  0.00  0.00    -0.090 HD
ENDBRANCH   5  18
BRANCH   3  22
ATOM     22  C   LIG d   1      -2.664  81.275 113.408  0.00  0.00     0.382 C 
ATOM     23  O   LIG d   1      -3.230  80.216 113.044  0.00  0.00    -0.241 OA
ATOM     24  O   LIG d   1      -3.267  82.067 114.157  0.00  0.00    -0.241 OA
ENDBRANCH   3  22
TORSDOF 7
ENDMDL
MODEL 5
REMARK VINA RESULT:      -4.9      2.188      5.179
REMARK  7 active torsions:
REMARK  status: ('A' for Active; 'I' for Inactive)
REMARK    1  A    between atoms: C_2  and  C_3 
REMARK    2  A    between atoms: C_3  and  O_6 
REMARK    3  A    between atoms: C_3  and  C_4 
REMARK    4  A    between atoms: C_7  and  O_6 
REMARK    5  A    between atoms: C_9  and  C_10 
REMARK    6  A    between atoms: N_15  and  C_14 
REMARK    7  A    between atoms: N_20  and  C_19 
REMARK       I    between atoms: C_22  and  N_20 
ROOT
ATOM      1  C   LIG d   1      -1.609  82.165 112.881  0.00  0.00     0.161 C 
ATOM      2  C   LIG d   1      -2.366  81.042 113.254  0.00  0.00     0.016 C 
ATOM      3  C   LIG d   1      -1.952  79.711 113.018  0.00  0.00     0.038 C 
ATOM      4  C   LIG d   1      -0.674  79.408 112.524  0.00  0.00     0.028 C 
ATOM      5  C   LIG d   1      -0.078  80.519 111.666  0.00  0.00    -0.047 C 
ATOM      6  C   LIG d   1      -0.163  81.853 112.441  0.00  0.00     0.091 C 
ENDROOT
BRANCH   1   7
ATOM      7  O   LIG d   1      -1.611  83.133 113.949  0.00  0.00    -0.368 OA
BRANCH   7   8
ATOM      8  C   LIG d   1      -1.359  82.615 115.278  0.00  0.00     0.119 C 
BRANCH   8   9
ATOM      9  C   LIG d   1      -2.465  83.158 116.204  0.00  0.00     0.028 C 
ATOM     10  C   LIG d   1      -2.081  83.072 117.690  0.00  0.00     0.006 C 
ENDBRANCH   8   9
BRANCH   8  11
ATOM     11  C   LIG d   1      -0.047  83.162 115.850  0.00  0.00     0.028 C 
ATOM     12  C   LIG d   1       0.417  84.449 115.150  0.00  0.00     0.006 C 
ENDBRANCH   8  11
ENDBRANCH   7   8
ENDBRANCH   1   7
BRANCH   6  13
ATOM     13  N   LIG d   1       0.322  83.007 111.640  0.00  0.00    -0.311 N 
ATOM     14  C   LIG d   1       1.571  83.466 111.697  0.00  0.00     0.210 C 
ATOM     15  C   LIG d   1       1.856  84.677 110.803  0.00  0.00     0.109 C 
ATOM     16  O   LIG d   1       2.478  82.965 112.378  0.00  0.00    -0.276 OA
ATOM     17  H   LIG d   1      -0.341  83.453 111.036  0.00  0.00     0.149 HD
ENDBRANCH   6  13
BRANCH   5  18
ATOM     18  N   LIG d   1       1.305  80.131 111.333  0.00  0.00     0.381 N 
ATOM     19  H   LIG d   1       1.939  80.845 111.632  0.00  0.00    -0.090 HD
ATOM     20  H   LIG d   1       1.385  80.036 110.336  0.00  0.00    -0.090 HD
ATOM     21  H   LIG d   1       1.533  79.268 111.775  0.00  0.00    -0.090 HD
ENDBRANCH   5  18
BRANCH   3  22
ATOM     22  C   LIG d   1      -2.837  78.666 113.240  0.00  0.00     0.382 C 
ATOM     23  O   LIG d   1      -3.099  78.305 114.413  0.00  0.00    -0.241 OA
ATOM     24  O   LIG d   1      -3.342  78.052 112.282  0.00  0.00    -0.241 OA
ENDBRANCH   3  22
TORSDOF 7
ENDMDL
MODEL 6
REMARK VINA RESULT:      -4.8      1.477      2.168
REMARK  7 active torsions:
REMARK  status: ('A' for Active; 'I' for Inactive)
REMARK    1  A    between atoms: C_2  and  C_3 
REMARK    2  A    between atoms: C_3  and  O_6 
REMARK    3  A    between atoms: C_3  and  C_4 
REMARK    4  A    between atoms: C_7  and  O_6 
REMARK    5  A    between atoms: C_9  and  C_10 
REMARK    6  A    between atoms: N_15  and  C_14 
REMARK    7  A    between atoms: N_20  and  C_19 
REMARK       I    between atoms: C_22  and  N_20 
ROOT
ATOM      1  C   LIG d   1       0.431  81.958 112.835  0.00  0.00     0.161 C 
ATOM      2  C   LIG d   1       1.281  82.867 112.184  0.00  0.00     0.016 C 
ATOM      3  C   LIG d   1       1.983  82.562 110.995  0.00  0.00     0.038 C 
ATOM      4  C   LIG d   1       1.762  81.370 110.290  0.00  0.00     0.028 C 
ATOM      5  C   LIG d   1       1.296  80.219 111.175  0.00  0.00    -0.047 C 
ATOM      6  C   LIG d   1       0.092  80.692 112.020  0.00  0.00     0.091 C 
ENDROOT
BRANCH   1   7
ATOM      7  O   LIG d   1      -0.777  82.628 113.247  0.00  0.00    -0.368 OA
BRANCH   7   8
ATOM      8  C   LIG d   1      -0.987  82.743 114.676  0.00  0.00     0.119 C 
BRANCH   8   9
ATOM      9  C   LIG d   1      -2.403  82.215 114.979  0.00  0.00     0.028 C 
ATOM     10  C   LIG d   1      -3.079  82.977 116.131  0.00  0.00     0.006 C 
ENDBRANCH   8   9
BRANCH   8  11
ATOM     11  C   LIG d   1      -0.997  84.208 115.122  0.00  0.00     0.028 C 
ATOM     12  C   LIG d   1       0.352  84.663 115.701  0.00  0.00     0.006 C 
ENDBRANCH   8  11
ENDBRANCH   7   8
ENDBRANCH   1   7
BRANCH   6  13
ATOM     13  N   LIG d   1      -0.374  79.653 112.976  0.00  0.00    -0.311 N 
ATOM     14  C   LIG d   1      -1.366  78.806 112.711  0.00  0.00     0.210 C 
ATOM     15  C   LIG d   1      -1.700  77.827 113.842  0.00  0.00     0.109 C 
ATOM     16  O   LIG d   1      -1.980  78.750 111.635  0.00  0.00    -0.276 OA
ATOM     17  H   LIG d   1       0.091  79.608 113.862  0.00  0.00     0.149 HD
ENDBRANCH   6  13
BRANCH   5  18
ATOM     18  N   LIG d   1       0.972  79.081 110.294  0.00  0.00     0.381 N 
ATOM     19  H   LIG d   1       0.018  79.142 109.999  0.00  0.00    -0.090 HD
ATOM     20  H   LIG d   1       1.090  78.227 110.809  0.00  0.00    -0.090 HD
ATOM     21  H   LIG d   1       1.574  79.084 109.499  0.00  0.00    -0.090 HD
ENDBRANCH   5  18
BRANCH   3  22
ATOM     22  C   LIG d   1       2.947  83.439 110.522  0.00  0.00     0.382 C 
ATOM     23  O   LIG d   1       2.693  84.182 109.544  0.00  0.00    -0.241 OA
ATOM     24  O   LIG d   1       4.083  83.464 111.033  0.00  0.00    -0.241 OA
ENDBRANCH   3  22
TORSDOF 7
ENDMDL
MODEL 7
REMARK VINA RESULT:      -4.3      4.066      7.327
REMARK  7 active torsions:
REMARK  status: ('A' for Active; 'I' for Inactive)
REMARK    1  A    between atoms: C_2  and  C_3 
REMARK    2  A    between atoms: C_3  and  O_6 
REMARK    3  A    between atoms: C_3  and  C_4 
REMARK    4  A    between atoms: C_7  and  O_6 
REMARK    5  A    between atoms: C_9  and  C_10 
REMARK    6  A    between atoms: N_15  and  C_14 
REMARK    7  A    between atoms: N_20  and  C_19 
REMARK       I    between atoms: C_22  and  N_20 
ROOT
ATOM      1  C   LIG d   1      -1.436  78.083 114.704  0.00  0.00     0.161 C 
ATOM      2  C   LIG d   1      -2.013  78.446 115.931  0.00  0.00     0.016 C 
ATOM      3  C   LIG d   1      -2.649  79.689 116.155  0.00  0.00     0.038 C 
ATOM      4  C   LIG d   1      -2.884  80.600 115.114  0.00  0.00     0.028 C 
ATOM      5  C   LIG d   1      -1.874  80.493 113.976  0.00  0.00    -0.047 C 
ATOM      6  C   LIG d   1      -1.780  79.017 113.525  0.00  0.00     0.091 C 
ENDROOT
BRANCH   1   7
ATOM      7  O   LIG d   1      -1.786  76.722 114.383  0.00  0.00    -0.368 OA
BRANCH   7   8
ATOM      8  C   LIG d   1      -0.752  75.730 114.601  0.00  0.00     0.119 C 
BRANCH   8   9
ATOM      9  C   LIG d   1      -1.444  74.439 115.082  0.00  0.00     0.028 C 
ATOM     10  C   LIG d   1      -2.191  74.634 116.412  0.00  0.00     0.006 C 
ENDBRANCH   8   9
BRANCH   8  11
ATOM     11  C   LIG d   1       0.181  76.139 115.744  0.00  0.00     0.028 C 
ATOM     12  C   LIG d   1       1.480  75.319 115.775  0.00  0.00     0.006 C 
ENDBRANCH   8  11
ENDBRANCH   7   8
ENDBRANCH   1   7
BRANCH   6  13
ATOM     13  N   LIG d   1      -0.752  78.811 112.472  0.00  0.00    -0.311 N 
ATOM     14  C   LIG d   1      -1.033  78.355 111.252  0.00  0.00     0.210 C 
ATOM     15  C   LIG d   1       0.177  78.197 110.327  0.00  0.00     0.109 C 
ATOM     16  O   LIG d   1      -2.173  78.098 110.839  0.00  0.00    -0.276 OA
ATOM     17  H   LIG d   1       0.196  79.024 112.712  0.00  0.00     0.149 HD
ENDBRANCH   6  13
BRANCH   5  18
ATOM     18  N   LIG d   1      -2.317  81.399 112.900  0.00  0.00     0.381 N 
ATOM     19  H   LIG d   1      -2.319  82.343 113.232  0.00  0.00    -0.090 HD
ATOM     20  H   LIG d   1      -3.255  81.156 112.636  0.00  0.00    -0.090 HD
ATOM     21  H   LIG d   1      -1.710  81.318 112.114  0.00  0.00    -0.090 HD
ENDBRANCH   5  18
BRANCH   3  22
ATOM     22  C   LIG d   1      -3.021  80.049 117.441  0.00  0.00     0.382 C 
ATOM     23  O   LIG d   1      -3.039  79.188 118.353  0.00  0.00    -0.241 OA
ATOM     24  O   LIG d   1      -3.382  81.215 117.691  0.00  0.00    -0.241 OA
ENDBRANCH   3  22
TORSDOF 7
ENDMDL
MODEL 8
REMARK VINA RESULT:      -4.2      3.382      5.840
REMARK  7 active torsions:
REMARK  status: ('A' for Active; 'I' for Inactive)
REMARK    1  A    between atoms: C_2  and  C_3 
REMARK    2  A    between atoms: C_3  and  O_6 
REMARK    3  A    between atoms: C_3  and  C_4 
REMARK    4  A    between atoms: C_7  and  O_6 
REMARK    5  A    between atoms: C_9  and  C_10 
REMARK    6  A    between atoms: N_15  and  C_14 
REMARK    7  A    between atoms: N_20  and  C_19 
REMARK       I    between atoms: C_22  and  N_20 
ROOT
ATOM      1  C   LIG d   1      -2.768  79.412 113.589  0.00  0.00     0.161 C 
ATOM      2  C   LIG d   1      -2.262  78.687 112.498  0.00  0.00     0.016 C 
ATOM      3  C   LIG d   1      -1.073  79.036 111.816  0.00  0.00     0.038 C 
ATOM      4  C   LIG d   1      -0.225  80.052 112.278  0.00  0.00     0.028 C 
ATOM      5  C   LIG d   1      -0.950  81.132 113.074  0.00  0.00    -0.047 C 
ATOM      6  C   LIG d   1      -1.798  80.457 114.177  0.00  0.00     0.091 C 
ENDROOT
BRANCH   1   7
ATOM      7  O   LIG d   1      -3.208  78.503 114.618  0.00  0.00    -0.368 OA
BRANCH   7   8
ATOM      8  C   LIG d   1      -2.170  77.940 115.458  0.00  0.00     0.119 C 
BRANCH   8   9
ATOM      9  C   LIG d   1      -2.170  76.415 115.235  0.00  0.00     0.028 C 
ATOM     10  C   LIG d   1      -0.804  75.893 114.758  0.00  0.00     0.006 C 
ENDBRANCH   8   9
BRANCH   8  11
ATOM     11  C   LIG d   1      -2.491  78.132 116.943  0.00  0.00     0.028 C 
ATOM     12  C   LIG d   1      -3.194  76.915 117.563  0.00  0.00     0.006 C 
ENDBRANCH   8  11
ENDBRANCH   7   8
ENDBRANCH   1   7
BRANCH   6  13
ATOM     13  N   LIG d   1      -2.606  81.437 114.950  0.00  0.00    -0.311 N 
ATOM     14  C   LIG d   1      -2.218  81.950 116.116  0.00  0.00     0.210 C 
ATOM     15  C   LIG d   1      -3.210  82.927 116.755  0.00  0.00     0.109 C 
ATOM     16  O   LIG d   1      -1.132  81.713 116.667  0.00  0.00    -0.276 OA
ATOM     17  H   LIG d   1      -3.487  81.708 114.560  0.00  0.00     0.149 HD
ENDBRANCH   6  13
BRANCH   5  18
ATOM     18  N   LIG d   1       0.071  82.051 113.611  0.00  0.00     0.381 N 
ATOM     19  H   LIG d   1      -0.374  82.819 114.073  0.00  0.00    -0.090 HD
ATOM     20  H   LIG d   1       0.614  82.415 112.848  0.00  0.00    -0.090 HD
ATOM     21  H   LIG d   1       0.663  81.568 114.250  0.00  0.00    -0.090 HD
ENDBRANCH   5  18
BRANCH   3  22
ATOM     22  C   LIG d   1      -0.744  78.389 110.634  0.00  0.00     0.382 C 
ATOM     23  O   LIG d   1      -0.590  79.051 109.579  0.00  0.00    -0.241 OA
ATOM     24  O   LIG d   1      -0.643  77.148 110.599  0.00  0.00    -0.241 OA
ENDBRANCH   3  22
TORSDOF 7
ENDMDL
MODEL 9
REMARK VINA RESULT:      -4.2      2.573      5.773
REMARK  7 active torsions:
REMARK  status: ('A' for Active; 'I' for Inactive)
REMARK    1  A    between atoms: C_2  and  C_3 
REMARK    2  A    between atoms: C_3  and  O_6 
REMARK    3  A    between atoms: C_3  and  C_4 
REMARK    4  A    between atoms: C_7  and  O_6 
REMARK    5  A    between atoms: C_9  and  C_10 
REMARK    6  A    between atoms: N_15  and  C_14 
REMARK    7  A    between atoms: N_20  and  C_19 
REMARK       I    between atoms: C_22  and  N_20 
ROOT
ATOM      1  C   LIG d   1      -2.109  80.817 114.521  0.00  0.00     0.161 C 
ATOM      2  C   LIG d   1      -2.482  79.637 115.185  0.00  0.00     0.016 C 
ATOM      3  C   LIG d   1      -2.355  78.350 114.614  0.00  0.00     0.038 C 
ATOM      4  C   LIG d   1      -1.701  78.142 113.391  0.00  0.00     0.028 C 
ATOM      5  C   LIG d   1      -1.763  79.348 112.459  0.00  0.00    -0.047 C 
ATOM      6  C   LIG d   1      -1.292  80.602 113.230  0.00  0.00     0.091 C 
ENDROOT
BRANCH   1   7
ATOM      7  O   LIG d   1      -1.397  81.684 115.426  0.00  0.00    -0.368 OA
BRANCH   7   8
ATOM      8  C   LIG d   1      -2.062  82.922 115.779  0.00  0.00     0.119 C 
BRANCH   8   9
ATOM      9  C   LIG d   1      -1.170  84.081 115.293  0.00  0.00     0.028 C 
ATOM     10  C   LIG d   1       0.038  84.318 116.213  0.00  0.00     0.006 C 
ENDBRANCH   8   9
BRANCH   8  11
ATOM     11  C   LIG d   1      -2.154  83.091 117.299  0.00  0.00     0.028 C 
ATOM     12  C   LIG d   1      -3.433  82.479 117.890  0.00  0.00     0.006 C 
ENDBRANCH   8  11
ENDBRANCH   7   8
ENDBRANCH   1   7
BRANCH   6  13
ATOM     13  N   LIG d   1      -1.401  81.842 112.417  0.00  0.00    -0.311 N 
ATOM     14  C   LIG d   1      -0.351  82.578 112.058  0.00  0.00     0.210 C 
ATOM     15  C   LIG d   1      -0.687  83.827 111.238  0.00  0.00     0.109 C 
ATOM     16  O   LIG d   1       0.830  82.298 112.314  0.00  0.00    -0.276 OA
ATOM     17  H   LIG d   1      -2.320  82.126 112.139  0.00  0.00     0.149 HD
ENDBRANCH   6  13
BRANCH   5  18
ATOM     18  N   LIG d   1      -0.928  79.045 111.282  0.00  0.00     0.381 N 
ATOM     19  H   LIG d   1       0.013  79.341 111.449  0.00  0.00    -0.090 HD
ATOM     20  H   LIG d   1      -1.283  79.554 110.491  0.00  0.00    -0.090 HD
ATOM     21  H   LIG d   1      -0.947  78.067 111.093  0.00  0.00    -0.090 HD
ENDBRANCH   5  18
BRANCH   3  22
ATOM     22  C   LIG d   1      -2.921  77.256 115.252  0.00  0.00     0.382 C 
ATOM     23  O   LIG d   1      -2.956  76.143 114.676  0.00  0.00    -0.241 OA
ATOM     24  O   LIG d   1      -3.438  77.380 116.379  0.00  0.00    -0.241 OA
ENDBRANCH   3  22
TORSDOF 7
ENDMDL
