MODEL 1
REMARK VINA RESULT:      -4.8      0.000      0.000
REMARK  7 active torsions:
REMARK  status: ('A' for Active; 'I' for Inactive)
REMARK    1  A    between atoms: C_2  and  C_3 
REMARK    2  A    between atoms: C_3  and  O_6 
REMARK    3  A    between atoms: C_3  and  C_4 
REMARK    4  A    between atoms: C_7  and  O_6 
REMARK    5  A    between atoms: C_9  and  C_10 
REMARK    6  A    between atoms: N_15  and  C_14 
REMARK    7  A    between atoms: N_20  and  C_19 
REMARK       I    between atoms: C_22  and  N_20 
ROOT
ATOM      1  C   LIG d   1       1.846  81.715 112.600  0.00  0.00     0.161 C 
ATOM      2  C   LIG d   1       2.837  82.423 111.900  0.00  0.00     0.016 C 
ATOM      3  C   LIG d   1       2.867  82.532 110.491  0.00  0.00     0.038 C 
ATOM      4  C   LIG d   1       1.815  82.065 109.689  0.00  0.00     0.028 C 
ATOM      5  C   LIG d   1       1.047  80.905 110.313  0.00  0.00    -0.047 C 
ATOM      6  C   LIG d   1       0.630  81.293 111.750  0.00  0.00     0.091 C 
ENDROOT
BRANCH   1   7
ATOM      7  O   LIG d   1       1.417  82.479 113.745  0.00  0.00    -0.368 OA
BRANCH   7   8
ATOM      8  C   LIG d   1       2.404  82.676 114.787  0.00  0.00     0.119 C 
BRANCH   8   9
ATOM      9  C   LIG d   1       2.208  81.556 115.827  0.00  0.00     0.028 C 
ATOM     10  C   LIG d   1       3.364  80.542 115.822  0.00  0.00     0.006 C 
ENDBRANCH   8   9
BRANCH   8  11
ATOM     11  C   LIG d   1       2.159  83.983 115.546  0.00  0.00     0.028 C 
ATOM     12  C   LIG d   1       2.748  83.967 116.966  0.00  0.00     0.006 C 
ENDBRANCH   8  11
ENDBRANCH   7   8
ENDBRANCH   1   7
BRANCH   6  13
ATOM     13  N   LIG d   1      -0.053  80.182 112.462  0.00  0.00    -0.311 N 
ATOM     14  C   LIG d   1      -1.377  80.077 112.558  0.00  0.00     0.210 C 
ATOM     15  C   LIG d   1      -1.874  78.865 113.352  0.00  0.00     0.109 C 
ATOM     16  O   LIG d   1      -2.188  80.854 112.033  0.00  0.00    -0.276 OA
ATOM     17  H   LIG d   1       0.529  79.489 112.891  0.00  0.00     0.149 HD
ENDBRANCH   6  13
BRANCH   5  18
ATOM     18  N   LIG d   1      -0.103  80.609 109.437  0.00  0.00     0.381 N 
ATOM     19  H   LIG d   1      -0.560  81.461 109.179  0.00  0.00    -0.090 HD
ATOM     20  H   LIG d   1      -0.759  80.040 109.943  0.00  0.00    -0.090 HD
ATOM     21  H   LIG d   1       0.205  80.128 108.621  0.00  0.00    -0.090 HD
ENDBRANCH   5  18
BRANCH   3  22
ATOM     22  C   LIG d   1       3.977  83.080 109.867  0.00  0.00     0.382 C 
ATOM     23  O   LIG d   1       4.884  82.331 109.430  0.00  0.00    -0.241 OA
ATOM     24  O   LIG d   1       4.105  84.316 109.775  0.00  0.00    -0.241 OA
ENDBRANCH   3  22
TORSDOF 7
ENDMDL
MODEL 2
REMARK VINA RESULT:      -4.5      6.086      7.750
REMARK  7 active torsions:
REMARK  status: ('A' for Active; 'I' for Inactive)
REMARK    1  A    between atoms: C_2  and  C_3 
REMARK    2  A    between atoms: C_3  and  O_6 
REMARK    3  A    between atoms: C_3  and  C_4 
REMARK    4  A    between atoms: C_7  and  O_6 
REMARK    5  A    between atoms: C_9  and  C_10 
REMARK    6  A    between atoms: N_15  and  C_14 
REMARK    7  A    between atoms: N_20  and  C_19 
REMARK       I    between atoms: C_22  and  N_20 
ROOT
ATOM      1  C   LIG d   1      -0.828  78.036 116.992  0.00  0.00     0.161 C 
ATOM      2  C   LIG d   1      -1.666  78.406 115.927  0.00  0.00     0.016 C 
ATOM      3  C   LIG d   1      -2.197  77.482 114.997  0.00  0.00     0.038 C 
ATOM      4  C   LIG d   1      -2.047  76.097 115.160  0.00  0.00     0.028 C 
ATOM      5  C   LIG d   1      -0.790  75.711 115.933  0.00  0.00    -0.047 C 
ATOM      6  C   LIG d   1      -0.744  76.517 117.251  0.00  0.00     0.091 C 
ENDROOT
BRANCH   1   7
ATOM      7  O   LIG d   1      -1.229  78.727 118.191  0.00  0.00    -0.368 OA
BRANCH   7   8
ATOM      8  C   LIG d   1      -1.364  80.166 118.083  0.00  0.00     0.119 C 
BRANCH   8   9
ATOM      9  C   LIG d   1      -0.181  80.800 118.840  0.00  0.00     0.028 C 
ATOM     10  C   LIG d   1       0.929  81.287 117.893  0.00  0.00     0.006 C 
ENDBRANCH   8   9
BRANCH   8  11
ATOM     11  C   LIG d   1      -2.620  80.664 118.804  0.00  0.00     0.028 C 
ATOM     12  C   LIG d   1      -2.422  82.036 119.467  0.00  0.00     0.006 C 
ENDBRANCH   8  11
ENDBRANCH   7   8
ENDBRANCH   1   7
BRANCH   6  13
ATOM     13  N   LIG d   1       0.497  76.262 118.028  0.00  0.00    -0.311 N 
ATOM     14  C   LIG d   1       0.582  75.349 118.994  0.00  0.00     0.210 C 
ATOM     15  C   LIG d   1       1.948  75.262 119.682  0.00  0.00     0.109 C 
ATOM     16  O   LIG d   1      -0.334  74.581 119.324  0.00  0.00    -0.276 OA
ATOM     17  H   LIG d   1       1.298  76.819 117.804  0.00  0.00     0.149 HD
ENDBRANCH   6  13
BRANCH   5  18
ATOM     18  N   LIG d   1      -0.830  74.252 116.149  0.00  0.00     0.381 N 
ATOM     19  H   LIG d   1      -0.164  73.995 116.849  0.00  0.00    -0.090 HD
ATOM     20  H   LIG d   1      -0.581  73.790 115.292  0.00  0.00    -0.090 HD
ATOM     21  H   LIG d   1      -1.744  73.974 116.431  0.00  0.00    -0.090 HD
ENDBRANCH   5  18
BRANCH   3  22
ATOM     22  C   LIG d   1      -2.854  77.945 113.867  0.00  0.00     0.382 C 
ATOM     23  O   LIG d   1      -2.900  79.176 113.629  0.00  0.00    -0.241 OA
ATOM     24  O   LIG d   1      -3.440  77.151 113.107  0.00  0.00    -0.241 OA
ENDBRANCH   3  22
TORSDOF 7
ENDMDL
MODEL 3
REMARK VINA RESULT:      -4.0      4.009      6.059
REMARK  7 active torsions:
REMARK  status: ('A' for Active; 'I' for Inactive)
REMARK    1  A    between atoms: C_2  and  C_3 
REMARK    2  A    between atoms: C_3  and  O_6 
REMARK    3  A    between atoms: C_3  and  C_4 
REMARK    4  A    between atoms: C_7  and  O_6 
REMARK    5  A    between atoms: C_9  and  C_10 
REMARK    6  A    between atoms: N_15  and  C_14 
REMARK    7  A    between atoms: N_20  and  C_19 
REMARK       I    between atoms: C_22  and  N_20 
ROOT
ATOM      1  C   LIG d   1       2.502  80.180 116.645  0.00  0.00     0.161 C 
ATOM      2  C   LIG d   1       3.761  79.817 116.140  0.00  0.00     0.016 C 
ATOM      3  C   LIG d   1       4.306  78.518 116.266  0.00  0.00     0.038 C 
ATOM      4  C   LIG d   1       3.557  77.447 116.778  0.00  0.00     0.028 C 
ATOM      5  C   LIG d   1       2.473  77.880 117.758  0.00  0.00    -0.047 C 
ATOM      6  C   LIG d   1       1.625  78.998 117.108  0.00  0.00     0.091 C 
ENDROOT
BRANCH   1   7
ATOM      7  O   LIG d   1       1.796  80.977 115.673  0.00  0.00    -0.368 OA
BRANCH   7   8
ATOM      8  C   LIG d   1       2.617  81.665 114.696  0.00  0.00     0.119 C 
BRANCH   8   9
ATOM      9  C   LIG d   1       2.602  83.163 115.054  0.00  0.00     0.028 C 
ATOM     10  C   LIG d   1       3.896  83.612 115.754  0.00  0.00     0.006 C 
ENDBRANCH   8   9
BRANCH   8  11
ATOM     11  C   LIG d   1       2.006  81.576 113.295  0.00  0.00     0.028 C 
ATOM     12  C   LIG d   1       1.825  82.953 112.635  0.00  0.00     0.006 C 
ENDBRANCH   8  11
ENDBRANCH   7   8
ENDBRANCH   1   7
BRANCH   6  13
ATOM     13  N   LIG d   1       0.594  79.537 118.032  0.00  0.00    -0.311 N 
ATOM     14  C   LIG d   1      -0.688  79.678 117.698  0.00  0.00     0.210 C 
ATOM     15  C   LIG d   1      -1.580  80.273 118.792  0.00  0.00     0.109 C 
ATOM     16  O   LIG d   1      -1.177  79.338 116.610  0.00  0.00    -0.276 OA
ATOM     17  H   LIG d   1       0.898  79.810 118.946  0.00  0.00     0.149 HD
ENDBRANCH   6  13
BRANCH   5  18
ATOM     18  N   LIG d   1       1.683  76.684 118.106  0.00  0.00     0.381 N 
ATOM     19  H   LIG d   1       1.783  75.992 117.390  0.00  0.00    -0.090 HD
ATOM     20  H   LIG d   1       0.713  76.940 118.164  0.00  0.00    -0.090 HD
ATOM     21  H   LIG d   1       1.989  76.315 118.980  0.00  0.00    -0.090 HD
ENDBRANCH   5  18
BRANCH   3  22
ATOM     22  C   LIG d   1       5.627  78.289 115.915  0.00  0.00     0.382 C 
ATOM     23  O   LIG d   1       6.505  78.193 116.805  0.00  0.00    -0.241 OA
ATOM     24  O   LIG d   1       5.959  78.222 114.716  0.00  0.00    -0.241 OA
ENDBRANCH   3  22
TORSDOF 7
ENDMDL
MODEL 4
REMARK VINA RESULT:      -4.0      4.693      7.390
REMARK  7 active torsions:
REMARK  status: ('A' for Active; 'I' for Inactive)
REMARK    1  A    between atoms: C_2  and  C_3 
REMARK    2  A    between atoms: C_3  and  O_6 
REMARK    3  A    between atoms: C_3  and  C_4 
REMARK    4  A    between atoms: C_7  and  O_6 
REMARK    5  A    between atoms: C_9  and  C_10 
REMARK    6  A    between atoms: N_15  and  C_14 
REMARK    7  A    between atoms: N_20  and  C_19 
REMARK       I    between atoms: C_22  and  N_20 
ROOT
ATOM      1  C   LIG d   1      -1.891  78.533 116.588  0.00  0.00     0.161 C 
ATOM      2  C   LIG d   1      -1.463  77.495 117.432  0.00  0.00     0.016 C 
ATOM      3  C   LIG d   1      -0.986  76.252 116.956  0.00  0.00     0.038 C 
ATOM      4  C   LIG d   1      -0.761  76.017 115.592  0.00  0.00     0.028 C 
ATOM      5  C   LIG d   1      -1.652  76.852 114.679  0.00  0.00    -0.047 C 
ATOM      6  C   LIG d   1      -1.549  78.337 115.096  0.00  0.00     0.091 C 
ENDROOT
BRANCH   1   7
ATOM      7  O   LIG d   1      -1.372  79.792 117.060  0.00  0.00    -0.368 OA
BRANCH   7   8
ATOM      8  C   LIG d   1      -1.380  79.987 118.496  0.00  0.00     0.119 C 
BRANCH   8   9
ATOM      9  C   LIG d   1      -2.613  80.845 118.839  0.00  0.00     0.028 C 
ATOM     10  C   LIG d   1      -2.238  82.145 119.571  0.00  0.00     0.006 C 
ENDBRANCH   8   9
BRANCH   8  11
ATOM     11  C   LIG d   1      -0.172  80.810 118.953  0.00  0.00     0.028 C 
ATOM     12  C   LIG d   1       0.936  80.883 117.891  0.00  0.00     0.006 C 
ENDBRANCH   8  11
ENDBRANCH   7   8
ENDBRANCH   1   7
BRANCH   6  13
ATOM     13  N   LIG d   1      -2.455  79.212 114.308  0.00  0.00    -0.311 N 
ATOM     14  C   LIG d   1      -2.077  79.852 113.203  0.00  0.00     0.210 C 
ATOM     15  C   LIG d   1      -3.161  80.719 112.555  0.00  0.00     0.109 C 
ATOM     16  O   LIG d   1      -0.956  79.760 112.680  0.00  0.00    -0.276 OA
ATOM     17  H   LIG d   1      -3.392  79.319 114.643  0.00  0.00     0.149 HD
ENDBRANCH   6  13
BRANCH   5  18
ATOM     18  N   LIG d   1      -1.218  76.611 113.290  0.00  0.00     0.381 N 
ATOM     19  H   LIG d   1      -1.904  76.966 112.654  0.00  0.00    -0.090 HD
ATOM     20  H   LIG d   1      -1.134  75.620 113.143  0.00  0.00    -0.090 HD
ATOM     21  H   LIG d   1      -0.341  77.054 113.125  0.00  0.00    -0.090 HD
ENDBRANCH   5  18
BRANCH   3  22
ATOM     22  C   LIG d   1      -0.766  75.213 117.848  0.00  0.00     0.382 C 
ATOM     23  O   LIG d   1      -1.483  74.185 117.802  0.00  0.00    -0.241 OA
ATOM     24  O   LIG d   1       0.112  75.310 118.727  0.00  0.00    -0.241 OA
ENDBRANCH   3  22
TORSDOF 7
ENDMDL
MODEL 5
REMARK VINA RESULT:      -3.9      4.154      6.109
REMARK  7 active torsions:
REMARK  status: ('A' for Active; 'I' for Inactive)
REMARK    1  A    between atoms: C_2  and  C_3 
REMARK    2  A    between atoms: C_3  and  O_6 
REMARK    3  A    between atoms: C_3  and  C_4 
REMARK    4  A    between atoms: C_7  and  O_6 
REMARK    5  A    between atoms: C_9  and  C_10 
REMARK    6  A    between atoms: N_15  and  C_14 
REMARK    7  A    between atoms: N_20  and  C_19 
REMARK       I    between atoms: C_22  and  N_20 
ROOT
ATOM      1  C   LIG d   1       3.124  80.095 116.530  0.00  0.00     0.161 C 
ATOM      2  C   LIG d   1       4.296  79.546 115.984  0.00  0.00     0.016 C 
ATOM      3  C   LIG d   1       4.658  78.187 116.125  0.00  0.00     0.038 C 
ATOM      4  C   LIG d   1       3.791  77.244 116.696  0.00  0.00     0.028 C 
ATOM      5  C   LIG d   1       2.822  77.847 117.708  0.00  0.00    -0.047 C 
ATOM      6  C   LIG d   1       2.112  79.058 117.061  0.00  0.00     0.091 C 
ENDROOT
BRANCH   1   7
ATOM      7  O   LIG d   1       2.494  80.961 115.566  0.00  0.00    -0.368 OA
BRANCH   7   8
ATOM      8  C   LIG d   1       2.337  82.346 115.960  0.00  0.00     0.119 C 
BRANCH   8   9
ATOM      9  C   LIG d   1       2.491  83.209 114.692  0.00  0.00     0.028 C 
ATOM     10  C   LIG d   1       2.129  82.439 113.411  0.00  0.00     0.006 C 
ENDBRANCH   8   9
BRANCH   8  11
ATOM     11  C   LIG d   1       3.467  82.792 116.893  0.00  0.00     0.028 C 
ATOM     12  C   LIG d   1       4.607  83.506 116.150  0.00  0.00     0.006 C 
ENDBRANCH   8  11
ENDBRANCH   7   8
ENDBRANCH   1   7
BRANCH   6  13
ATOM     13  N   LIG d   1       1.208  79.758 118.011  0.00  0.00    -0.311 N 
ATOM     14  C   LIG d   1      -0.090  79.951 117.781  0.00  0.00     0.210 C 
ATOM     15  C   LIG d   1      -0.835  80.713 118.881  0.00  0.00     0.109 C 
ATOM     16  O   LIG d   1      -0.701  79.534 116.786  0.00  0.00    -0.276 OA
ATOM     17  H   LIG d   1       1.614  80.101 118.859  0.00  0.00     0.149 HD
ENDBRANCH   6  13
BRANCH   5  18
ATOM     18  N   LIG d   1       1.889  76.782 118.121  0.00  0.00     0.381 N 
ATOM     19  H   LIG d   1       2.382  76.081 118.637  0.00  0.00    -0.090 HD
ATOM     20  H   LIG d   1       1.500  76.354 117.299  0.00  0.00    -0.090 HD
ATOM     21  H   LIG d   1       1.159  77.166 118.680  0.00  0.00    -0.090 HD
ENDBRANCH   5  18
BRANCH   3  22
ATOM     22  C   LIG d   1       5.918  77.766 115.726  0.00  0.00     0.382 C 
ATOM     23  O   LIG d   1       6.368  78.108 114.606  0.00  0.00    -0.241 OA
ATOM     24  O   LIG d   1       6.592  77.013 116.454  0.00  0.00    -0.241 OA
ENDBRANCH   3  22
TORSDOF 7
ENDMDL
MODEL 6
REMARK VINA RESULT:      -3.8      6.252      7.524
REMARK  7 active torsions:
REMARK  status: ('A' for Active; 'I' for Inactive)
REMARK    1  A    between atoms: C_2  and  C_3 
REMARK    2  A    between atoms: C_3  and  O_6 
REMARK    3  A    between atoms: C_3  and  C_4 
REMARK    4  A    between atoms: C_7  and  O_6 
REMARK    5  A    between atoms: C_9  and  C_10 
REMARK    6  A    between atoms: N_15  and  C_14 
REMARK    7  A    between atoms: N_20  and  C_19 
REMARK       I    between atoms: C_22  and  N_20 
ROOT
ATOM      1  C   LIG d   1      -1.199  78.413 117.144  0.00  0.00     0.161 C 
ATOM      2  C   LIG d   1      -1.810  78.589 115.891  0.00  0.00     0.016 C 
ATOM      3  C   LIG d   1      -2.077  77.524 115.000  0.00  0.00     0.038 C 
ATOM      4  C   LIG d   1      -1.887  76.184 115.367  0.00  0.00     0.028 C 
ATOM      5  C   LIG d   1      -0.804  75.993 116.424  0.00  0.00    -0.047 C 
ATOM      6  C   LIG d   1      -1.085  76.946 117.608  0.00  0.00     0.091 C 
ENDROOT
BRANCH   1   7
ATOM      7  O   LIG d   1      -1.884  79.201 118.137  0.00  0.00    -0.368 OA
BRANCH   7   8
ATOM      8  C   LIG d   1      -1.072  80.153 118.868  0.00  0.00     0.119 C 
BRANCH   8   9
ATOM      9  C   LIG d   1      -1.935  81.406 119.113  0.00  0.00     0.028 C 
ATOM     10  C   LIG d   1      -3.440  81.090 119.120  0.00  0.00     0.006 C 
ENDBRANCH   8   9
BRANCH   8  11
ATOM     11  C   LIG d   1       0.114  80.635 118.026  0.00  0.00     0.028 C 
ATOM     12  C   LIG d   1       0.734  81.936 118.561  0.00  0.00     0.006 C 
ENDBRANCH   8  11
ENDBRANCH   7   8
ENDBRANCH   1   7
BRANCH   6  13
ATOM     13  N   LIG d   1      -0.026  76.884 118.649  0.00  0.00    -0.311 N 
ATOM     14  C   LIG d   1       1.255  77.158 118.409  0.00  0.00     0.210 C 
ATOM     15  C   LIG d   1       2.184  77.014 119.618  0.00  0.00     0.109 C 
ATOM     16  O   LIG d   1       1.704  77.537 117.317  0.00  0.00    -0.276 OA
ATOM     17  H   LIG d   1      -0.309  76.615 119.571  0.00  0.00     0.149 HD
ENDBRANCH   6  13
BRANCH   5  18
ATOM     18  N   LIG d   1      -0.806  74.570 116.813  0.00  0.00     0.381 N 
ATOM     19  H   LIG d   1      -1.626  74.367 117.350  0.00  0.00    -0.090 HD
ATOM     20  H   LIG d   1      -0.001  74.389 117.386  0.00  0.00    -0.090 HD
ATOM     21  H   LIG d   1      -0.782  73.995 116.000  0.00  0.00    -0.090 HD
ENDBRANCH   5  18
BRANCH   3  22
ATOM     22  C   LIG d   1      -2.503  77.799 113.709  0.00  0.00     0.382 C 
ATOM     23  O   LIG d   1      -2.337  76.951 112.800  0.00  0.00    -0.241 OA
ATOM     24  O   LIG d   1      -3.012  78.903 113.434  0.00  0.00    -0.241 OA
ENDBRANCH   3  22
TORSDOF 7
ENDMDL
MODEL 7
REMARK VINA RESULT:      -3.6      5.659      7.330
REMARK  7 active torsions:
REMARK  status: ('A' for Active; 'I' for Inactive)
REMARK    1  A    between atoms: C_2  and  C_3 
REMARK    2  A    between atoms: C_3  and  O_6 
REMARK    3  A    between atoms: C_3  and  C_4 
REMARK    4  A    between atoms: C_7  and  O_6 
REMARK    5  A    between atoms: C_9  and  C_10 
REMARK    6  A    between atoms: N_15  and  C_14 
REMARK    7  A    between atoms: N_20  and  C_19 
REMARK       I    between atoms: C_22  and  N_20 
ROOT
ATOM      1  C   LIG d   1       1.359  78.221 117.741  0.00  0.00     0.161 C 
ATOM      2  C   LIG d   1       2.604  77.849 117.209  0.00  0.00     0.016 C 
ATOM      3  C   LIG d   1       3.510  78.770 116.633  0.00  0.00     0.038 C 
ATOM      4  C   LIG d   1       3.295  80.155 116.687  0.00  0.00     0.028 C 
ATOM      5  C   LIG d   1       1.820  80.536 116.763  0.00  0.00    -0.047 C 
ATOM      6  C   LIG d   1       1.155  79.741 117.910  0.00  0.00     0.091 C 
ENDROOT
BRANCH   1   7
ATOM      7  O   LIG d   1       1.142  77.544 118.995  0.00  0.00    -0.368 OA
BRANCH   7   8
ATOM      8  C   LIG d   1       0.053  76.589 119.024  0.00  0.00     0.119 C 
BRANCH   8   9
ATOM      9  C   LIG d   1       0.651  75.216 119.384  0.00  0.00     0.028 C 
ATOM     10  C   LIG d   1       2.085  75.325 119.930  0.00  0.00     0.006 C 
ENDBRANCH   8   9
BRANCH   8  11
ATOM     11  C   LIG d   1      -0.568  76.410 117.636  0.00  0.00     0.028 C 
ATOM     12  C   LIG d   1      -0.887  74.942 117.311  0.00  0.00     0.006 C 
ENDBRANCH   8  11
ENDBRANCH   7   8
ENDBRANCH   1   7
BRANCH   6  13
ATOM     13  N   LIG d   1      -0.307  79.992 117.999  0.00  0.00    -0.311 N 
ATOM     14  C   LIG d   1      -0.848  80.889 118.821  0.00  0.00     0.210 C 
ATOM     15  C   LIG d   1      -2.377  80.974 118.770  0.00  0.00     0.109 C 
ATOM     16  O   LIG d   1      -0.205  81.646 119.564  0.00  0.00    -0.276 OA
ATOM     17  H   LIG d   1      -0.901  79.444 117.408  0.00  0.00     0.149 HD
ENDBRANCH   6  13
BRANCH   5  18
ATOM     18  N   LIG d   1       1.747  81.997 116.954  0.00  0.00     0.381 N 
ATOM     19  H   LIG d   1       0.825  82.321 116.740  0.00  0.00    -0.090 HD
ATOM     20  H   LIG d   1       2.391  82.440 116.323  0.00  0.00    -0.090 HD
ATOM     21  H   LIG d   1       1.979  82.230 117.894  0.00  0.00    -0.090 HD
ENDBRANCH   5  18
BRANCH   3  22
ATOM     22  C   LIG d   1       4.628  78.303 115.958  0.00  0.00     0.382 C 
ATOM     23  O   LIG d   1       5.077  77.158 116.206  0.00  0.00    -0.241 OA
ATOM     24  O   LIG d   1       5.219  79.029 115.137  0.00  0.00    -0.241 OA
ENDBRANCH   3  22
TORSDOF 7
ENDMDL
MODEL 8
REMARK VINA RESULT:      -3.5      4.832      7.609
REMARK  7 active torsions:
REMARK  status: ('A' for Active; 'I' for Inactive)
REMARK    1  A    between atoms: C_2  and  C_3 
REMARK    2  A    between atoms: C_3  and  O_6 
REMARK    3  A    between atoms: C_3  and  C_4 
REMARK    4  A    between atoms: C_7  and  O_6 
REMARK    5  A    between atoms: C_9  and  C_10 
REMARK    6  A    between atoms: N_15  and  C_14 
REMARK    7  A    between atoms: N_20  and  C_19 
REMARK       I    between atoms: C_22  and  N_20 
ROOT
ATOM      1  C   LIG d   1      -1.370  78.807 116.608  0.00  0.00     0.161 C 
ATOM      2  C   LIG d   1      -1.286  77.902 117.679  0.00  0.00     0.016 C 
ATOM      3  C   LIG d   1      -1.865  76.612 117.654  0.00  0.00     0.038 C 
ATOM      4  C   LIG d   1      -2.442  76.080 116.492  0.00  0.00     0.028 C 
ATOM      5  C   LIG d   1      -2.995  77.143 115.548  0.00  0.00    -0.047 C 
ATOM      6  C   LIG d   1      -1.899  78.203 115.290  0.00  0.00     0.091 C 
ENDROOT
BRANCH   1   7
ATOM      7  O   LIG d   1      -0.089  79.431 116.394  0.00  0.00    -0.368 OA
BRANCH   7   8
ATOM      8  C   LIG d   1       0.740  79.605 117.569  0.00  0.00     0.119 C 
BRANCH   8   9
ATOM      9  C   LIG d   1       0.553  81.055 118.057  0.00  0.00     0.028 C 
ATOM     10  C   LIG d   1       1.694  81.980 117.599  0.00  0.00     0.006 C 
ENDBRANCH   8   9
BRANCH   8  11
ATOM     11  C   LIG d   1       2.227  79.481 117.226  0.00  0.00     0.028 C 
ATOM     12  C   LIG d   1       2.771  78.059 117.438  0.00  0.00     0.006 C 
ENDBRANCH   8  11
ENDBRANCH   7   8
ENDBRANCH   1   7
BRANCH   6  13
ATOM     13  N   LIG d   1      -2.384  79.325 114.444  0.00  0.00    -0.311 N 
ATOM     14  C   LIG d   1      -2.291  79.334 113.115  0.00  0.00     0.210 C 
ATOM     15  C   LIG d   1      -2.834  80.596 112.438  0.00  0.00     0.109 C 
ATOM     16  O   LIG d   1      -1.839  78.403 112.431  0.00  0.00    -0.276 OA
ATOM     17  H   LIG d   1      -2.794  80.108 114.915  0.00  0.00     0.149 HD
ENDBRANCH   6  13
BRANCH   5  18
ATOM     18  N   LIG d   1      -3.440  76.461 114.319  0.00  0.00     0.381 N 
ATOM     19  H   LIG d   1      -4.251  75.908 114.514  0.00  0.00    -0.090 HD
ATOM     20  H   LIG d   1      -2.708  75.848 114.004  0.00  0.00    -0.090 HD
ATOM     21  H   LIG d   1      -3.648  77.131 113.613  0.00  0.00    -0.090 HD
ENDBRANCH   5  18
BRANCH   3  22
ATOM     22  C   LIG d   1      -1.906  75.855 118.816  0.00  0.00     0.382 C 
ATOM     23  O   LIG d   1      -2.010  76.422 119.930  0.00  0.00    -0.241 OA
ATOM     24  O   LIG d   1      -1.794  74.616 118.766  0.00  0.00    -0.241 OA
ENDBRANCH   3  22
TORSDOF 7
ENDMDL
MODEL 9
REMARK VINA RESULT:      -3.5      6.549      8.747
REMARK  7 active torsions:
REMARK  status: ('A' for Active; 'I' for Inactive)
REMARK    1  A    between atoms: C_2  and  C_3 
REMARK    2  A    between atoms: C_3  and  O_6 
REMARK    3  A    between atoms: C_3  and  C_4 
REMARK    4  A    between atoms: C_7  and  O_6 
REMARK    5  A    between atoms: C_9  and  C_10 
REMARK    6  A    between atoms: N_15  and  C_14 
REMARK    7  A    between atoms: N_20  and  C_19 
REMARK       I    between atoms: C_22  and  N_20 
ROOT
ATOM      1  C   LIG d   1       0.205  77.715 117.945  0.00  0.00     0.161 C 
ATOM      2  C   LIG d   1      -0.907  78.552 118.137  0.00  0.00     0.016 C 
ATOM      3  C   LIG d   1      -0.812  79.958 118.243  0.00  0.00     0.038 C 
ATOM      4  C   LIG d   1       0.391  80.641 118.011  0.00  0.00     0.028 C 
ATOM      5  C   LIG d   1       1.630  79.804 118.314  0.00  0.00    -0.047 C 
ATOM      6  C   LIG d   1       1.512  78.449 117.578  0.00  0.00     0.091 C 
ENDROOT
BRANCH   1   7
ATOM      7  O   LIG d   1      -0.102  76.715 116.953  0.00  0.00    -0.368 OA
BRANCH   7   8
ATOM      8  C   LIG d   1      -1.325  75.966 117.161  0.00  0.00     0.119 C 
BRANCH   8   9
ATOM      9  C   LIG d   1      -0.932  74.582 117.714  0.00  0.00     0.028 C 
ATOM     10  C   LIG d   1      -1.209  74.453 119.222  0.00  0.00     0.006 C 
ENDBRANCH   8   9
BRANCH   8  11
ATOM     11  C   LIG d   1      -2.039  75.685 115.835  0.00  0.00     0.028 C 
ATOM     12  C   LIG d   1      -3.222  74.716 115.989  0.00  0.00     0.006 C 
ENDBRANCH   8  11
ENDBRANCH   7   8
ENDBRANCH   1   7
BRANCH   6  13
ATOM     13  N   LIG d   1       2.643  77.536 117.887  0.00  0.00    -0.311 N 
ATOM     14  C   LIG d   1       3.739  77.447 117.137  0.00  0.00     0.210 C 
ATOM     15  C   LIG d   1       4.775  76.428 117.623  0.00  0.00     0.109 C 
ATOM     16  O   LIG d   1       3.967  78.138 116.132  0.00  0.00    -0.276 OA
ATOM     17  H   LIG d   1       2.555  76.961 118.702  0.00  0.00     0.149 HD
ENDBRANCH   6  13
BRANCH   5  18
ATOM     18  N   LIG d   1       2.809  80.587 117.898  0.00  0.00     0.381 N 
ATOM     19  H   LIG d   1       2.699  80.886 116.950  0.00  0.00    -0.090 HD
ATOM     20  H   LIG d   1       3.623  80.001 117.952  0.00  0.00    -0.090 HD
ATOM     21  H   LIG d   1       2.920  81.378 118.494  0.00  0.00    -0.090 HD
ENDBRANCH   5  18
BRANCH   3  22
ATOM     22  C   LIG d   1      -1.924  80.695 118.624  0.00  0.00     0.382 C 
ATOM     23  O   LIG d   1      -3.074  80.212 118.484  0.00  0.00    -0.241 OA
ATOM     24  O   LIG d   1      -1.794  81.852 119.065  0.00  0.00    -0.241 OA
ENDBRANCH   3  22
TORSDOF 7
ENDMDL
