MODEL 1
REMARK VINA RESULT:      -4.7      0.000      0.000
REMARK  7 active torsions:
REMARK  status: ('A' for Active; 'I' for Inactive)
REMARK    1  A    between atoms: C_2  and  C_3 
REMARK    2  A    between atoms: C_3  and  O_6 
REMARK    3  A    between atoms: C_3  and  C_4 
REMARK    4  A    between atoms: C_7  and  O_6 
REMARK    5  A    between atoms: C_9  and  C_10 
REMARK    6  A    between atoms: N_15  and  C_14 
REMARK    7  A    between atoms: N_20  and  C_19 
REMARK       I    between atoms: C_22  and  N_20 
ROOT
ATOM      1  C   LIG d   1      -1.589  77.658 115.960  0.00  0.00     0.161 C 
ATOM      2  C   LIG d   1      -1.738  76.816 117.075  0.00  0.00     0.016 C 
ATOM      3  C   LIG d   1      -1.223  75.501 117.131  0.00  0.00     0.038 C 
ATOM      4  C   LIG d   1      -0.388  74.988 116.128  0.00  0.00     0.028 C 
ATOM      5  C   LIG d   1      -0.627  75.618 114.760  0.00  0.00    -0.047 C 
ATOM      6  C   LIG d   1      -0.585  77.157 114.901  0.00  0.00     0.091 C 
ENDROOT
BRANCH   1   7
ATOM      7  O   LIG d   1      -1.236  78.987 116.395  0.00  0.00    -0.368 OA
BRANCH   7   8
ATOM      8  C   LIG d   1      -0.402  79.070 117.577  0.00  0.00     0.119 C 
BRANCH   8   9
ATOM      9  C   LIG d   1      -0.870  80.293 118.389  0.00  0.00     0.028 C 
ATOM     10  C   LIG d   1      -2.151  80.009 119.192  0.00  0.00     0.006 C 
ENDBRANCH   8   9
BRANCH   8  11
ATOM     11  C   LIG d   1       1.056  79.361 117.210  0.00  0.00     0.028 C 
ATOM     12  C   LIG d   1       1.983  78.158 117.450  0.00  0.00     0.006 C 
ENDBRANCH   8  11
ENDBRANCH   7   8
ENDBRANCH   1   7
BRANCH   6  13
ATOM     13  N   LIG d   1      -0.893  77.852 113.624  0.00  0.00    -0.311 N 
ATOM     14  C   LIG d   1      -2.064  77.749 112.998  0.00  0.00     0.210 C 
ATOM     15  C   LIG d   1      -2.166  78.531 111.685  0.00  0.00     0.109 C 
ATOM     16  O   LIG d   1      -3.039  77.109 113.421  0.00  0.00    -0.276 OA
ATOM     17  H   LIG d   1      -0.169  78.417 113.226  0.00  0.00     0.149 HD
ENDBRANCH   6  13
BRANCH   5  18
ATOM     18  N   LIG d   1       0.401  75.093 113.842  0.00  0.00     0.381 N 
ATOM     19  H   LIG d   1       0.295  75.512 112.939  0.00  0.00    -0.090 HD
ATOM     20  H   LIG d   1       0.276  74.101 113.746  0.00  0.00    -0.090 HD
ATOM     21  H   LIG d   1       1.310  75.287 114.201  0.00  0.00    -0.090 HD
ENDBRANCH   5  18
BRANCH   3  22
ATOM     22  C   LIG d   1      -1.577  74.669 118.182  0.00  0.00     0.382 C 
ATOM     23  O   LIG d   1      -0.728  74.367 119.056  0.00  0.00    -0.241 OA
ATOM     24  O   LIG d   1      -2.722  74.181 118.245  0.00  0.00    -0.241 OA
ENDBRANCH   3  22
TORSDOF 7
ENDMDL
MODEL 2
REMARK VINA RESULT:      -4.7      1.925      4.726
REMARK  7 active torsions:
REMARK  status: ('A' for Active; 'I' for Inactive)
REMARK    1  A    between atoms: C_2  and  C_3 
REMARK    2  A    between atoms: C_3  and  O_6 
REMARK    3  A    between atoms: C_3  and  C_4 
REMARK    4  A    between atoms: C_7  and  O_6 
REMARK    5  A    between atoms: C_9  and  C_10 
REMARK    6  A    between atoms: N_15  and  C_14 
REMARK    7  A    between atoms: N_20  and  C_19 
REMARK       I    between atoms: C_22  and  N_20 
ROOT
ATOM      1  C   LIG d   1      -0.630  77.762 116.957  0.00  0.00     0.161 C 
ATOM      2  C   LIG d   1      -1.476  78.241 115.943  0.00  0.00     0.016 C 
ATOM      3  C   LIG d   1      -1.844  77.479 114.811  0.00  0.00     0.038 C 
ATOM      4  C   LIG d   1      -1.509  76.122 114.691  0.00  0.00     0.028 C 
ATOM      5  C   LIG d   1      -0.237  75.743 115.441  0.00  0.00    -0.047 C 
ATOM      6  C   LIG d   1      -0.345  76.246 116.898  0.00  0.00     0.091 C 
ENDROOT
BRANCH   1   7
ATOM      7  O   LIG d   1      -1.160  78.122 118.248  0.00  0.00    -0.368 OA
BRANCH   7   8
ATOM      8  C   LIG d   1      -2.584  78.385 118.301  0.00  0.00     0.119 C 
BRANCH   8   9
ATOM      9  C   LIG d   1      -2.783  79.700 119.079  0.00  0.00     0.028 C 
ATOM     10  C   LIG d   1      -1.490  80.527 119.175  0.00  0.00     0.006 C 
ENDBRANCH   8   9
BRANCH   8  11
ATOM     11  C   LIG d   1      -3.317  77.316 119.116  0.00  0.00     0.028 C 
ATOM     12  C   LIG d   1      -3.440  75.978 118.371  0.00  0.00     0.006 C 
ENDBRANCH   8  11
ENDBRANCH   7   8
ENDBRANCH   1   7
BRANCH   6  13
ATOM     13  N   LIG d   1       0.894  75.991 117.679  0.00  0.00    -0.311 N 
ATOM     14  C   LIG d   1       0.902  75.370 118.858  0.00  0.00     0.210 C 
ATOM     15  C   LIG d   1       2.284  75.228 119.503  0.00  0.00     0.109 C 
ATOM     16  O   LIG d   1      -0.099  74.895 119.414  0.00  0.00    -0.276 OA
ATOM     17  H   LIG d   1       1.756  76.316 117.287  0.00  0.00     0.149 HD
ENDBRANCH   6  13
BRANCH   5  18
ATOM     18  N   LIG d   1      -0.082  74.279 115.345  0.00  0.00     0.381 N 
ATOM     19  H   LIG d   1      -0.728  73.913 114.674  0.00  0.00    -0.090 HD
ATOM     20  H   LIG d   1      -0.292  73.871 116.239  0.00  0.00    -0.090 HD
ATOM     21  H   LIG d   1       0.850  74.051 115.078  0.00  0.00    -0.090 HD
ENDBRANCH   5  18
BRANCH   3  22
ATOM     22  C   LIG d   1      -2.522  78.085 113.765  0.00  0.00     0.382 C 
ATOM     23  O   LIG d   1      -2.696  79.328 113.767  0.00  0.00    -0.241 OA
ATOM     24  O   LIG d   1      -3.000  77.400 112.841  0.00  0.00    -0.241 OA
ENDBRANCH   3  22
TORSDOF 7
ENDMDL
MODEL 3
REMARK VINA RESULT:      -4.5      1.906      4.681
REMARK  7 active torsions:
REMARK  status: ('A' for Active; 'I' for Inactive)
REMARK    1  A    between atoms: C_2  and  C_3 
REMARK    2  A    between atoms: C_3  and  O_6 
REMARK    3  A    between atoms: C_3  and  C_4 
REMARK    4  A    between atoms: C_7  and  O_6 
REMARK    5  A    between atoms: C_9  and  C_10 
REMARK    6  A    between atoms: N_15  and  C_14 
REMARK    7  A    between atoms: N_20  and  C_19 
REMARK       I    between atoms: C_22  and  N_20 
ROOT
ATOM      1  C   LIG d   1      -0.489  78.035 116.881  0.00  0.00     0.161 C 
ATOM      2  C   LIG d   1      -1.373  78.375 115.844  0.00  0.00     0.016 C 
ATOM      3  C   LIG d   1      -1.861  77.441 114.900  0.00  0.00     0.038 C 
ATOM      4  C   LIG d   1      -1.614  76.066 115.022  0.00  0.00     0.028 C 
ATOM      5  C   LIG d   1      -0.317  75.746 115.759  0.00  0.00    -0.047 C 
ATOM      6  C   LIG d   1      -0.297  76.520 117.097  0.00  0.00     0.091 C 
ENDROOT
BRANCH   1   7
ATOM      7  O   LIG d   1      -0.909  78.666 118.107  0.00  0.00    -0.368 OA
BRANCH   7   8
ATOM      8  C   LIG d   1      -0.613  80.079 118.231  0.00  0.00     0.119 C 
BRANCH   8   9
ATOM      9  C   LIG d   1       0.919  80.227 118.307  0.00  0.00     0.028 C 
ATOM     10  C   LIG d   1       1.461  81.254 117.298  0.00  0.00     0.006 C 
ENDBRANCH   8   9
BRANCH   8  11
ATOM     11  C   LIG d   1      -1.141  80.646 119.552  0.00  0.00     0.028 C 
ATOM     12  C   LIG d   1      -1.376  82.164 119.498  0.00  0.00     0.006 C 
ENDBRANCH   8  11
ENDBRANCH   7   8
ENDBRANCH   1   7
BRANCH   6  13
ATOM     13  N   LIG d   1       0.975  76.329 117.842  0.00  0.00    -0.311 N 
ATOM     14  C   LIG d   1       1.137  75.412 118.794  0.00  0.00     0.210 C 
ATOM     15  C   LIG d   1       2.521  75.398 119.450  0.00  0.00     0.109 C 
ATOM     16  O   LIG d   1       0.275  74.588 119.136  0.00  0.00    -0.276 OA
ATOM     17  H   LIG d   1       1.737  76.935 117.606  0.00  0.00     0.149 HD
ENDBRANCH   6  13
BRANCH   5  18
ATOM     18  N   LIG d   1      -0.254  74.283 115.935  0.00  0.00     0.381 N 
ATOM     19  H   LIG d   1      -0.809  74.013 116.723  0.00  0.00    -0.090 HD
ATOM     20  H   LIG d   1       0.698  74.018 116.115  0.00  0.00    -0.090 HD
ATOM     21  H   LIG d   1      -0.585  73.826 115.114  0.00  0.00    -0.090 HD
ENDBRANCH   5  18
BRANCH   3  22
ATOM     22  C   LIG d   1      -2.572  77.888 113.797  0.00  0.00     0.382 C 
ATOM     23  O   LIG d   1      -2.646  79.116 113.553  0.00  0.00    -0.241 OA
ATOM     24  O   LIG d   1      -3.179  77.080 113.068  0.00  0.00    -0.241 OA
ENDBRANCH   3  22
TORSDOF 7
ENDMDL
MODEL 4
REMARK VINA RESULT:      -4.4      4.585      6.242
REMARK  7 active torsions:
REMARK  status: ('A' for Active; 'I' for Inactive)
REMARK    1  A    between atoms: C_2  and  C_3 
REMARK    2  A    between atoms: C_3  and  O_6 
REMARK    3  A    between atoms: C_3  and  C_4 
REMARK    4  A    between atoms: C_7  and  O_6 
REMARK    5  A    between atoms: C_9  and  C_10 
REMARK    6  A    between atoms: N_15  and  C_14 
REMARK    7  A    between atoms: N_20  and  C_19 
REMARK       I    between atoms: C_22  and  N_20 
ROOT
ATOM      1  C   LIG d   1       0.996  80.957 113.265  0.00  0.00     0.161 C 
ATOM      2  C   LIG d   1       0.013  79.955 113.327  0.00  0.00     0.016 C 
ATOM      3  C   LIG d   1      -0.686  79.479 112.194  0.00  0.00     0.038 C 
ATOM      4  C   LIG d   1      -0.341  79.870 110.891  0.00  0.00     0.028 C 
ATOM      5  C   LIG d   1       0.301  81.252 110.823  0.00  0.00    -0.047 C 
ATOM      6  C   LIG d   1       1.464  81.315 111.839  0.00  0.00     0.091 C 
ENDROOT
BRANCH   1   7
ATOM      7  O   LIG d   1       2.122  80.588 114.084  0.00  0.00    -0.368 OA
BRANCH   7   8
ATOM      8  C   LIG d   1       2.003  80.877 115.499  0.00  0.00     0.119 C 
BRANCH   8   9
ATOM      9  C   LIG d   1       2.326  82.371 115.695  0.00  0.00     0.028 C 
ATOM     10  C   LIG d   1       1.727  82.936 116.994  0.00  0.00     0.006 C 
ENDBRANCH   8   9
BRANCH   8  11
ATOM     11  C   LIG d   1       3.059  80.124 116.313  0.00  0.00     0.028 C 
ATOM     12  C   LIG d   1       2.445  79.116 117.298  0.00  0.00     0.006 C 
ENDBRANCH   8  11
ENDBRANCH   7   8
ENDBRANCH   1   7
BRANCH   6  13
ATOM     13  N   LIG d   1       2.093  82.661 111.897  0.00  0.00    -0.311 N 
ATOM     14  C   LIG d   1       3.202  82.981 111.234  0.00  0.00     0.210 C 
ATOM     15  C   LIG d   1       3.693  84.416 111.449  0.00  0.00     0.109 C 
ATOM     16  O   LIG d   1       3.809  82.223 110.462  0.00  0.00    -0.276 OA
ATOM     17  H   LIG d   1       1.648  83.347 112.475  0.00  0.00     0.149 HD
ENDBRANCH   6  13
BRANCH   5  18
ATOM     18  N   LIG d   1       0.735  81.473 109.431  0.00  0.00     0.381 N 
ATOM     19  H   LIG d   1      -0.031  81.313 108.808  0.00  0.00    -0.090 HD
ATOM     20  H   LIG d   1       1.464  80.818 109.210  0.00  0.00    -0.090 HD
ATOM     21  H   LIG d   1       1.072  82.405 109.323  0.00  0.00    -0.090 HD
ENDBRANCH   5  18
BRANCH   3  22
ATOM     22  C   LIG d   1      -1.771  78.632 112.361  0.00  0.00     0.382 C 
ATOM     23  O   LIG d   1      -2.656  78.906 113.208  0.00  0.00    -0.241 OA
ATOM     24  O   LIG d   1      -1.854  77.575 111.708  0.00  0.00    -0.241 OA
ENDBRANCH   3  22
TORSDOF 7
ENDMDL
MODEL 5
REMARK VINA RESULT:      -4.4      2.027      4.635
REMARK  7 active torsions:
REMARK  status: ('A' for Active; 'I' for Inactive)
REMARK    1  A    between atoms: C_2  and  C_3 
REMARK    2  A    between atoms: C_3  and  O_6 
REMARK    3  A    between atoms: C_3  and  C_4 
REMARK    4  A    between atoms: C_7  and  O_6 
REMARK    5  A    between atoms: C_9  and  C_10 
REMARK    6  A    between atoms: N_15  and  C_14 
REMARK    7  A    between atoms: N_20  and  C_19 
REMARK       I    between atoms: C_22  and  N_20 
ROOT
ATOM      1  C   LIG d   1      -0.725  78.259 115.563  0.00  0.00     0.161 C 
ATOM      2  C   LIG d   1      -0.912  78.657 114.228  0.00  0.00     0.016 C 
ATOM      3  C   LIG d   1      -1.860  78.063 113.365  0.00  0.00     0.038 C 
ATOM      4  C   LIG d   1      -2.798  77.126 113.825  0.00  0.00     0.028 C 
ATOM      5  C   LIG d   1      -2.316  76.331 115.034  0.00  0.00    -0.047 C 
ATOM      6  C   LIG d   1      -1.814  77.316 116.115  0.00  0.00     0.091 C 
ENDROOT
BRANCH   1   7
ATOM      7  O   LIG d   1      -0.595  79.422 116.405  0.00  0.00    -0.368 OA
BRANCH   7   8
ATOM      8  C   LIG d   1       0.585  79.472 117.244  0.00  0.00     0.119 C 
BRANCH   8   9
ATOM      9  C   LIG d   1       0.110  79.591 118.705  0.00  0.00     0.028 C 
ATOM     10  C   LIG d   1      -1.346  80.074 118.811  0.00  0.00     0.006 C 
ENDBRANCH   8   9
BRANCH   8  11
ATOM     11  C   LIG d   1       1.404  80.739 116.979  0.00  0.00     0.028 C 
ATOM     12  C   LIG d   1       2.201  80.670 115.667  0.00  0.00     0.006 C 
ENDBRANCH   8  11
ENDBRANCH   7   8
ENDBRANCH   1   7
BRANCH   6  13
ATOM     13  N   LIG d   1      -1.246  76.618 117.298  0.00  0.00    -0.311 N 
ATOM     14  C   LIG d   1      -1.945  76.362 118.403  0.00  0.00     0.210 C 
ATOM     15  C   LIG d   1      -1.163  75.651 119.511  0.00  0.00     0.109 C 
ATOM     16  O   LIG d   1      -3.146  76.628 118.558  0.00  0.00    -0.276 OA
ATOM     17  H   LIG d   1      -0.286  76.339 117.246  0.00  0.00     0.149 HD
ENDBRANCH   6  13
BRANCH   5  18
ATOM     18  N   LIG d   1      -3.440  75.493 115.493  0.00  0.00     0.381 N 
ATOM     19  H   LIG d   1      -4.302  75.862 115.144  0.00  0.00    -0.090 HD
ATOM     20  H   LIG d   1      -3.471  75.513 116.497  0.00  0.00    -0.090 HD
ATOM     21  H   LIG d   1      -3.318  74.556 115.176  0.00  0.00    -0.090 HD
ENDBRANCH   5  18
BRANCH   3  22
ATOM     22  C   LIG d   1      -1.852  78.377 112.014  0.00  0.00     0.382 C 
ATOM     23  O   LIG d   1      -1.580  79.544 111.643  0.00  0.00    -0.241 OA
ATOM     24  O   LIG d   1      -2.155  77.518 111.164  0.00  0.00    -0.241 OA
ENDBRANCH   3  22
TORSDOF 7
ENDMDL
MODEL 6
REMARK VINA RESULT:      -4.3      2.417      4.858
REMARK  7 active torsions:
REMARK  status: ('A' for Active; 'I' for Inactive)
REMARK    1  A    between atoms: C_2  and  C_3 
REMARK    2  A    between atoms: C_3  and  O_6 
REMARK    3  A    between atoms: C_3  and  C_4 
REMARK    4  A    between atoms: C_7  and  O_6 
REMARK    5  A    between atoms: C_9  and  C_10 
REMARK    6  A    between atoms: N_15  and  C_14 
REMARK    7  A    between atoms: N_20  and  C_19 
REMARK       I    between atoms: C_22  and  N_20 
ROOT
ATOM      1  C   LIG d   1       0.002  77.646 116.289  0.00  0.00     0.161 C 
ATOM      2  C   LIG d   1      -0.857  78.111 115.279  0.00  0.00     0.016 C 
ATOM      3  C   LIG d   1      -2.032  77.432 114.883  0.00  0.00     0.038 C 
ATOM      4  C   LIG d   1      -2.512  76.313 115.579  0.00  0.00     0.028 C 
ATOM      5  C   LIG d   1      -1.414  75.519 116.279  0.00  0.00    -0.047 C 
ATOM      6  C   LIG d   1      -0.563  76.486 117.135  0.00  0.00     0.091 C 
ENDROOT
BRANCH   1   7
ATOM      7  O   LIG d   1       0.394  78.741 117.140  0.00  0.00    -0.368 OA
BRANCH   7   8
ATOM      8  C   LIG d   1       1.667  79.362 116.835  0.00  0.00     0.119 C 
BRANCH   8   9
ATOM      9  C   LIG d   1       2.690  78.852 117.868  0.00  0.00     0.028 C 
ATOM     10  C   LIG d   1       3.619  77.772 117.289  0.00  0.00     0.006 C 
ENDBRANCH   8   9
BRANCH   8  11
ATOM     11  C   LIG d   1       1.609  80.879 117.035  0.00  0.00     0.028 C 
ATOM     12  C   LIG d   1       2.872  81.595 116.529  0.00  0.00     0.006 C 
ENDBRANCH   8  11
ENDBRANCH   7   8
ENDBRANCH   1   7
BRANCH   6  13
ATOM     13  N   LIG d   1       0.585  75.804 117.788  0.00  0.00    -0.311 N 
ATOM     14  C   LIG d   1       0.826  75.866 119.096  0.00  0.00     0.210 C 
ATOM     15  C   LIG d   1       2.074  75.108 119.560  0.00  0.00     0.109 C 
ATOM     16  O   LIG d   1       0.107  76.450 119.921  0.00  0.00    -0.276 OA
ATOM     17  H   LIG d   1       1.201  75.282 117.197  0.00  0.00     0.149 HD
ENDBRANCH   6  13
BRANCH   5  18
ATOM     18  N   LIG d   1      -2.067  74.463 117.076  0.00  0.00     0.381 N 
ATOM     19  H   LIG d   1      -1.384  73.798 117.381  0.00  0.00    -0.090 HD
ATOM     20  H   LIG d   1      -2.736  73.986 116.498  0.00  0.00    -0.090 HD
ATOM     21  H   LIG d   1      -2.525  74.865 117.865  0.00  0.00    -0.090 HD
ENDBRANCH   5  18
BRANCH   3  22
ATOM     22  C   LIG d   1      -2.720  77.850 113.754  0.00  0.00     0.382 C 
ATOM     23  O   LIG d   1      -2.763  79.070 113.462  0.00  0.00    -0.241 OA
ATOM     24  O   LIG d   1      -3.334  77.028 113.048  0.00  0.00    -0.241 OA
ENDBRANCH   3  22
TORSDOF 7
ENDMDL
MODEL 7
REMARK VINA RESULT:      -4.2      2.399      4.876
REMARK  7 active torsions:
REMARK  status: ('A' for Active; 'I' for Inactive)
REMARK    1  A    between atoms: C_2  and  C_3 
REMARK    2  A    between atoms: C_3  and  O_6 
REMARK    3  A    between atoms: C_3  and  C_4 
REMARK    4  A    between atoms: C_7  and  O_6 
REMARK    5  A    between atoms: C_9  and  C_10 
REMARK    6  A    between atoms: N_15  and  C_14 
REMARK    7  A    between atoms: N_20  and  C_19 
REMARK       I    between atoms: C_22  and  N_20 
ROOT
ATOM      1  C   LIG d   1      -0.585  78.257 114.851  0.00  0.00     0.161 C 
ATOM      2  C   LIG d   1      -1.609  77.295 114.829  0.00  0.00     0.016 C 
ATOM      3  C   LIG d   1      -2.061  76.614 115.983  0.00  0.00     0.038 C 
ATOM      4  C   LIG d   1      -1.621  76.960 117.269  0.00  0.00     0.028 C 
ATOM      5  C   LIG d   1      -0.224  77.573 117.286  0.00  0.00    -0.047 C 
ATOM      6  C   LIG d   1      -0.170  78.728 116.260  0.00  0.00     0.091 C 
ENDROOT
BRANCH   1   7
ATOM      7  O   LIG d   1      -0.957  79.385 114.035  0.00  0.00    -0.368 OA
BRANCH   7   8
ATOM      8  C   LIG d   1      -0.756  79.233 112.608  0.00  0.00     0.119 C 
BRANCH   8   9
ATOM      9  C   LIG d   1      -0.144  80.547 112.084  0.00  0.00     0.028 C 
ATOM     10  C   LIG d   1       1.227  80.847 112.713  0.00  0.00     0.006 C 
ENDBRANCH   8   9
BRANCH   8  11
ATOM     11  C   LIG d   1      -2.090  79.085 111.870  0.00  0.00     0.028 C 
ATOM     12  C   LIG d   1      -2.104  77.896 110.896  0.00  0.00     0.006 C 
ENDBRANCH   8  11
ENDBRANCH   7   8
ENDBRANCH   1   7
BRANCH   6  13
ATOM     13  N   LIG d   1       1.186  79.327 116.153  0.00  0.00    -0.311 N 
ATOM     14  C   LIG d   1       1.531  80.469 116.746  0.00  0.00     0.210 C 
ATOM     15  C   LIG d   1       2.973  80.920 116.490  0.00  0.00     0.109 C 
ATOM     16  O   LIG d   1       0.791  81.134 117.486  0.00  0.00    -0.276 OA
ATOM     17  H   LIG d   1       1.858  78.837 115.597  0.00  0.00     0.149 HD
ENDBRANCH   6  13
BRANCH   5  18
ATOM     18  N   LIG d   1       0.052  78.012 118.667  0.00  0.00     0.381 N 
ATOM     19  H   LIG d   1      -0.362  77.373 119.315  0.00  0.00    -0.090 HD
ATOM     20  H   LIG d   1      -0.361  78.917 118.809  0.00  0.00    -0.090 HD
ATOM     21  H   LIG d   1       1.035  78.061 118.819  0.00  0.00    -0.090 HD
ENDBRANCH   5  18
BRANCH   3  22
ATOM     22  C   LIG d   1      -2.936  75.546 115.851  0.00  0.00     0.382 C 
ATOM     23  O   LIG d   1      -3.439  75.281 114.733  0.00  0.00    -0.241 OA
ATOM     24  O   LIG d   1      -3.262  74.870 116.846  0.00  0.00    -0.241 OA
ENDBRANCH   3  22
TORSDOF 7
ENDMDL
MODEL 8
REMARK VINA RESULT:      -4.2      2.314      4.088
REMARK  7 active torsions:
REMARK  status: ('A' for Active; 'I' for Inactive)
REMARK    1  A    between atoms: C_2  and  C_3 
REMARK    2  A    between atoms: C_3  and  O_6 
REMARK    3  A    between atoms: C_3  and  C_4 
REMARK    4  A    between atoms: C_7  and  O_6 
REMARK    5  A    between atoms: C_9  and  C_10 
REMARK    6  A    between atoms: N_15  and  C_14 
REMARK    7  A    between atoms: N_20  and  C_19 
REMARK       I    between atoms: C_22  and  N_20 
ROOT
ATOM      1  C   LIG d   1      -0.145  78.062 117.695  0.00  0.00     0.161 C 
ATOM      2  C   LIG d   1      -0.848  76.874 117.436  0.00  0.00     0.016 C 
ATOM      3  C   LIG d   1      -1.258  76.479 116.142  0.00  0.00     0.038 C 
ATOM      4  C   LIG d   1      -0.857  77.176 114.992  0.00  0.00     0.028 C 
ATOM      5  C   LIG d   1      -0.575  78.652 115.246  0.00  0.00    -0.047 C 
ATOM      6  C   LIG d   1       0.398  78.779 116.441  0.00  0.00     0.091 C 
ENDROOT
BRANCH   1   7
ATOM      7  O   LIG d   1       0.925  77.803 118.626  0.00  0.00    -0.368 OA
BRANCH   7   8
ATOM      8  C   LIG d   1       1.845  76.745 118.262  0.00  0.00     0.119 C 
BRANCH   8   9
ATOM      9  C   LIG d   1       2.058  75.867 119.510  0.00  0.00     0.028 C 
ATOM     10  C   LIG d   1       1.071  74.689 119.574  0.00  0.00     0.006 C 
ENDBRANCH   8   9
BRANCH   8  11
ATOM     11  C   LIG d   1       3.229  77.304 117.919  0.00  0.00     0.028 C 
ATOM     12  C   LIG d   1       3.556  78.597 118.683  0.00  0.00     0.006 C 
ENDBRANCH   8  11
ENDBRANCH   7   8
ENDBRANCH   1   7
BRANCH   6  13
ATOM     13  N   LIG d   1       0.661  80.194 116.810  0.00  0.00    -0.311 N 
ATOM     14  C   LIG d   1       1.729  80.874 116.396  0.00  0.00     0.210 C 
ATOM     15  C   LIG d   1       1.818  82.314 116.910  0.00  0.00     0.109 C 
ATOM     16  O   LIG d   1       2.594  80.431 115.626  0.00  0.00    -0.276 OA
ATOM     17  H   LIG d   1      -0.007  80.641 117.407  0.00  0.00     0.149 HD
ENDBRANCH   6  13
BRANCH   5  18
ATOM     18  N   LIG d   1      -0.036  79.225 113.998  0.00  0.00     0.381 N 
ATOM     19  H   LIG d   1       0.962  79.270 114.050  0.00  0.00    -0.090 HD
ATOM     20  H   LIG d   1      -0.389  80.159 113.890  0.00  0.00    -0.090 HD
ATOM     21  H   LIG d   1      -0.310  78.666 113.221  0.00  0.00    -0.090 HD
ENDBRANCH   5  18
BRANCH   3  22
ATOM     22  C   LIG d   1      -2.111  75.396 115.992  0.00  0.00     0.382 C 
ATOM     23  O   LIG d   1      -2.143  74.497 116.866  0.00  0.00    -0.241 OA
ATOM     24  O   LIG d   1      -2.818  75.285 114.972  0.00  0.00    -0.241 OA
ENDBRANCH   3  22
TORSDOF 7
ENDMDL
MODEL 9
REMARK VINA RESULT:      -4.1      2.481      5.519
REMARK  7 active torsions:
REMARK  status: ('A' for Active; 'I' for Inactive)
REMARK    1  A    between atoms: C_2  and  C_3 
REMARK    2  A    between atoms: C_3  and  O_6 
REMARK    3  A    between atoms: C_3  and  C_4 
REMARK    4  A    between atoms: C_7  and  O_6 
REMARK    5  A    between atoms: C_9  and  C_10 
REMARK    6  A    between atoms: N_15  and  C_14 
REMARK    7  A    between atoms: N_20  and  C_19 
REMARK       I    between atoms: C_22  and  N_20 
ROOT
ATOM      1  C   LIG d   1      -0.446  78.358 117.285  0.00  0.00     0.161 C 
ATOM      2  C   LIG d   1       0.513  79.294 116.862  0.00  0.00     0.016 C 
ATOM      3  C   LIG d   1       1.907  79.082 116.968  0.00  0.00     0.038 C 
ATOM      4  C   LIG d   1       2.441  77.848 117.368  0.00  0.00     0.028 C 
ATOM      5  C   LIG d   1       1.513  77.054 118.281  0.00  0.00    -0.047 C 
ATOM      6  C   LIG d   1       0.118  76.961 117.620  0.00  0.00     0.091 C 
ENDROOT
BRANCH   1   7
ATOM      7  O   LIG d   1      -1.493  78.252 116.299  0.00  0.00    -0.368 OA
BRANCH   7   8
ATOM      8  C   LIG d   1      -1.135  77.596 115.058  0.00  0.00     0.119 C 
BRANCH   8   9
ATOM      9  C   LIG d   1      -1.452  78.574 113.910  0.00  0.00     0.028 C 
ATOM     10  C   LIG d   1      -1.830  77.848 112.608  0.00  0.00     0.006 C 
ENDBRANCH   8   9
BRANCH   8  11
ATOM     11  C   LIG d   1      -2.017  76.370 114.801  0.00  0.00     0.028 C 
ATOM     12  C   LIG d   1      -3.283  76.354 115.672  0.00  0.00     0.006 C 
ENDBRANCH   8  11
ENDBRANCH   7   8
ENDBRANCH   1   7
BRANCH   6  13
ATOM     13  N   LIG d   1      -0.874  76.272 118.486  0.00  0.00    -0.311 N 
ATOM     14  C   LIG d   1      -1.146  74.971 118.397  0.00  0.00     0.210 C 
ATOM     15  C   LIG d   1      -2.216  74.466 119.369  0.00  0.00     0.109 C 
ATOM     16  O   LIG d   1      -0.579  74.181 117.627  0.00  0.00    -0.276 OA
ATOM     17  H   LIG d   1      -1.358  76.832 119.160  0.00  0.00     0.149 HD
ENDBRANCH   6  13
BRANCH   5  18
ATOM     18  N   LIG d   1       2.133  75.735 118.508  0.00  0.00     0.381 N 
ATOM     19  H   LIG d   1       2.486  75.373 117.645  0.00  0.00    -0.090 HD
ATOM     20  H   LIG d   1       1.433  75.101 118.852  0.00  0.00    -0.090 HD
ATOM     21  H   LIG d   1       2.873  75.816 119.170  0.00  0.00    -0.090 HD
ENDBRANCH   5  18
BRANCH   3  22
ATOM     22  C   LIG d   1       2.782  80.126 116.710  0.00  0.00     0.382 C 
ATOM     23  O   LIG d   1       3.849  79.910 116.087  0.00  0.00    -0.241 OA
ATOM     24  O   LIG d   1       2.539  81.273 117.131  0.00  0.00    -0.241 OA
ENDBRANCH   3  22
TORSDOF 7
ENDMDL
