MODEL 1
REMARK VINA RESULT:      -4.7      0.000      0.000
REMARK  7 active torsions:
REMARK  status: ('A' for Active; 'I' for Inactive)
REMARK    1  A    between atoms: C_2  and  C_3 
REMARK    2  A    between atoms: C_3  and  O_6 
REMARK    3  A    between atoms: C_3  and  C_4 
REMARK    4  A    between atoms: C_7  and  O_6 
REMARK    5  A    between atoms: C_9  and  C_10 
REMARK    6  A    between atoms: N_15  and  C_14 
REMARK    7  A    between atoms: N_20  and  C_19 
REMARK       I    between atoms: C_22  and  N_20 
ROOT
ATOM      1  C   LIG d   1      -1.521  79.630 114.557  0.00  0.00     0.161 C 
ATOM      2  C   LIG d   1      -1.968  78.432 115.138  0.00  0.00     0.016 C 
ATOM      3  C   LIG d   1      -2.257  77.266 114.391  0.00  0.00     0.038 C 
ATOM      4  C   LIG d   1      -1.971  77.173 113.021  0.00  0.00     0.028 C 
ATOM      5  C   LIG d   1      -1.993  78.519 112.305  0.00  0.00    -0.047 C 
ATOM      6  C   LIG d   1      -1.097  79.514 113.078  0.00  0.00     0.091 C 
ENDROOT
BRANCH   1   7
ATOM      7  O   LIG d   1      -0.447  80.183 115.344  0.00  0.00    -0.368 OA
BRANCH   7   8
ATOM      8  C   LIG d   1      -0.159  79.508 116.593  0.00  0.00     0.119 C 
BRANCH   8   9
ATOM      9  C   LIG d   1      -0.458  80.498 117.735  0.00  0.00     0.028 C 
ATOM     10  C   LIG d   1      -1.879  80.330 118.300  0.00  0.00     0.006 C 
ENDBRANCH   8   9
BRANCH   8  11
ATOM     11  C   LIG d   1       1.332  79.182 116.719  0.00  0.00     0.028 C 
ATOM     12  C   LIG d   1       2.212  80.057 115.813  0.00  0.00     0.006 C 
ENDBRANCH   8  11
ENDBRANCH   7   8
ENDBRANCH   1   7
BRANCH   6  13
ATOM     13  N   LIG d   1      -1.129  80.879 112.492  0.00  0.00    -0.311 N 
ATOM     14  C   LIG d   1      -0.213  81.333 111.639  0.00  0.00     0.210 C 
ATOM     15  C   LIG d   1      -0.423  82.776 111.171  0.00  0.00     0.109 C 
ATOM     16  O   LIG d   1       0.736  80.666 111.200  0.00  0.00    -0.276 OA
ATOM     17  H   LIG d   1      -1.883  81.477 112.770  0.00  0.00     0.149 HD
ENDBRANCH   6  13
BRANCH   5  18
ATOM     18  N   LIG d   1      -1.544  78.294 110.918  0.00  0.00     0.381 N 
ATOM     19  H   LIG d   1      -0.981  77.468 110.874  0.00  0.00    -0.090 HD
ATOM     20  H   LIG d   1      -0.982  79.075 110.628  0.00  0.00    -0.090 HD
ATOM     21  H   LIG d   1      -2.332  78.200 110.316  0.00  0.00    -0.090 HD
ENDBRANCH   5  18
BRANCH   3  22
ATOM     22  C   LIG d   1      -2.875  76.190 115.009  0.00  0.00     0.382 C 
ATOM     23  O   LIG d   1      -3.440  75.309 114.317  0.00  0.00    -0.241 OA
ATOM     24  O   LIG d   1      -2.914  76.112 116.252  0.00  0.00    -0.241 OA
ENDBRANCH   3  22
TORSDOF 7
ENDMDL
MODEL 2
REMARK VINA RESULT:      -4.0      3.124      6.540
REMARK  7 active torsions:
REMARK  status: ('A' for Active; 'I' for Inactive)
REMARK    1  A    between atoms: C_2  and  C_3 
REMARK    2  A    between atoms: C_3  and  O_6 
REMARK    3  A    between atoms: C_3  and  C_4 
REMARK    4  A    between atoms: C_7  and  O_6 
REMARK    5  A    between atoms: C_9  and  C_10 
REMARK    6  A    between atoms: N_15  and  C_14 
REMARK    7  A    between atoms: N_20  and  C_19 
REMARK       I    between atoms: C_22  and  N_20 
ROOT
ATOM      1  C   LIG d   1      -1.013  78.968 116.593  0.00  0.00     0.161 C 
ATOM      2  C   LIG d   1      -0.198  79.823 115.832  0.00  0.00     0.016 C 
ATOM      3  C   LIG d   1       1.213  79.830 115.915  0.00  0.00     0.038 C 
ATOM      4  C   LIG d   1       1.917  78.872 116.660  0.00  0.00     0.028 C 
ATOM      5  C   LIG d   1       1.122  78.315 117.836  0.00  0.00    -0.047 C 
ATOM      6  C   LIG d   1      -0.259  77.841 117.328  0.00  0.00     0.091 C 
ENDROOT
BRANCH   1   7
ATOM      7  O   LIG d   1      -2.053  78.416 115.762  0.00  0.00    -0.368 OA
BRANCH   7   8
ATOM      8  C   LIG d   1      -1.633  77.902 114.473  0.00  0.00     0.119 C 
BRANCH   8   9
ATOM      9  C   LIG d   1      -2.544  78.536 113.404  0.00  0.00     0.028 C 
ATOM     10  C   LIG d   1      -1.753  79.044 112.186  0.00  0.00     0.006 C 
ENDBRANCH   8   9
BRANCH   8  11
ATOM     11  C   LIG d   1      -1.876  76.394 114.370  0.00  0.00     0.028 C 
ATOM     12  C   LIG d   1      -2.884  75.879 115.409  0.00  0.00     0.006 C 
ENDBRANCH   8  11
ENDBRANCH   7   8
ENDBRANCH   1   7
BRANCH   6  13
ATOM     13  N   LIG d   1      -1.133  77.359 118.429  0.00  0.00    -0.311 N 
ATOM     14  C   LIG d   1      -1.230  76.078 118.781  0.00  0.00     0.210 C 
ATOM     15  C   LIG d   1      -2.204  75.795 119.929  0.00  0.00     0.109 C 
ATOM     16  O   LIG d   1      -0.579  75.153 118.272  0.00  0.00    -0.276 OA
ATOM     17  H   LIG d   1      -1.674  78.046 118.917  0.00  0.00     0.149 HD
ENDBRANCH   6  13
BRANCH   5  18
ATOM     18  N   LIG d   1       1.920  77.231 118.440  0.00  0.00     0.381 N 
ATOM     19  H   LIG d   1       2.886  77.491 118.458  0.00  0.00    -0.090 HD
ATOM     20  H   LIG d   1       1.826  76.405 117.876  0.00  0.00    -0.090 HD
ATOM     21  H   LIG d   1       1.600  77.048 119.366  0.00  0.00    -0.090 HD
ENDBRANCH   5  18
BRANCH   3  22
ATOM     22  C   LIG d   1       1.934  80.830 115.280  0.00  0.00     0.382 C 
ATOM     23  O   LIG d   1       2.947  81.321 115.833  0.00  0.00    -0.241 OA
ATOM     24  O   LIG d   1       1.558  81.277 114.179  0.00  0.00    -0.241 OA
ENDBRANCH   3  22
TORSDOF 7
ENDMDL
MODEL 3
REMARK VINA RESULT:      -4.0      2.554      5.051
REMARK  7 active torsions:
REMARK  status: ('A' for Active; 'I' for Inactive)
REMARK    1  A    between atoms: C_2  and  C_3 
REMARK    2  A    between atoms: C_3  and  O_6 
REMARK    3  A    between atoms: C_3  and  C_4 
REMARK    4  A    between atoms: C_7  and  O_6 
REMARK    5  A    between atoms: C_9  and  C_10 
REMARK    6  A    between atoms: N_15  and  C_14 
REMARK    7  A    between atoms: N_20  and  C_19 
REMARK       I    between atoms: C_22  and  N_20 
ROOT
ATOM      1  C   LIG d   1      -1.001  79.041 115.872  0.00  0.00     0.161 C 
ATOM      2  C   LIG d   1      -1.228  79.867 114.758  0.00  0.00     0.016 C 
ATOM      3  C   LIG d   1      -2.016  79.480 113.650  0.00  0.00     0.038 C 
ATOM      4  C   LIG d   1      -2.760  78.291 113.649  0.00  0.00     0.028 C 
ATOM      5  C   LIG d   1      -2.162  77.201 114.532  0.00  0.00    -0.047 C 
ATOM      6  C   LIG d   1      -1.895  77.785 115.938  0.00  0.00     0.091 C 
ENDROOT
BRANCH   1   7
ATOM      7  O   LIG d   1      -1.128  79.810 117.085  0.00  0.00    -0.368 OA
BRANCH   7   8
ATOM      8  C   LIG d   1       0.111  80.165 117.747  0.00  0.00     0.119 C 
BRANCH   8   9
ATOM      9  C   LIG d   1       0.161  79.392 119.079  0.00  0.00     0.028 C 
ATOM     10  C   LIG d   1       1.244  78.300 119.083  0.00  0.00     0.006 C 
ENDBRANCH   8   9
BRANCH   8  11
ATOM     11  C   LIG d   1       0.130  81.646 118.136  0.00  0.00     0.028 C 
ATOM     12  C   LIG d   1      -1.077  82.052 118.997  0.00  0.00     0.006 C 
ENDBRANCH   8  11
ENDBRANCH   7   8
ENDBRANCH   1   7
BRANCH   6  13
ATOM     13  N   LIG d   1      -1.233  76.808 116.841  0.00  0.00    -0.311 N 
ATOM     14  C   LIG d   1      -1.896  76.042 117.706  0.00  0.00     0.210 C 
ATOM     15  C   LIG d   1      -1.018  75.118 118.556  0.00  0.00     0.109 C 
ATOM     16  O   LIG d   1      -3.130  76.017 117.827  0.00  0.00    -0.276 OA
ATOM     17  H   LIG d   1      -0.235  76.741 116.787  0.00  0.00     0.149 HD
ENDBRANCH   6  13
BRANCH   5  18
ATOM     18  N   LIG d   1      -3.109  76.069 114.546  0.00  0.00     0.381 N 
ATOM     19  H   LIG d   1      -3.500  75.944 113.634  0.00  0.00    -0.090 HD
ATOM     20  H   LIG d   1      -3.856  76.279 115.184  0.00  0.00    -0.090 HD
ATOM     21  H   LIG d   1      -2.641  75.237 114.833  0.00  0.00    -0.090 HD
ENDBRANCH   5  18
BRANCH   3  22
ATOM     22  C   LIG d   1      -2.033  80.269 112.510  0.00  0.00     0.382 C 
ATOM     23  O   LIG d   1      -2.633  81.371 112.520  0.00  0.00    -0.241 OA
ATOM     24  O   LIG d   1      -1.494  79.873 111.460  0.00  0.00    -0.241 OA
ENDBRANCH   3  22
TORSDOF 7
ENDMDL
MODEL 4
REMARK VINA RESULT:      -3.9      2.999      6.423
REMARK  7 active torsions:
REMARK  status: ('A' for Active; 'I' for Inactive)
REMARK    1  A    between atoms: C_2  and  C_3 
REMARK    2  A    between atoms: C_3  and  O_6 
REMARK    3  A    between atoms: C_3  and  C_4 
REMARK    4  A    between atoms: C_7  and  O_6 
REMARK    5  A    between atoms: C_9  and  C_10 
REMARK    6  A    between atoms: N_15  and  C_14 
REMARK    7  A    between atoms: N_20  and  C_19 
REMARK       I    between atoms: C_22  and  N_20 
ROOT
ATOM      1  C   LIG d   1      -0.454  79.081 116.150  0.00  0.00     0.161 C 
ATOM      2  C   LIG d   1       0.614  79.966 115.926  0.00  0.00     0.016 C 
ATOM      3  C   LIG d   1       1.853  79.877 116.602  0.00  0.00     0.038 C 
ATOM      4  C   LIG d   1       2.163  78.798 117.443  0.00  0.00     0.028 C 
ATOM      5  C   LIG d   1       0.936  78.159 118.085  0.00  0.00    -0.047 C 
ATOM      6  C   LIG d   1      -0.095  77.831 116.982  0.00  0.00     0.091 C 
ENDROOT
BRANCH   1   7
ATOM      7  O   LIG d   1      -1.039  78.693 114.891  0.00  0.00    -0.368 OA
BRANCH   7   8
ATOM      8  C   LIG d   1      -2.420  79.077 114.685  0.00  0.00     0.119 C 
BRANCH   8   9
ATOM      9  C   LIG d   1      -3.206  77.803 114.317  0.00  0.00     0.028 C 
ATOM     10  C   LIG d   1      -2.284  76.597 114.071  0.00  0.00     0.006 C 
ENDBRANCH   8   9
BRANCH   8  11
ATOM     11  C   LIG d   1      -2.566  80.006 113.476  0.00  0.00     0.028 C 
ATOM     12  C   LIG d   1      -1.350  79.957 112.537  0.00  0.00     0.006 C 
ENDBRANCH   8  11
ENDBRANCH   7   8
ENDBRANCH   1   7
BRANCH   6  13
ATOM     13  N   LIG d   1      -1.360  77.280 117.533  0.00  0.00    -0.311 N 
ATOM     14  C   LIG d   1      -1.604  75.975 117.644  0.00  0.00     0.210 C 
ATOM     15  C   LIG d   1      -2.979  75.622 118.221  0.00  0.00     0.109 C 
ATOM     16  O   LIG d   1      -0.800  75.078 117.351  0.00  0.00    -0.276 OA
ATOM     17  H   LIG d   1      -2.056  77.938 117.825  0.00  0.00     0.149 HD
ENDBRANCH   6  13
BRANCH   5  18
ATOM     18  N   LIG d   1       1.391  76.966 118.824  0.00  0.00     0.381 N 
ATOM     19  H   LIG d   1       0.691  76.689 119.483  0.00  0.00    -0.090 HD
ATOM     20  H   LIG d   1       2.228  77.196 119.331  0.00  0.00    -0.090 HD
ATOM     21  H   LIG d   1       1.573  76.220 118.189  0.00  0.00    -0.090 HD
ENDBRANCH   5  18
BRANCH   3  22
ATOM     22  C   LIG d   1       2.782  80.897 116.470  0.00  0.00     0.382 C 
ATOM     23  O   LIG d   1       2.664  81.737 115.545  0.00  0.00    -0.241 OA
ATOM     24  O   LIG d   1       3.762  80.962 117.236  0.00  0.00    -0.241 OA
ENDBRANCH   3  22
TORSDOF 7
ENDMDL
MODEL 5
REMARK VINA RESULT:      -3.8      3.352      4.675
REMARK  7 active torsions:
REMARK  status: ('A' for Active; 'I' for Inactive)
REMARK    1  A    between atoms: C_2  and  C_3 
REMARK    2  A    between atoms: C_3  and  O_6 
REMARK    3  A    between atoms: C_3  and  C_4 
REMARK    4  A    between atoms: C_7  and  O_6 
REMARK    5  A    between atoms: C_9  and  C_10 
REMARK    6  A    between atoms: N_15  and  C_14 
REMARK    7  A    between atoms: N_20  and  C_19 
REMARK       I    between atoms: C_22  and  N_20 
ROOT
ATOM      1  C   LIG d   1       1.335  79.225 118.134  0.00  0.00     0.161 C 
ATOM      2  C   LIG d   1       0.859  77.927 118.384  0.00  0.00     0.016 C 
ATOM      3  C   LIG d   1      -0.167  77.315 117.629  0.00  0.00     0.038 C 
ATOM      4  C   LIG d   1      -0.686  77.906 116.467  0.00  0.00     0.028 C 
ATOM      5  C   LIG d   1      -0.593  79.429 116.469  0.00  0.00    -0.047 C 
ATOM      6  C   LIG d   1       0.859  79.842 116.802  0.00  0.00     0.091 C 
ENDROOT
BRANCH   1   7
ATOM      7  O   LIG d   1       2.774  79.240 118.206  0.00  0.00    -0.368 OA
BRANCH   7   8
ATOM      8  C   LIG d   1       3.450  78.062 117.702  0.00  0.00     0.119 C 
BRANCH   8   9
ATOM      9  C   LIG d   1       4.568  77.706 118.701  0.00  0.00     0.028 C 
ATOM     10  C   LIG d   1       4.277  76.406 119.469  0.00  0.00     0.006 C 
ENDBRANCH   8   9
BRANCH   8  11
ATOM     11  C   LIG d   1       4.166  78.354 116.379  0.00  0.00     0.028 C 
ATOM     12  C   LIG d   1       5.693  78.217 116.485  0.00  0.00     0.006 C 
ENDBRANCH   8  11
ENDBRANCH   7   8
ENDBRANCH   1   7
BRANCH   6  13
ATOM     13  N   LIG d   1       1.018  81.316 116.907  0.00  0.00    -0.311 N 
ATOM     14  C   LIG d   1       1.995  81.993 116.306  0.00  0.00     0.210 C 
ATOM     15  C   LIG d   1       1.988  83.503 116.561  0.00  0.00     0.109 C 
ATOM     16  O   LIG d   1       2.848  81.489 115.560  0.00  0.00    -0.276 OA
ATOM     17  H   LIG d   1       0.351  81.808 117.468  0.00  0.00     0.149 HD
ENDBRANCH   6  13
BRANCH   5  18
ATOM     18  N   LIG d   1      -1.041  79.904 115.146  0.00  0.00     0.381 N 
ATOM     19  H   LIG d   1      -1.136  79.128 114.522  0.00  0.00    -0.090 HD
ATOM     20  H   LIG d   1      -0.346  80.526 114.772  0.00  0.00    -0.090 HD
ATOM     21  H   LIG d   1      -1.912  80.380 115.232  0.00  0.00    -0.090 HD
ENDBRANCH   5  18
BRANCH   3  22
ATOM     22  C   LIG d   1      -0.713  76.114 118.057  0.00  0.00     0.382 C 
ATOM     23  O   LIG d   1      -0.133  75.443 118.944  0.00  0.00    -0.241 OA
ATOM     24  O   LIG d   1      -1.755  75.673 117.536  0.00  0.00    -0.241 OA
ENDBRANCH   3  22
TORSDOF 7
ENDMDL
MODEL 6
REMARK VINA RESULT:      -3.8      1.738      4.551
REMARK  7 active torsions:
REMARK  status: ('A' for Active; 'I' for Inactive)
REMARK    1  A    between atoms: C_2  and  C_3 
REMARK    2  A    between atoms: C_3  and  O_6 
REMARK    3  A    between atoms: C_3  and  C_4 
REMARK    4  A    between atoms: C_7  and  O_6 
REMARK    5  A    between atoms: C_9  and  C_10 
REMARK    6  A    between atoms: N_15  and  C_14 
REMARK    7  A    between atoms: N_20  and  C_19 
REMARK       I    between atoms: C_22  and  N_20 
ROOT
ATOM      1  C   LIG d   1      -1.178  79.229 114.775  0.00  0.00     0.161 C 
ATOM      2  C   LIG d   1      -0.444  80.052 113.906  0.00  0.00     0.016 C 
ATOM      3  C   LIG d   1      -0.672  80.112 112.512  0.00  0.00     0.038 C 
ATOM      4  C   LIG d   1      -1.759  79.460 111.910  0.00  0.00     0.028 C 
ATOM      5  C   LIG d   1      -2.219  78.220 112.671  0.00  0.00    -0.047 C 
ATOM      6  C   LIG d   1      -2.440  78.595 114.154  0.00  0.00     0.091 C 
ENDROOT
BRANCH   1   7
ATOM      7  O   LIG d   1      -1.521  79.962 115.968  0.00  0.00    -0.368 OA
BRANCH   7   8
ATOM      8  C   LIG d   1      -0.821  79.575 117.177  0.00  0.00     0.119 C 
BRANCH   8   9
ATOM      9  C   LIG d   1       0.116  80.737 117.560  0.00  0.00     0.028 C 
ATOM     10  C   LIG d   1      -0.537  81.714 118.553  0.00  0.00     0.006 C 
ENDBRANCH   8   9
BRANCH   8  11
ATOM     11  C   LIG d   1       0.100  78.377 116.928  0.00  0.00     0.028 C 
ATOM     12  C   LIG d   1      -0.276  77.151 117.774  0.00  0.00     0.006 C 
ENDBRANCH   8  11
ENDBRANCH   7   8
ENDBRANCH   1   7
BRANCH   6  13
ATOM     13  N   LIG d   1      -2.810  77.421 114.986  0.00  0.00    -0.311 N 
ATOM     14  C   LIG d   1      -2.311  76.200 114.795  0.00  0.00     0.210 C 
ATOM     15  C   LIG d   1      -2.841  75.128 115.752  0.00  0.00     0.109 C 
ATOM     16  O   LIG d   1      -1.457  75.911 113.944  0.00  0.00    -0.276 OA
ATOM     17  H   LIG d   1      -3.474  77.572 115.720  0.00  0.00     0.149 HD
ENDBRANCH   6  13
BRANCH   5  18
ATOM     18  N   LIG d   1      -3.440  77.720 112.012  0.00  0.00     0.381 N 
ATOM     19  H   LIG d   1      -3.879  77.032 112.590  0.00  0.00    -0.090 HD
ATOM     20  H   LIG d   1      -3.186  77.286 111.142  0.00  0.00    -0.090 HD
ATOM     21  H   LIG d   1      -4.070  78.474 111.844  0.00  0.00    -0.090 HD
ENDBRANCH   5  18
BRANCH   3  22
ATOM     22  C   LIG d   1       0.216  80.798 111.698  0.00  0.00     0.382 C 
ATOM     23  O   LIG d   1       1.407  80.954 112.062  0.00  0.00    -0.241 OA
ATOM     24  O   LIG d   1      -0.169  81.301 110.625  0.00  0.00    -0.241 OA
ENDBRANCH   3  22
TORSDOF 7
ENDMDL
MODEL 7
REMARK VINA RESULT:      -3.7      3.226      4.843
REMARK  7 active torsions:
REMARK  status: ('A' for Active; 'I' for Inactive)
REMARK    1  A    between atoms: C_2  and  C_3 
REMARK    2  A    between atoms: C_3  and  O_6 
REMARK    3  A    between atoms: C_3  and  C_4 
REMARK    4  A    between atoms: C_7  and  O_6 
REMARK    5  A    between atoms: C_9  and  C_10 
REMARK    6  A    between atoms: N_15  and  C_14 
REMARK    7  A    between atoms: N_20  and  C_19 
REMARK       I    between atoms: C_22  and  N_20 
ROOT
ATOM      1  C   LIG d   1      -0.221  78.970 116.278  0.00  0.00     0.161 C 
ATOM      2  C   LIG d   1      -1.203  78.981 115.273  0.00  0.00     0.016 C 
ATOM      3  C   LIG d   1      -1.945  77.838 114.897  0.00  0.00     0.038 C 
ATOM      4  C   LIG d   1      -1.861  76.632 115.609  0.00  0.00     0.028 C 
ATOM      5  C   LIG d   1      -0.518  76.432 116.305  0.00  0.00    -0.047 C 
ATOM      6  C   LIG d   1      -0.194  77.691 117.141  0.00  0.00     0.091 C 
ENDROOT
BRANCH   1   7
ATOM      7  O   LIG d   1      -0.363  80.135 117.114  0.00  0.00    -0.368 OA
BRANCH   7   8
ATOM      8  C   LIG d   1       0.866  80.800 117.495  0.00  0.00     0.119 C 
BRANCH   8   9
ATOM      9  C   LIG d   1       0.488  82.182 118.064  0.00  0.00     0.028 C 
ATOM     10  C   LIG d   1      -0.821  82.146 118.871  0.00  0.00     0.006 C 
ENDBRANCH   8   9
BRANCH   8  11
ATOM     11  C   LIG d   1       1.744  81.091 116.274  0.00  0.00     0.028 C 
ATOM     12  C   LIG d   1       2.226  82.550 116.221  0.00  0.00     0.006 C 
ENDBRANCH   8  11
ENDBRANCH   7   8
ENDBRANCH   1   7
BRANCH   6  13
ATOM     13  N   LIG d   1       1.142  77.613 117.787  0.00  0.00    -0.311 N 
ATOM     14  C   LIG d   1       1.314  77.495 119.103  0.00  0.00     0.210 C 
ATOM     15  C   LIG d   1       2.775  77.452 119.563  0.00  0.00     0.109 C 
ATOM     16  O   LIG d   1       0.396  77.389 119.930  0.00  0.00    -0.276 OA
ATOM     17  H   LIG d   1       1.943  77.660 117.188  0.00  0.00     0.149 HD
ENDBRANCH   6  13
BRANCH   5  18
ATOM     18  N   LIG d   1      -0.617  75.206 117.119  0.00  0.00     0.381 N 
ATOM     19  H   LIG d   1       0.280  74.978 117.498  0.00  0.00    -0.090 HD
ATOM     20  H   LIG d   1      -0.913  74.448 116.531  0.00  0.00    -0.090 HD
ATOM     21  H   LIG d   1      -1.273  75.339 117.857  0.00  0.00    -0.090 HD
ENDBRANCH   5  18
BRANCH   3  22
ATOM     22  C   LIG d   1      -2.754  77.883 113.772  0.00  0.00     0.382 C 
ATOM     23  O   LIG d   1      -3.073  76.821 113.186  0.00  0.00    -0.241 OA
ATOM     24  O   LIG d   1      -3.132  78.976 113.309  0.00  0.00    -0.241 OA
ENDBRANCH   3  22
TORSDOF 7
ENDMDL
MODEL 8
REMARK VINA RESULT:      -3.5      3.419      5.441
REMARK  7 active torsions:
REMARK  status: ('A' for Active; 'I' for Inactive)
REMARK    1  A    between atoms: C_2  and  C_3 
REMARK    2  A    between atoms: C_3  and  O_6 
REMARK    3  A    between atoms: C_3  and  C_4 
REMARK    4  A    between atoms: C_7  and  O_6 
REMARK    5  A    between atoms: C_9  and  C_10 
REMARK    6  A    between atoms: N_15  and  C_14 
REMARK    7  A    between atoms: N_20  and  C_19 
REMARK       I    between atoms: C_22  and  N_20 
ROOT
ATOM      1  C   LIG d   1      -0.074  79.350 117.095  0.00  0.00     0.161 C 
ATOM      2  C   LIG d   1      -1.095  79.592 116.161  0.00  0.00     0.016 C 
ATOM      3  C   LIG d   1      -1.865  78.566 115.566  0.00  0.00     0.038 C 
ATOM      4  C   LIG d   1      -1.766  77.230 115.981  0.00  0.00     0.028 C 
ATOM      5  C   LIG d   1      -0.400  76.873 116.556  0.00  0.00    -0.047 C 
ATOM      6  C   LIG d   1      -0.027  77.908 117.642  0.00  0.00     0.091 C 
ENDROOT
BRANCH   1   7
ATOM      7  O   LIG d   1      -0.169  80.294 118.179  0.00  0.00    -0.368 OA
BRANCH   7   8
ATOM      8  C   LIG d   1      -1.501  80.768 118.497  0.00  0.00     0.119 C 
BRANCH   8   9
ATOM      9  C   LIG d   1      -1.357  82.167 119.126  0.00  0.00     0.028 C 
ATOM     10  C   LIG d   1      -0.038  82.855 118.732  0.00  0.00     0.006 C 
ENDBRANCH   8   9
BRANCH   8  11
ATOM     11  C   LIG d   1      -2.156  79.903 119.578  0.00  0.00     0.028 C 
ATOM     12  C   LIG d   1      -3.440  79.213 119.092  0.00  0.00     0.006 C 
ENDBRANCH   8  11
ENDBRANCH   7   8
ENDBRANCH   1   7
BRANCH   6  13
ATOM     13  N   LIG d   1       1.333  77.682 118.198  0.00  0.00    -0.311 N 
ATOM     14  C   LIG d   1       1.568  76.950 119.286  0.00  0.00     0.210 C 
ATOM     15  C   LIG d   1       3.040  76.862 119.700  0.00  0.00     0.109 C 
ATOM     16  O   LIG d   1       0.701  76.341 119.929  0.00  0.00    -0.276 OA
ATOM     17  H   LIG d   1       2.099  78.114 117.720  0.00  0.00     0.149 HD
ENDBRANCH   6  13
BRANCH   5  18
ATOM     18  N   LIG d   1      -0.480  75.494 117.074  0.00  0.00     0.381 N 
ATOM     19  H   LIG d   1       0.431  75.180 117.343  0.00  0.00    -0.090 HD
ATOM     20  H   LIG d   1      -0.818  74.892 116.345  0.00  0.00    -0.090 HD
ATOM     21  H   LIG d   1      -1.096  75.459 117.856  0.00  0.00    -0.090 HD
ENDBRANCH   5  18
BRANCH   3  22
ATOM     22  C   LIG d   1      -2.718  78.868 114.516  0.00  0.00     0.382 C 
ATOM     23  O   LIG d   1      -3.123  77.956 113.755  0.00  0.00    -0.241 OA
ATOM     24  O   LIG d   1      -3.051  80.047 114.292  0.00  0.00    -0.241 OA
ENDBRANCH   3  22
TORSDOF 7
ENDMDL
MODEL 9
REMARK VINA RESULT:      -3.5      2.831      5.291
REMARK  7 active torsions:
REMARK  status: ('A' for Active; 'I' for Inactive)
REMARK    1  A    between atoms: C_2  and  C_3 
REMARK    2  A    between atoms: C_3  and  O_6 
REMARK    3  A    between atoms: C_3  and  C_4 
REMARK    4  A    between atoms: C_7  and  O_6 
REMARK    5  A    between atoms: C_9  and  C_10 
REMARK    6  A    between atoms: N_15  and  C_14 
REMARK    7  A    between atoms: N_20  and  C_19 
REMARK       I    between atoms: C_22  and  N_20 
ROOT
ATOM      1  C   LIG d   1      -0.921  78.121 117.087  0.00  0.00     0.161 C 
ATOM      2  C   LIG d   1      -0.131  78.419 118.210  0.00  0.00     0.016 C 
ATOM      3  C   LIG d   1       0.928  79.356 118.190  0.00  0.00     0.038 C 
ATOM      4  C   LIG d   1       1.173  80.174 117.077  0.00  0.00     0.028 C 
ATOM      5  C   LIG d   1       0.726  79.553 115.758  0.00  0.00    -0.047 C 
ATOM      6  C   LIG d   1      -0.741  79.085 115.895  0.00  0.00     0.091 C 
ENDROOT
BRANCH   1   7
ATOM      7  O   LIG d   1      -2.309  78.053 117.471  0.00  0.00    -0.368 OA
BRANCH   7   8
ATOM      8  C   LIG d   1      -2.901  76.731 117.487  0.00  0.00     0.119 C 
BRANCH   8   9
ATOM      9  C   LIG d   1      -2.981  76.277 118.957  0.00  0.00     0.028 C 
ATOM     10  C   LIG d   1      -1.913  75.227 119.306  0.00  0.00     0.006 C 
ENDBRANCH   8   9
BRANCH   8  11
ATOM     11  C   LIG d   1      -1.997  75.707 116.795  0.00  0.00     0.028 C 
ATOM     12  C   LIG d   1      -2.668  75.044 115.581  0.00  0.00     0.006 C 
ENDBRANCH   8  11
ENDBRANCH   7   8
ENDBRANCH   1   7
BRANCH   6  13
ATOM     13  N   LIG d   1      -1.230  78.389 114.677  0.00  0.00    -0.311 N 
ATOM     14  C   LIG d   1      -2.366  78.706 114.058  0.00  0.00     0.210 C 
ATOM     15  C   LIG d   1      -2.695  77.850 112.831  0.00  0.00     0.109 C 
ATOM     16  O   LIG d   1      -3.117  79.635 114.391  0.00  0.00    -0.276 OA
ATOM     17  H   LIG d   1      -0.667  77.642 114.320  0.00  0.00     0.149 HD
ENDBRANCH   6  13
BRANCH   5  18
ATOM     18  N   LIG d   1       0.913  80.566 114.702  0.00  0.00     0.381 N 
ATOM     19  H   LIG d   1       0.870  80.130 113.803  0.00  0.00    -0.090 HD
ATOM     20  H   LIG d   1       1.822  80.982 114.808  0.00  0.00    -0.090 HD
ATOM     21  H   LIG d   1       0.209  81.267 114.774  0.00  0.00    -0.090 HD
ENDBRANCH   5  18
BRANCH   3  22
ATOM     22  C   LIG d   1       1.781  79.452 119.279  0.00  0.00     0.382 C 
ATOM     23  O   LIG d   1       2.265  78.414 119.790  0.00  0.00    -0.241 OA
ATOM     24  O   LIG d   1       2.038  80.562 119.784  0.00  0.00    -0.241 OA
ENDBRANCH   3  22
TORSDOF 7
ENDMDL
