MODEL 1
REMARK VINA RESULT:      -4.9      0.000      0.000
REMARK  7 active torsions:
REMARK  status: ('A' for Active; 'I' for Inactive)
REMARK    1  A    between atoms: C_2  and  C_3 
REMARK    2  A    between atoms: C_3  and  O_6 
REMARK    3  A    between atoms: C_3  and  C_4 
REMARK    4  A    between atoms: C_7  and  O_6 
REMARK    5  A    between atoms: C_9  and  C_10 
REMARK    6  A    between atoms: N_15  and  C_14 
REMARK    7  A    between atoms: N_20  and  C_19 
REMARK       I    between atoms: C_22  and  N_20 
ROOT
ATOM      1  C   LIG d   1      -1.632  77.807 116.070  0.00  0.00     0.161 C 
ATOM      2  C   LIG d   1      -2.384  78.340 115.010  0.00  0.00     0.016 C 
ATOM      3  C   LIG d   1      -2.115  78.065 113.649  0.00  0.00     0.038 C 
ATOM      4  C   LIG d   1      -1.162  77.111 113.260  0.00  0.00     0.028 C 
ATOM      5  C   LIG d   1      -0.039  76.928 114.276  0.00  0.00    -0.047 C 
ATOM      6  C   LIG d   1      -0.659  76.678 115.670  0.00  0.00     0.091 C 
ENDROOT
BRANCH   1   7
ATOM      7  O   LIG d   1      -2.514  77.360 117.118  0.00  0.00    -0.368 OA
BRANCH   7   8
ATOM      8  C   LIG d   1      -2.826  78.332 118.147  0.00  0.00     0.119 C 
BRANCH   8   9
ATOM      9  C   LIG d   1      -1.515  79.053 118.515  0.00  0.00     0.028 C 
ATOM     10  C   LIG d   1      -1.736  80.538 118.850  0.00  0.00     0.006 C 
ENDBRANCH   8   9
BRANCH   8  11
ATOM     11  C   LIG d   1      -3.290  77.649 119.437  0.00  0.00     0.028 C 
ATOM     12  C   LIG d   1      -2.364  76.501 119.869  0.00  0.00     0.006 C 
ENDBRANCH   8  11
ENDBRANCH   7   8
ENDBRANCH   1   7
BRANCH   6  13
ATOM     13  N   LIG d   1       0.369  76.572 116.737  0.00  0.00    -0.311 N 
ATOM     14  C   LIG d   1       0.413  75.572 117.616  0.00  0.00     0.210 C 
ATOM     15  C   LIG d   1       1.544  75.665 118.645  0.00  0.00     0.109 C 
ATOM     16  O   LIG d   1      -0.357  74.600 117.620  0.00  0.00    -0.276 OA
ATOM     17  H   LIG d   1       1.053  77.302 116.786  0.00  0.00     0.149 HD
ENDBRANCH   6  13
BRANCH   5  18
ATOM     18  N   LIG d   1       0.805  75.811 113.810  0.00  0.00     0.381 N 
ATOM     19  H   LIG d   1       0.806  75.782 112.810  0.00  0.00    -0.090 HD
ATOM     20  H   LIG d   1       0.419  74.948 114.151  0.00  0.00    -0.090 HD
ATOM     21  H   LIG d   1       1.735  75.924 114.147  0.00  0.00    -0.090 HD
ENDBRANCH   5  18
BRANCH   3  22
ATOM     22  C   LIG d   1      -2.776  78.777 112.660  0.00  0.00     0.382 C 
ATOM     23  O   LIG d   1      -2.782  80.031 112.688  0.00  0.00    -0.241 OA
ATOM     24  O   LIG d   1      -3.403  78.180 111.765  0.00  0.00    -0.241 OA
ENDBRANCH   3  22
TORSDOF 7
ENDMDL
MODEL 2
REMARK VINA RESULT:      -4.7      1.940      2.500
REMARK  7 active torsions:
REMARK  status: ('A' for Active; 'I' for Inactive)
REMARK    1  A    between atoms: C_2  and  C_3 
REMARK    2  A    between atoms: C_3  and  O_6 
REMARK    3  A    between atoms: C_3  and  C_4 
REMARK    4  A    between atoms: C_7  and  O_6 
REMARK    5  A    between atoms: C_9  and  C_10 
REMARK    6  A    between atoms: N_15  and  C_14 
REMARK    7  A    between atoms: N_20  and  C_19 
REMARK       I    between atoms: C_22  and  N_20 
ROOT
ATOM      1  C   LIG d   1      -0.072  77.190 116.467  0.00  0.00     0.161 C 
ATOM      2  C   LIG d   1      -0.549  77.866 115.333  0.00  0.00     0.016 C 
ATOM      3  C   LIG d   1      -1.717  77.485 114.633  0.00  0.00     0.038 C 
ATOM      4  C   LIG d   1      -2.575  76.485 115.113  0.00  0.00     0.028 C 
ATOM      5  C   LIG d   1      -1.870  75.442 115.974  0.00  0.00    -0.047 C 
ATOM      6  C   LIG d   1      -1.056  76.166 117.071  0.00  0.00     0.091 C 
ENDROOT
BRANCH   1   7
ATOM      7  O   LIG d   1       0.336  78.143 117.469  0.00  0.00    -0.368 OA
BRANCH   7   8
ATOM      8  C   LIG d   1      -0.393  79.395 117.492  0.00  0.00     0.119 C 
BRANCH   8   9
ATOM      9  C   LIG d   1       0.615  80.511 117.830  0.00  0.00     0.028 C 
ATOM     10  C   LIG d   1      -0.035  81.676 118.595  0.00  0.00     0.006 C 
ENDBRANCH   8   9
BRANCH   8  11
ATOM     11  C   LIG d   1      -1.422  79.420 118.626  0.00  0.00     0.028 C 
ATOM     12  C   LIG d   1      -2.850  79.124 118.141  0.00  0.00     0.006 C 
ENDBRANCH   8  11
ENDBRANCH   7   8
ENDBRANCH   1   7
BRANCH   6  13
ATOM     13  N   LIG d   1      -0.267  75.222 117.906  0.00  0.00    -0.311 N 
ATOM     14  C   LIG d   1      -0.296  75.222 119.238  0.00  0.00     0.210 C 
ATOM     15  C   LIG d   1       0.608  74.180 119.904  0.00  0.00     0.109 C 
ATOM     16  O   LIG d   1      -1.009  75.964 119.930  0.00  0.00    -0.276 OA
ATOM     17  H   LIG d   1       0.315  74.565 117.425  0.00  0.00     0.149 HD
ENDBRANCH   6  13
BRANCH   5  18
ATOM     18  N   LIG d   1      -2.903  74.541 116.519  0.00  0.00     0.381 N 
ATOM     19  H   LIG d   1      -3.188  73.889 115.817  0.00  0.00    -0.090 HD
ATOM     20  H   LIG d   1      -3.703  75.088 116.786  0.00  0.00    -0.090 HD
ATOM     21  H   LIG d   1      -2.546  74.054 117.311  0.00  0.00    -0.090 HD
ENDBRANCH   5  18
BRANCH   3  22
ATOM     22  C   LIG d   1      -2.014  78.080 113.416  0.00  0.00     0.382 C 
ATOM     23  O   LIG d   1      -1.600  77.566 112.349  0.00  0.00    -0.241 OA
ATOM     24  O   LIG d   1      -2.653  79.148 113.375  0.00  0.00    -0.241 OA
ENDBRANCH   3  22
TORSDOF 7
ENDMDL
MODEL 3
REMARK VINA RESULT:      -4.6      2.282      3.384
REMARK  7 active torsions:
REMARK  status: ('A' for Active; 'I' for Inactive)
REMARK    1  A    between atoms: C_2  and  C_3 
REMARK    2  A    between atoms: C_3  and  O_6 
REMARK    3  A    between atoms: C_3  and  C_4 
REMARK    4  A    between atoms: C_7  and  O_6 
REMARK    5  A    between atoms: C_9  and  C_10 
REMARK    6  A    between atoms: N_15  and  C_14 
REMARK    7  A    between atoms: N_20  and  C_19 
REMARK       I    between atoms: C_22  and  N_20 
ROOT
ATOM      1  C   LIG d   1      -0.413  77.394 116.304  0.00  0.00     0.161 C 
ATOM      2  C   LIG d   1      -0.939  78.050 115.179  0.00  0.00     0.016 C 
ATOM      3  C   LIG d   1      -2.069  77.586 114.466  0.00  0.00     0.038 C 
ATOM      4  C   LIG d   1      -2.844  76.511 114.924  0.00  0.00     0.028 C 
ATOM      5  C   LIG d   1      -2.059  75.514 115.770  0.00  0.00    -0.047 C 
ATOM      6  C   LIG d   1      -1.311  76.282 116.884  0.00  0.00     0.091 C 
ENDROOT
BRANCH   1   7
ATOM      7  O   LIG d   1      -0.088  78.359 117.325  0.00  0.00    -0.368 OA
BRANCH   7   8
ATOM      8  C   LIG d   1       1.295  78.786 117.382  0.00  0.00     0.119 C 
BRANCH   8   9
ATOM      9  C   LIG d   1       1.972  78.011 118.529  0.00  0.00     0.028 C 
ATOM     10  C   LIG d   1       2.949  76.940 118.017  0.00  0.00     0.006 C 
ENDBRANCH   8   9
BRANCH   8  11
ATOM     11  C   LIG d   1       1.407  80.263 117.770  0.00  0.00     0.028 C 
ATOM     12  C   LIG d   1       2.075  81.116 116.680  0.00  0.00     0.006 C 
ENDBRANCH   8  11
ENDBRANCH   7   8
ENDBRANCH   1   7
BRANCH   6  13
ATOM     13  N   LIG d   1      -0.451  75.392 117.706  0.00  0.00    -0.311 N 
ATOM     14  C   LIG d   1      -0.654  75.171 119.004  0.00  0.00     0.210 C 
ATOM     15  C   LIG d   1       0.362  74.235 119.667  0.00  0.00     0.109 C 
ATOM     16  O   LIG d   1      -1.597  75.635 119.662  0.00  0.00    -0.276 OA
ATOM     17  H   LIG d   1       0.320  74.949 117.245  0.00  0.00     0.149 HD
ENDBRANCH   6  13
BRANCH   5  18
ATOM     18  N   LIG d   1      -3.016  74.522 116.293  0.00  0.00     0.381 N 
ATOM     19  H   LIG d   1      -3.098  74.621 117.285  0.00  0.00    -0.090 HD
ATOM     20  H   LIG d   1      -2.669  73.600 116.096  0.00  0.00    -0.090 HD
ATOM     21  H   LIG d   1      -3.906  74.648 115.865  0.00  0.00    -0.090 HD
ENDBRANCH   5  18
BRANCH   3  22
ATOM     22  C   LIG d   1      -2.409  78.177 113.259  0.00  0.00     0.382 C 
ATOM     23  O   LIG d   1      -2.360  77.509 112.198  0.00  0.00    -0.241 OA
ATOM     24  O   LIG d   1      -2.722  79.382 113.211  0.00  0.00    -0.241 OA
ENDBRANCH   3  22
TORSDOF 7
ENDMDL
MODEL 4
REMARK VINA RESULT:      -4.5      1.974      4.736
REMARK  7 active torsions:
REMARK  status: ('A' for Active; 'I' for Inactive)
REMARK    1  A    between atoms: C_2  and  C_3 
REMARK    2  A    between atoms: C_3  and  O_6 
REMARK    3  A    between atoms: C_3  and  C_4 
REMARK    4  A    between atoms: C_7  and  O_6 
REMARK    5  A    between atoms: C_9  and  C_10 
REMARK    6  A    between atoms: N_15  and  C_14 
REMARK    7  A    between atoms: N_20  and  C_19 
REMARK       I    between atoms: C_22  and  N_20 
ROOT
ATOM      1  C   LIG d   1      -1.109  78.067 116.028  0.00  0.00     0.161 C 
ATOM      2  C   LIG d   1      -1.243  77.079 117.018  0.00  0.00     0.016 C 
ATOM      3  C   LIG d   1      -0.798  75.748 116.854  0.00  0.00     0.038 C 
ATOM      4  C   LIG d   1      -0.047  75.349 115.738  0.00  0.00     0.028 C 
ATOM      5  C   LIG d   1      -0.327  76.182 114.491  0.00  0.00    -0.047 C 
ATOM      6  C   LIG d   1      -0.194  77.680 114.848  0.00  0.00     0.091 C 
ENDROOT
BRANCH   1   7
ATOM      7  O   LIG d   1      -0.662  79.300 116.625  0.00  0.00    -0.368 OA
BRANCH   7   8
ATOM      8  C   LIG d   1       0.126  79.174 117.835  0.00  0.00     0.119 C 
BRANCH   8   9
ATOM      9  C   LIG d   1      -0.276  80.329 118.772  0.00  0.00     0.028 C 
ATOM     10  C   LIG d   1      -1.802  80.495 118.877  0.00  0.00     0.006 C 
ENDBRANCH   8   9
BRANCH   8  11
ATOM     11  C   LIG d   1       1.617  79.381 117.552  0.00  0.00     0.028 C 
ATOM     12  C   LIG d   1       2.398  78.059 117.476  0.00  0.00     0.006 C 
ENDBRANCH   8  11
ENDBRANCH   7   8
ENDBRANCH   1   7
BRANCH   6  13
ATOM     13  N   LIG d   1      -0.534  78.567 113.705  0.00  0.00    -0.311 N 
ATOM     14  C   LIG d   1      -1.530  78.319 112.856  0.00  0.00     0.210 C 
ATOM     15  C   LIG d   1      -1.697  79.352 111.736  0.00  0.00     0.109 C 
ATOM     16  O   LIG d   1      -2.311  77.360 112.942  0.00  0.00    -0.276 OA
ATOM     17  H   LIG d   1       0.029  79.385 113.579  0.00  0.00     0.149 HD
ENDBRANCH   6  13
BRANCH   5  18
ATOM     18  N   LIG d   1       0.619  75.750 113.445  0.00  0.00     0.381 N 
ATOM     19  H   LIG d   1       1.524  76.138 113.625  0.00  0.00    -0.090 HD
ATOM     20  H   LIG d   1       0.300  76.093 112.556  0.00  0.00    -0.090 HD
ATOM     21  H   LIG d   1       0.675  74.755 113.425  0.00  0.00    -0.090 HD
ENDBRANCH   5  18
BRANCH   3  22
ATOM     22  C   LIG d   1      -1.137  74.788 117.795  0.00  0.00     0.382 C 
ATOM     23  O   LIG d   1      -2.231  74.181 117.705  0.00  0.00    -0.241 OA
ATOM     24  O   LIG d   1      -0.384  74.554 118.759  0.00  0.00    -0.241 OA
ENDBRANCH   3  22
TORSDOF 7
ENDMDL
MODEL 5
REMARK VINA RESULT:      -4.5      7.411      9.672
REMARK  7 active torsions:
REMARK  status: ('A' for Active; 'I' for Inactive)
REMARK    1  A    between atoms: C_2  and  C_3 
REMARK    2  A    between atoms: C_3  and  O_6 
REMARK    3  A    between atoms: C_3  and  C_4 
REMARK    4  A    between atoms: C_7  and  O_6 
REMARK    5  A    between atoms: C_9  and  C_10 
REMARK    6  A    between atoms: N_15  and  C_14 
REMARK    7  A    between atoms: N_20  and  C_19 
REMARK       I    between atoms: C_22  and  N_20 
ROOT
ATOM      1  C   LIG d   1       3.925  82.726 113.298  0.00  0.00     0.161 C 
ATOM      2  C   LIG d   1       5.100  82.464 114.024  0.00  0.00     0.016 C 
ATOM      3  C   LIG d   1       5.103  82.037 115.371  0.00  0.00     0.038 C 
ATOM      4  C   LIG d   1       3.920  81.695 116.043  0.00  0.00     0.028 C 
ATOM      5  C   LIG d   1       2.690  82.425 115.515  0.00  0.00    -0.047 C 
ATOM      6  C   LIG d   1       2.625  82.252 113.980  0.00  0.00     0.091 C 
ENDROOT
BRANCH   1   7
ATOM      7  O   LIG d   1       4.032  82.163 111.976  0.00  0.00    -0.368 OA
BRANCH   7   8
ATOM      8  C   LIG d   1       4.708  82.980 110.988  0.00  0.00     0.119 C 
BRANCH   8   9
ATOM      9  C   LIG d   1       3.935  84.308 110.878  0.00  0.00     0.028 C 
ATOM     10  C   LIG d   1       2.769  84.227 109.879  0.00  0.00     0.006 C 
ENDBRANCH   8   9
BRANCH   8  11
ATOM     11  C   LIG d   1       4.630  82.348 109.595  0.00  0.00     0.028 C 
ATOM     12  C   LIG d   1       4.736  80.815 109.629  0.00  0.00     0.006 C 
ENDBRANCH   8  11
ENDBRANCH   7   8
ENDBRANCH   1   7
BRANCH   6  13
ATOM     13  N   LIG d   1       1.498  83.006 113.372  0.00  0.00    -0.311 N 
ATOM     14  C   LIG d   1       0.660  82.479 112.480  0.00  0.00     0.210 C 
ATOM     15  C   LIG d   1      -0.420  83.435 111.964  0.00  0.00     0.109 C 
ATOM     16  O   LIG d   1       0.690  81.302 112.091  0.00  0.00    -0.276 OA
ATOM     17  H   LIG d   1       1.381  83.959 113.655  0.00  0.00     0.149 HD
ENDBRANCH   6  13
BRANCH   5  18
ATOM     18  N   LIG d   1       1.511  81.873 116.209  0.00  0.00     0.381 N 
ATOM     19  H   LIG d   1       0.904  81.432 115.547  0.00  0.00    -0.090 HD
ATOM     20  H   LIG d   1       1.009  82.626 116.645  0.00  0.00    -0.090 HD
ATOM     21  H   LIG d   1       1.799  81.213 116.898  0.00  0.00    -0.090 HD
ENDBRANCH   5  18
BRANCH   3  22
ATOM     22  C   LIG d   1       6.297  81.986 116.074  0.00  0.00     0.382 C 
ATOM     23  O   LIG d   1       6.656  80.918 116.624  0.00  0.00    -0.241 OA
ATOM     24  O   LIG d   1       6.999  83.008 116.201  0.00  0.00    -0.241 OA
ENDBRANCH   3  22
TORSDOF 7
ENDMDL
MODEL 6
REMARK VINA RESULT:      -4.2      2.004      2.599
REMARK  7 active torsions:
REMARK  status: ('A' for Active; 'I' for Inactive)
REMARK    1  A    between atoms: C_2  and  C_3 
REMARK    2  A    between atoms: C_3  and  O_6 
REMARK    3  A    between atoms: C_3  and  C_4 
REMARK    4  A    between atoms: C_7  and  O_6 
REMARK    5  A    between atoms: C_9  and  C_10 
REMARK    6  A    between atoms: N_15  and  C_14 
REMARK    7  A    between atoms: N_20  and  C_19 
REMARK       I    between atoms: C_22  and  N_20 
ROOT
ATOM      1  C   LIG d   1      -1.600  77.804 116.965  0.00  0.00     0.161 C 
ATOM      2  C   LIG d   1      -1.797  78.358 115.689  0.00  0.00     0.016 C 
ATOM      3  C   LIG d   1      -2.485  77.692 114.648  0.00  0.00     0.038 C 
ATOM      4  C   LIG d   1      -3.157  76.479 114.862  0.00  0.00     0.028 C 
ATOM      5  C   LIG d   1      -2.559  75.645 115.990  0.00  0.00    -0.047 C 
ATOM      6  C   LIG d   1      -2.422  76.530 117.250  0.00  0.00     0.091 C 
ENDROOT
BRANCH   1   7
ATOM      7  O   LIG d   1      -1.853  78.800 117.975  0.00  0.00    -0.368 OA
BRANCH   7   8
ATOM      8  C   LIG d   1      -0.719  79.181 118.792  0.00  0.00     0.119 C 
BRANCH   8   9
ATOM      9  C   LIG d   1      -0.838  80.692 119.072  0.00  0.00     0.028 C 
ATOM     10  C   LIG d   1      -2.293  81.134 119.302  0.00  0.00     0.006 C 
ENDBRANCH   8   9
BRANCH   8  11
ATOM     11  C   LIG d   1       0.599  79.012 118.031  0.00  0.00     0.028 C 
ATOM     12  C   LIG d   1       1.095  80.323 117.401  0.00  0.00     0.006 C 
ENDBRANCH   8  11
ENDBRANCH   7   8
ENDBRANCH   1   7
BRANCH   6  13
ATOM     13  N   LIG d   1      -1.767  75.815 118.376  0.00  0.00    -0.311 N 
ATOM     14  C   LIG d   1      -0.525  75.338 118.318  0.00  0.00     0.210 C 
ATOM     15  C   LIG d   1      -0.049  74.616 119.583  0.00  0.00     0.109 C 
ATOM     16  O   LIG d   1       0.240  75.473 117.351  0.00  0.00    -0.276 OA
ATOM     17  H   LIG d   1      -2.305  75.689 119.211  0.00  0.00     0.149 HD
ENDBRANCH   6  13
BRANCH   5  18
ATOM     18  N   LIG d   1      -3.437  74.478 116.195  0.00  0.00     0.381 N 
ATOM     19  H   LIG d   1      -4.190  74.501 115.537  0.00  0.00    -0.090 HD
ATOM     20  H   LIG d   1      -3.825  74.522 117.121  0.00  0.00    -0.090 HD
ATOM     21  H   LIG d   1      -2.916  73.636 116.085  0.00  0.00    -0.090 HD
ENDBRANCH   5  18
BRANCH   3  22
ATOM     22  C   LIG d   1      -2.470  78.220 113.366  0.00  0.00     0.382 C 
ATOM     23  O   LIG d   1      -2.609  79.455 113.196  0.00  0.00    -0.241 OA
ATOM     24  O   LIG d   1      -2.363  77.471 112.376  0.00  0.00    -0.241 OA
ENDBRANCH   3  22
TORSDOF 7
ENDMDL
MODEL 7
REMARK VINA RESULT:      -4.2      1.942      2.506
REMARK  7 active torsions:
REMARK  status: ('A' for Active; 'I' for Inactive)
REMARK    1  A    between atoms: C_2  and  C_3 
REMARK    2  A    between atoms: C_3  and  O_6 
REMARK    3  A    between atoms: C_3  and  C_4 
REMARK    4  A    between atoms: C_7  and  O_6 
REMARK    5  A    between atoms: C_9  and  C_10 
REMARK    6  A    between atoms: N_15  and  C_14 
REMARK    7  A    between atoms: N_20  and  C_19 
REMARK       I    between atoms: C_22  and  N_20 
ROOT
ATOM      1  C   LIG d   1      -0.977  77.986 117.211  0.00  0.00     0.161 C 
ATOM      2  C   LIG d   1      -1.759  78.362 116.107  0.00  0.00     0.016 C 
ATOM      3  C   LIG d   1      -2.123  77.470 115.072  0.00  0.00     0.038 C 
ATOM      4  C   LIG d   1      -1.855  76.095 115.149  0.00  0.00     0.028 C 
ATOM      5  C   LIG d   1      -0.632  75.764 115.998  0.00  0.00    -0.047 C 
ATOM      6  C   LIG d   1      -0.769  76.465 117.369  0.00  0.00     0.091 C 
ENDROOT
BRANCH   1   7
ATOM      7  O   LIG d   1      -1.537  78.543 118.418  0.00  0.00    -0.368 OA
BRANCH   7   8
ATOM      8  C   LIG d   1      -1.413  79.978 118.575  0.00  0.00     0.119 C 
BRANCH   8   9
ATOM      9  C   LIG d   1       0.030  80.271 119.028  0.00  0.00     0.028 C 
ATOM     10  C   LIG d   1       0.808  81.111 118.001  0.00  0.00     0.006 C 
ENDBRANCH   8   9
BRANCH   8  11
ATOM     11  C   LIG d   1      -2.306  80.493 119.707  0.00  0.00     0.028 C 
ATOM     12  C   LIG d   1      -2.362  82.028 119.770  0.00  0.00     0.006 C 
ENDBRANCH   8  11
ENDBRANCH   7   8
ENDBRANCH   1   7
BRANCH   6  13
ATOM     13  N   LIG d   1       0.425  76.262 118.231  0.00  0.00    -0.311 N 
ATOM     14  C   LIG d   1       1.612  76.812 117.981  0.00  0.00     0.210 C 
ATOM     15  C   LIG d   1       2.713  76.457 118.985  0.00  0.00     0.109 C 
ATOM     16  O   LIG d   1       1.849  77.586 117.041  0.00  0.00    -0.276 OA
ATOM     17  H   LIG d   1       0.313  75.673 119.033  0.00  0.00     0.149 HD
ENDBRANCH   6  13
BRANCH   5  18
ATOM     18  N   LIG d   1      -0.550  74.295 116.106  0.00  0.00     0.381 N 
ATOM     19  H   LIG d   1      -1.036  73.871 115.341  0.00  0.00    -0.090 HD
ATOM     20  H   LIG d   1      -0.993  74.006 116.960  0.00  0.00    -0.090 HD
ATOM     21  H   LIG d   1       0.404  74.006 116.104  0.00  0.00    -0.090 HD
ENDBRANCH   5  18
BRANCH   3  22
ATOM     22  C   LIG d   1      -2.729  77.959 113.924  0.00  0.00     0.382 C 
ATOM     23  O   LIG d   1      -3.439  77.203 113.219  0.00  0.00    -0.241 OA
ATOM     24  O   LIG d   1      -2.539  79.136 113.562  0.00  0.00    -0.241 OA
ENDBRANCH   3  22
TORSDOF 7
ENDMDL
MODEL 8
REMARK VINA RESULT:      -4.1      6.484      8.111
REMARK  7 active torsions:
REMARK  status: ('A' for Active; 'I' for Inactive)
REMARK    1  A    between atoms: C_2  and  C_3 
REMARK    2  A    between atoms: C_3  and  O_6 
REMARK    3  A    between atoms: C_3  and  C_4 
REMARK    4  A    between atoms: C_7  and  O_6 
REMARK    5  A    between atoms: C_9  and  C_10 
REMARK    6  A    between atoms: N_15  and  C_14 
REMARK    7  A    between atoms: N_20  and  C_19 
REMARK       I    between atoms: C_22  and  N_20 
ROOT
ATOM      1  C   LIG d   1       2.203  82.515 112.687  0.00  0.00     0.161 C 
ATOM      2  C   LIG d   1       2.860  82.223 111.480  0.00  0.00     0.016 C 
ATOM      3  C   LIG d   1       4.260  82.060 111.376  0.00  0.00     0.038 C 
ATOM      4  C   LIG d   1       5.089  82.029 112.508  0.00  0.00     0.028 C 
ATOM      5  C   LIG d   1       4.534  82.822 113.686  0.00  0.00    -0.047 C 
ATOM      6  C   LIG d   1       3.078  82.376 113.950  0.00  0.00     0.091 C 
ENDROOT
BRANCH   1   7
ATOM      7  O   LIG d   1       1.017  81.705 112.806  0.00  0.00    -0.368 OA
BRANCH   7   8
ATOM      8  C   LIG d   1       0.199  81.592 111.616  0.00  0.00     0.119 C 
BRANCH   8   9
ATOM      9  C   LIG d   1      -0.762  82.797 111.600  0.00  0.00     0.028 C 
ATOM     10  C   LIG d   1      -0.379  83.839 110.536  0.00  0.00     0.006 C 
ENDBRANCH   8   9
BRANCH   8  11
ATOM     11  C   LIG d   1      -0.703  80.355 111.674  0.00  0.00     0.028 C 
ATOM     12  C   LIG d   1      -0.425  79.362 110.534  0.00  0.00     0.006 C 
ENDBRANCH   8  11
ENDBRANCH   7   8
ENDBRANCH   1   7
BRANCH   6  13
ATOM     13  N   LIG d   1       2.432  83.161 115.034  0.00  0.00    -0.311 N 
ATOM     14  C   LIG d   1       2.506  82.832 116.322  0.00  0.00     0.210 C 
ATOM     15  C   LIG d   1       1.751  83.766 117.273  0.00  0.00     0.109 C 
ATOM     16  O   LIG d   1       3.153  81.874 116.771  0.00  0.00    -0.276 OA
ATOM     17  H   LIG d   1       1.912  83.973 114.761  0.00  0.00     0.149 HD
ENDBRANCH   6  13
BRANCH   5  18
ATOM     18  N   LIG d   1       5.427  82.591 114.838  0.00  0.00     0.381 N 
ATOM     19  H   LIG d   1       4.895  82.601 115.686  0.00  0.00    -0.090 HD
ATOM     20  H   LIG d   1       6.101  83.335 114.880  0.00  0.00    -0.090 HD
ATOM     21  H   LIG d   1       5.892  81.716 114.739  0.00  0.00    -0.090 HD
ENDBRANCH   5  18
BRANCH   3  22
ATOM     22  C   LIG d   1       4.850  81.965 110.125  0.00  0.00     0.382 C 
ATOM     23  O   LIG d   1       5.016  82.996 109.430  0.00  0.00    -0.241 OA
ATOM     24  O   LIG d   1       5.178  80.855 109.664  0.00  0.00    -0.241 OA
ENDBRANCH   3  22
TORSDOF 7
ENDMDL
MODEL 9
REMARK VINA RESULT:      -3.7      2.289      3.338
REMARK  7 active torsions:
REMARK  status: ('A' for Active; 'I' for Inactive)
REMARK    1  A    between atoms: C_2  and  C_3 
REMARK    2  A    between atoms: C_3  and  O_6 
REMARK    3  A    between atoms: C_3  and  C_4 
REMARK    4  A    between atoms: C_7  and  O_6 
REMARK    5  A    between atoms: C_9  and  C_10 
REMARK    6  A    between atoms: N_15  and  C_14 
REMARK    7  A    between atoms: N_20  and  C_19 
REMARK       I    between atoms: C_22  and  N_20 
ROOT
ATOM      1  C   LIG d   1      -0.842  78.635 117.876  0.00  0.00     0.161 C 
ATOM      2  C   LIG d   1      -1.735  78.640 116.791  0.00  0.00     0.016 C 
ATOM      3  C   LIG d   1      -1.939  77.525 115.946  0.00  0.00     0.038 C 
ATOM      4  C   LIG d   1      -1.372  76.272 116.222  0.00  0.00     0.028 C 
ATOM      5  C   LIG d   1      -0.071  76.356 117.013  0.00  0.00    -0.047 C 
ATOM      6  C   LIG d   1      -0.298  77.242 118.259  0.00  0.00     0.091 C 
ENDROOT
BRANCH   1   7
ATOM      7  O   LIG d   1      -1.457  79.264 119.018  0.00  0.00    -0.368 OA
BRANCH   7   8
ATOM      8  C   LIG d   1      -0.909  80.547 119.410  0.00  0.00     0.119 C 
BRANCH   8   9
ATOM      9  C   LIG d   1      -2.061  81.570 119.379  0.00  0.00     0.028 C 
ATOM     10  C   LIG d   1      -3.436  80.913 119.583  0.00  0.00     0.006 C 
ENDBRANCH   8   9
BRANCH   8  11
ATOM     11  C   LIG d   1       0.111  81.053 118.386  0.00  0.00     0.028 C 
ATOM     12  C   LIG d   1       0.833  82.330 118.847  0.00  0.00     0.006 C 
ENDBRANCH   8  11
ENDBRANCH   7   8
ENDBRANCH   1   7
BRANCH   6  13
ATOM     13  N   LIG d   1       0.947  77.446 119.044  0.00  0.00    -0.311 N 
ATOM     14  C   LIG d   1       2.067  77.946 118.525  0.00  0.00     0.210 C 
ATOM     15  C   LIG d   1       3.241  78.054 119.503  0.00  0.00     0.109 C 
ATOM     16  O   LIG d   1       2.190  78.340 117.355  0.00  0.00    -0.276 OA
ATOM     17  H   LIG d   1       0.926  77.182 120.010  0.00  0.00     0.149 HD
ENDBRANCH   6  13
BRANCH   5  18
ATOM     18  N   LIG d   1       0.336  74.979 117.349  0.00  0.00     0.381 N 
ATOM     19  H   LIG d   1       1.330  74.891 117.270  0.00  0.00    -0.090 HD
ATOM     20  H   LIG d   1      -0.089  74.346 116.694  0.00  0.00    -0.090 HD
ATOM     21  H   LIG d   1       0.047  74.755 118.275  0.00  0.00    -0.090 HD
ENDBRANCH   5  18
BRANCH   3  22
ATOM     22  C   LIG d   1      -2.687  77.669 114.787  0.00  0.00     0.382 C 
ATOM     23  O   LIG d   1      -3.286  76.680 114.301  0.00  0.00    -0.241 OA
ATOM     24  O   LIG d   1      -2.735  78.766 114.198  0.00  0.00    -0.241 OA
ENDBRANCH   3  22
TORSDOF 7
ENDMDL
