MODEL 1
REMARK VINA RESULT:      -5.4      0.000      0.000
REMARK  7 active torsions:
REMARK  status: ('A' for Active; 'I' for Inactive)
REMARK    1  A    between atoms: C_2  and  C_3 
REMARK    2  A    between atoms: C_3  and  O_6 
REMARK    3  A    between atoms: C_3  and  C_4 
REMARK    4  A    between atoms: C_7  and  O_6 
REMARK    5  A    between atoms: C_9  and  C_10 
REMARK    6  A    between atoms: N_15  and  C_14 
REMARK    7  A    between atoms: N_20  and  C_19 
REMARK       I    between atoms: C_22  and  N_20 
ROOT
ATOM      1  C   LIG d   1      -0.556  81.042 111.737  0.00  0.00     0.161 C 
ATOM      2  C   LIG d   1      -1.307  79.889 111.452  0.00  0.00     0.016 C 
ATOM      3  C   LIG d   1      -2.222  79.312 112.361  0.00  0.00     0.038 C 
ATOM      4  C   LIG d   1      -2.564  79.940 113.568  0.00  0.00     0.028 C 
ATOM      5  C   LIG d   1      -1.460  80.837 114.118  0.00  0.00    -0.047 C 
ATOM      6  C   LIG d   1      -0.997  81.804 113.004  0.00  0.00     0.091 C 
ENDROOT
BRANCH   1   7
ATOM      7  O   LIG d   1      -0.561  81.923 110.595  0.00  0.00    -0.368 OA
BRANCH   7   8
ATOM      8  C   LIG d   1       0.674  81.997 109.842  0.00  0.00     0.119 C 
BRANCH   8   9
ATOM      9  C   LIG d   1       1.760  81.275 110.662  0.00  0.00     0.028 C 
ATOM     10  C   LIG d   1       3.130  81.289 109.963  0.00  0.00     0.006 C 
ENDBRANCH   8   9
BRANCH   8  11
ATOM     11  C   LIG d   1       1.160  83.444 109.711  0.00  0.00     0.028 C 
ATOM     12  C   LIG d   1       0.038  84.471 109.928  0.00  0.00     0.006 C 
ENDBRANCH   8  11
ENDBRANCH   7   8
ENDBRANCH   1   7
BRANCH   6  13
ATOM     13  N   LIG d   1       0.139  82.660 113.432  0.00  0.00    -0.311 N 
ATOM     14  C   LIG d   1       0.062  83.986 113.528  0.00  0.00     0.210 C 
ATOM     15  C   LIG d   1       1.356  84.679 113.969  0.00  0.00     0.109 C 
ATOM     16  O   LIG d   1      -0.963  84.652 113.321  0.00  0.00    -0.276 OA
ATOM     17  H   LIG d   1       1.001  82.199 113.650  0.00  0.00     0.149 HD
ENDBRANCH   6  13
BRANCH   5  18
ATOM     18  N   LIG d   1      -1.999  81.534 115.301  0.00  0.00     0.381 N 
ATOM     19  H   LIG d   1      -2.943  81.816 115.127  0.00  0.00    -0.090 HD
ATOM     20  H   LIG d   1      -1.450  82.358 115.471  0.00  0.00    -0.090 HD
ATOM     21  H   LIG d   1      -1.965  80.934 116.095  0.00  0.00    -0.090 HD
ENDBRANCH   5  18
BRANCH   3  22
ATOM     22  C   LIG d   1      -2.778  78.072 112.084  0.00  0.00     0.382 C 
ATOM     23  O   LIG d   1      -2.648  77.130 112.903  0.00  0.00    -0.241 OA
ATOM     24  O   LIG d   1      -3.368  77.871 111.006  0.00  0.00    -0.241 OA
ENDBRANCH   3  22
TORSDOF 7
ENDMDL
MODEL 2
REMARK VINA RESULT:      -5.2      2.785      6.444
REMARK  7 active torsions:
REMARK  status: ('A' for Active; 'I' for Inactive)
REMARK    1  A    between atoms: C_2  and  C_3 
REMARK    2  A    between atoms: C_3  and  O_6 
REMARK    3  A    between atoms: C_3  and  C_4 
REMARK    4  A    between atoms: C_7  and  O_6 
REMARK    5  A    between atoms: C_9  and  C_10 
REMARK    6  A    between atoms: N_15  and  C_14 
REMARK    7  A    between atoms: N_20  and  C_19 
REMARK       I    between atoms: C_22  and  N_20 
ROOT
ATOM      1  C   LIG d   1      -0.746  80.260 114.463  0.00  0.00     0.161 C 
ATOM      2  C   LIG d   1      -0.865  81.542 113.901  0.00  0.00     0.016 C 
ATOM      3  C   LIG d   1      -1.158  81.769 112.536  0.00  0.00     0.038 C 
ATOM      4  C   LIG d   1      -1.503  80.723 111.668  0.00  0.00     0.028 C 
ATOM      5  C   LIG d   1      -0.903  79.379 112.069  0.00  0.00    -0.047 C 
ATOM      6  C   LIG d   1      -1.229  79.108 113.556  0.00  0.00     0.091 C 
ENDROOT
BRANCH   1   7
ATOM      7  O   LIG d   1      -1.429  80.217 115.732  0.00  0.00    -0.368 OA
BRANCH   7   8
ATOM      8  C   LIG d   1      -2.874  80.131 115.676  0.00  0.00     0.119 C 
BRANCH   8   9
ATOM      9  C   LIG d   1      -3.440  81.406 116.331  0.00  0.00     0.028 C 
ATOM     10  C   LIG d   1      -2.459  82.035 117.334  0.00  0.00     0.006 C 
ENDBRANCH   8   9
BRANCH   8  11
ATOM     11  C   LIG d   1      -3.396  78.971 116.528  0.00  0.00     0.028 C 
ATOM     12  C   LIG d   1      -2.277  78.232 117.278  0.00  0.00     0.006 C 
ENDBRANCH   8  11
ENDBRANCH   7   8
ENDBRANCH   1   7
BRANCH   6  13
ATOM     13  N   LIG d   1      -0.607  77.853 114.053  0.00  0.00    -0.311 N 
ATOM     14  C   LIG d   1      -1.232  76.677 114.055  0.00  0.00     0.210 C 
ATOM     15  C   LIG d   1      -0.417  75.514 114.630  0.00  0.00     0.109 C 
ATOM     16  O   LIG d   1      -2.371  76.480 113.607  0.00  0.00    -0.276 OA
ATOM     17  H   LIG d   1       0.328  77.916 114.406  0.00  0.00     0.149 HD
ENDBRANCH   6  13
BRANCH   5  18
ATOM     18  N   LIG d   1      -1.454  78.356 111.161  0.00  0.00     0.381 N 
ATOM     19  H   LIG d   1      -1.425  78.689 110.218  0.00  0.00    -0.090 HD
ATOM     20  H   LIG d   1      -2.414  78.186 111.406  0.00  0.00    -0.090 HD
ATOM     21  H   LIG d   1      -0.930  77.512 111.239  0.00  0.00    -0.090 HD
ENDBRANCH   5  18
BRANCH   3  22
ATOM     22  C   LIG d   1      -1.068  83.052 112.018  0.00  0.00     0.382 C 
ATOM     23  O   LIG d   1      -1.031  84.039 112.792  0.00  0.00    -0.241 OA
ATOM     24  O   LIG d   1      -1.067  83.238 110.787  0.00  0.00    -0.241 OA
ENDBRANCH   3  22
TORSDOF 7
ENDMDL
MODEL 3
REMARK VINA RESULT:      -5.2      2.041      3.887
REMARK  7 active torsions:
REMARK  status: ('A' for Active; 'I' for Inactive)
REMARK    1  A    between atoms: C_2  and  C_3 
REMARK    2  A    between atoms: C_3  and  O_6 
REMARK    3  A    between atoms: C_3  and  C_4 
REMARK    4  A    between atoms: C_7  and  O_6 
REMARK    5  A    between atoms: C_9  and  C_10 
REMARK    6  A    between atoms: N_15  and  C_14 
REMARK    7  A    between atoms: N_20  and  C_19 
REMARK       I    between atoms: C_22  and  N_20 
ROOT
ATOM      1  C   LIG d   1      -0.974  81.722 112.043  0.00  0.00     0.161 C 
ATOM      2  C   LIG d   1      -1.918  80.718 112.315  0.00  0.00     0.016 C 
ATOM      3  C   LIG d   1      -1.885  79.437 111.716  0.00  0.00     0.038 C 
ATOM      4  C   LIG d   1      -0.812  79.020 110.915  0.00  0.00     0.028 C 
ATOM      5  C   LIG d   1      -0.099  80.170 110.212  0.00  0.00    -0.047 C 
ATOM      6  C   LIG d   1       0.266  81.249 111.257  0.00  0.00     0.091 C 
ENDROOT
BRANCH   1   7
ATOM      7  O   LIG d   1      -0.575  82.362 113.272  0.00  0.00    -0.368 OA
BRANCH   7   8
ATOM      8  C   LIG d   1       0.497  81.720 114.006  0.00  0.00     0.119 C 
BRANCH   8   9
ATOM      9  C   LIG d   1      -0.104  81.168 115.313  0.00  0.00     0.028 C 
ATOM     10  C   LIG d   1      -1.281  82.017 115.822  0.00  0.00     0.006 C 
ENDBRANCH   8   9
BRANCH   8  11
ATOM     11  C   LIG d   1       1.558  82.734 114.443  0.00  0.00     0.028 C 
ATOM     12  C   LIG d   1       1.327  84.132 113.849  0.00  0.00     0.006 C 
ENDBRANCH   8  11
ENDBRANCH   7   8
ENDBRANCH   1   7
BRANCH   6  13
ATOM     13  N   LIG d   1       0.893  82.447 110.641  0.00  0.00    -0.311 N 
ATOM     14  C   LIG d   1       2.210  82.632 110.570  0.00  0.00     0.210 C 
ATOM     15  C   LIG d   1       2.644  83.945 109.912  0.00  0.00     0.109 C 
ATOM     16  O   LIG d   1       3.060  81.818 110.961  0.00  0.00    -0.276 OA
ATOM     17  H   LIG d   1       0.277  83.144 110.270  0.00  0.00     0.149 HD
ENDBRANCH   6  13
BRANCH   5  18
ATOM     18  N   LIG d   1       1.079  79.610 109.524  0.00  0.00     0.381 N 
ATOM     19  H   LIG d   1       0.889  79.519 108.546  0.00  0.00    -0.090 HD
ATOM     20  H   LIG d   1       1.267  78.695 109.894  0.00  0.00    -0.090 HD
ATOM     21  H   LIG d   1       1.869  80.201 109.663  0.00  0.00    -0.090 HD
ENDBRANCH   5  18
BRANCH   3  22
ATOM     22  C   LIG d   1      -2.956  78.572 111.886  0.00  0.00     0.382 C 
ATOM     23  O   LIG d   1      -3.440  78.390 113.029  0.00  0.00    -0.241 OA
ATOM     24  O   LIG d   1      -3.414  77.937 110.917  0.00  0.00    -0.241 OA
ENDBRANCH   3  22
TORSDOF 7
ENDMDL
MODEL 4
REMARK VINA RESULT:      -5.0      3.701      6.967
REMARK  7 active torsions:
REMARK  status: ('A' for Active; 'I' for Inactive)
REMARK    1  A    between atoms: C_2  and  C_3 
REMARK    2  A    between atoms: C_3  and  O_6 
REMARK    3  A    between atoms: C_3  and  C_4 
REMARK    4  A    between atoms: C_7  and  O_6 
REMARK    5  A    between atoms: C_9  and  C_10 
REMARK    6  A    between atoms: N_15  and  C_14 
REMARK    7  A    between atoms: N_20  and  C_19 
REMARK       I    between atoms: C_22  and  N_20 
ROOT
ATOM      1  C   LIG d   1      -1.153  78.999 115.096  0.00  0.00     0.161 C 
ATOM      2  C   LIG d   1      -1.707  80.285 114.995  0.00  0.00     0.016 C 
ATOM      3  C   LIG d   1      -2.178  80.836 113.780  0.00  0.00     0.038 C 
ATOM      4  C   LIG d   1      -2.265  80.074 112.606  0.00  0.00     0.028 C 
ATOM      5  C   LIG d   1      -1.251  78.937 112.544  0.00  0.00    -0.047 C 
ATOM      6  C   LIG d   1      -1.342  78.112 113.848  0.00  0.00     0.091 C 
ENDROOT
BRANCH   1   7
ATOM      7  O   LIG d   1      -1.672  78.334 116.266  0.00  0.00    -0.368 OA
BRANCH   7   8
ATOM      8  C   LIG d   1      -0.945  78.555 117.499  0.00  0.00     0.119 C 
BRANCH   8   9
ATOM      9  C   LIG d   1       0.044  77.386 117.670  0.00  0.00     0.028 C 
ATOM     10  C   LIG d   1      -0.659  76.018 117.669  0.00  0.00     0.006 C 
ENDBRANCH   8   9
BRANCH   8  11
ATOM     11  C   LIG d   1      -1.875  78.481 118.715  0.00  0.00     0.028 C 
ATOM     12  C   LIG d   1      -3.312  78.921 118.393  0.00  0.00     0.006 C 
ENDBRANCH   8  11
ENDBRANCH   7   8
ENDBRANCH   1   7
BRANCH   6  13
ATOM     13  N   LIG d   1      -0.325  77.030 113.906  0.00  0.00    -0.311 N 
ATOM     14  C   LIG d   1      -0.633  75.741 114.036  0.00  0.00     0.210 C 
ATOM     15  C   LIG d   1       0.568  74.792 114.095  0.00  0.00     0.109 C 
ATOM     16  O   LIG d   1      -1.788  75.290 114.075  0.00  0.00    -0.276 OA
ATOM     17  H   LIG d   1       0.636  77.304 113.850  0.00  0.00     0.149 HD
ENDBRANCH   6  13
BRANCH   5  18
ATOM     18  N   LIG d   1      -1.544  78.144 111.335  0.00  0.00     0.381 N 
ATOM     19  H   LIG d   1      -2.258  77.473 111.536  0.00  0.00    -0.090 HD
ATOM     20  H   LIG d   1      -0.714  77.648 111.063  0.00  0.00    -0.090 HD
ATOM     21  H   LIG d   1      -1.840  78.744 110.597  0.00  0.00    -0.090 HD
ENDBRANCH   5  18
BRANCH   3  22
ATOM     22  C   LIG d   1      -2.530  82.176 113.724  0.00  0.00     0.382 C 
ATOM     23  O   LIG d   1      -3.417  82.623 114.491  0.00  0.00    -0.241 OA
ATOM     24  O   LIG d   1      -2.005  82.933 112.887  0.00  0.00    -0.241 OA
ENDBRANCH   3  22
TORSDOF 7
ENDMDL
MODEL 5
REMARK VINA RESULT:      -5.0      2.515      5.830
REMARK  7 active torsions:
REMARK  status: ('A' for Active; 'I' for Inactive)
REMARK    1  A    between atoms: C_2  and  C_3 
REMARK    2  A    between atoms: C_3  and  O_6 
REMARK    3  A    between atoms: C_3  and  C_4 
REMARK    4  A    between atoms: C_7  and  O_6 
REMARK    5  A    between atoms: C_9  and  C_10 
REMARK    6  A    between atoms: N_15  and  C_14 
REMARK    7  A    between atoms: N_20  and  C_19 
REMARK       I    between atoms: C_22  and  N_20 
ROOT
ATOM      1  C   LIG d   1       0.102  81.482 112.881  0.00  0.00     0.161 C 
ATOM      2  C   LIG d   1       1.062  82.402 112.427  0.00  0.00     0.016 C 
ATOM      3  C   LIG d   1       1.500  82.470 111.084  0.00  0.00     0.038 C 
ATOM      4  C   LIG d   1       0.892  81.718 110.067  0.00  0.00     0.028 C 
ATOM      5  C   LIG d   1       0.270  80.418 110.564  0.00  0.00    -0.047 C 
ATOM      6  C   LIG d   1      -0.652  80.730 111.765  0.00  0.00     0.091 C 
ENDROOT
BRANCH   1   7
ATOM      7  O   LIG d   1      -0.831  82.144 113.759  0.00  0.00    -0.368 OA
BRANCH   7   8
ATOM      8  C   LIG d   1      -0.541  82.062 115.176  0.00  0.00     0.119 C 
BRANCH   8   9
ATOM      9  C   LIG d   1       0.186  80.726 115.423  0.00  0.00     0.028 C 
ATOM     10  C   LIG d   1      -0.738  79.660 116.037  0.00  0.00     0.006 C 
ENDBRANCH   8   9
BRANCH   8  11
ATOM     11  C   LIG d   1      -1.827  81.983 116.004  0.00  0.00     0.028 C 
ATOM     12  C   LIG d   1      -3.070  82.430 115.218  0.00  0.00     0.006 C 
ENDBRANCH   8  11
ENDBRANCH   7   8
ENDBRANCH   1   7
BRANCH   6  13
ATOM     13  N   LIG d   1      -1.236  79.502 112.366  0.00  0.00    -0.311 N 
ATOM     14  C   LIG d   1      -2.527  79.379 112.672  0.00  0.00     0.210 C 
ATOM     15  C   LIG d   1      -2.916  78.037 113.301  0.00  0.00     0.109 C 
ATOM     16  O   LIG d   1      -3.391  80.241 112.454  0.00  0.00    -0.276 OA
ATOM     17  H   LIG d   1      -0.611  78.742 112.547  0.00  0.00     0.149 HD
ENDBRANCH   6  13
BRANCH   5  18
ATOM     18  N   LIG d   1      -0.446  79.804 109.430  0.00  0.00     0.381 N 
ATOM     19  H   LIG d   1      -1.049  80.480 109.004  0.00  0.00    -0.090 HD
ATOM     20  H   LIG d   1      -1.012  79.048 109.773  0.00  0.00    -0.090 HD
ATOM     21  H   LIG d   1       0.207  79.462 108.760  0.00  0.00    -0.090 HD
ENDBRANCH   5  18
BRANCH   3  22
ATOM     22  C   LIG d   1       2.584  83.268 110.755  0.00  0.00     0.382 C 
ATOM     23  O   LIG d   1       3.635  83.212 111.438  0.00  0.00    -0.241 OA
ATOM     24  O   LIG d   1       2.510  84.077 109.810  0.00  0.00    -0.241 OA
ENDBRANCH   3  22
TORSDOF 7
ENDMDL
MODEL 6
REMARK VINA RESULT:      -4.9      2.581      4.548
REMARK  7 active torsions:
REMARK  status: ('A' for Active; 'I' for Inactive)
REMARK    1  A    between atoms: C_2  and  C_3 
REMARK    2  A    between atoms: C_3  and  O_6 
REMARK    3  A    between atoms: C_3  and  C_4 
REMARK    4  A    between atoms: C_7  and  O_6 
REMARK    5  A    between atoms: C_9  and  C_10 
REMARK    6  A    between atoms: N_15  and  C_14 
REMARK    7  A    between atoms: N_20  and  C_19 
REMARK       I    between atoms: C_22  and  N_20 
ROOT
ATOM      1  C   LIG d   1       0.122  83.587 112.838  0.00  0.00     0.161 C 
ATOM      2  C   LIG d   1      -1.031  83.179 113.528  0.00  0.00     0.016 C 
ATOM      3  C   LIG d   1      -1.626  81.906 113.366  0.00  0.00     0.038 C 
ATOM      4  C   LIG d   1      -1.016  80.894 112.611  0.00  0.00     0.028 C 
ATOM      5  C   LIG d   1      -0.120  81.426 111.497  0.00  0.00    -0.047 C 
ATOM      6  C   LIG d   1       0.864  82.457 112.093  0.00  0.00     0.091 C 
ENDROOT
BRANCH   1   7
ATOM      7  O   LIG d   1       1.018  84.265 113.741  0.00  0.00    -0.368 OA
BRANCH   7   8
ATOM      8  C   LIG d   1       2.109  83.472 114.271  0.00  0.00     0.119 C 
BRANCH   8   9
ATOM      9  C   LIG d   1       1.756  83.115 115.728  0.00  0.00     0.028 C 
ATOM     10  C   LIG d   1       1.200  81.688 115.864  0.00  0.00     0.006 C 
ENDBRANCH   8   9
BRANCH   8  11
ATOM     11  C   LIG d   1       3.402  84.289 114.355  0.00  0.00     0.028 C 
ATOM     12  C   LIG d   1       4.068  84.208 115.738  0.00  0.00     0.006 C 
ENDBRANCH   8  11
ENDBRANCH   7   8
ENDBRANCH   1   7
BRANCH   6  13
ATOM     13  N   LIG d   1       1.721  83.089 111.056  0.00  0.00    -0.311 N 
ATOM     14  C   LIG d   1       2.893  82.588 110.669  0.00  0.00     0.210 C 
ATOM     15  C   LIG d   1       3.624  83.407 109.601  0.00  0.00     0.109 C 
ATOM     16  O   LIG d   1       3.380  81.527 111.085  0.00  0.00    -0.276 OA
ATOM     17  H   LIG d   1       1.387  83.938 110.643  0.00  0.00     0.149 HD
ENDBRANCH   6  13
BRANCH   5  18
ATOM     18  N   LIG d   1       0.557  80.270 110.880  0.00  0.00     0.381 N 
ATOM     19  H   LIG d   1       0.027  79.945 110.096  0.00  0.00    -0.090 HD
ATOM     20  H   LIG d   1       0.612  79.527 111.554  0.00  0.00    -0.090 HD
ATOM     21  H   LIG d   1       1.473  80.529 110.585  0.00  0.00    -0.090 HD
ENDBRANCH   5  18
BRANCH   3  22
ATOM     22  C   LIG d   1      -2.865  81.650 113.933  0.00  0.00     0.382 C 
ATOM     23  O   LIG d   1      -3.436  82.532 114.617  0.00  0.00    -0.241 OA
ATOM     24  O   LIG d   1      -3.398  80.531 113.806  0.00  0.00    -0.241 OA
ENDBRANCH   3  22
TORSDOF 7
ENDMDL
MODEL 7
REMARK VINA RESULT:      -4.8      2.123      4.333
REMARK  7 active torsions:
REMARK  status: ('A' for Active; 'I' for Inactive)
REMARK    1  A    between atoms: C_2  and  C_3 
REMARK    2  A    between atoms: C_3  and  O_6 
REMARK    3  A    between atoms: C_3  and  C_4 
REMARK    4  A    between atoms: C_7  and  O_6 
REMARK    5  A    between atoms: C_9  and  C_10 
REMARK    6  A    between atoms: N_15  and  C_14 
REMARK    7  A    between atoms: N_20  and  C_19 
REMARK       I    between atoms: C_22  and  N_20 
ROOT
ATOM      1  C   LIG d   1      -2.092  80.918 113.308  0.00  0.00     0.161 C 
ATOM      2  C   LIG d   1      -2.606  79.754 113.903  0.00  0.00     0.016 C 
ATOM      3  C   LIG d   1      -2.445  78.462 113.352  0.00  0.00     0.038 C 
ATOM      4  C   LIG d   1      -1.623  78.228 112.239  0.00  0.00     0.028 C 
ATOM      5  C   LIG d   1      -1.497  79.434 111.315  0.00  0.00    -0.047 C 
ATOM      6  C   LIG d   1      -1.098  80.670 112.154  0.00  0.00     0.091 C 
ENDROOT
BRANCH   1   7
ATOM      7  O   LIG d   1      -1.491  81.757 114.315  0.00  0.00    -0.368 OA
BRANCH   7   8
ATOM      8  C   LIG d   1      -0.858  81.069 115.422  0.00  0.00     0.119 C 
BRANCH   8   9
ATOM      9  C   LIG d   1      -1.452  81.642 116.723  0.00  0.00     0.028 C 
ATOM     10  C   LIG d   1      -2.925  82.054 116.564  0.00  0.00     0.006 C 
ENDBRANCH   8   9
BRANCH   8  11
ATOM     11  C   LIG d   1       0.640  81.381 115.488  0.00  0.00     0.028 C 
ATOM     12  C   LIG d   1       1.041  82.569 114.599  0.00  0.00     0.006 C 
ENDBRANCH   8  11
ENDBRANCH   7   8
ENDBRANCH   1   7
BRANCH   6  13
ATOM     13  N   LIG d   1      -1.035  81.912 111.339  0.00  0.00    -0.311 N 
ATOM     14  C   LIG d   1       0.096  82.402 110.837  0.00  0.00     0.210 C 
ATOM     15  C   LIG d   1      -0.059  83.704 110.044  0.00  0.00     0.109 C 
ATOM     16  O   LIG d   1       1.209  81.866 110.945  0.00  0.00    -0.276 OA
ATOM     17  H   LIG d   1      -1.897  82.394 111.176  0.00  0.00     0.149 HD
ENDBRANCH   6  13
BRANCH   5  18
ATOM     18  N   LIG d   1      -0.506  79.097 110.275  0.00  0.00     0.381 N 
ATOM     19  H   LIG d   1      -0.470  78.105 110.150  0.00  0.00    -0.090 HD
ATOM     20  H   LIG d   1       0.400  79.410 110.576  0.00  0.00    -0.090 HD
ATOM     21  H   LIG d   1      -0.749  79.539 109.416  0.00  0.00    -0.090 HD
ENDBRANCH   5  18
BRANCH   3  22
ATOM     22  C   LIG d   1      -3.143  77.393 113.892  0.00  0.00     0.382 C 
ATOM     23  O   LIG d   1      -3.440  77.389 115.110  0.00  0.00    -0.241 OA
ATOM     24  O   LIG d   1      -3.440  76.411 113.185  0.00  0.00    -0.241 OA
ENDBRANCH   3  22
TORSDOF 7
ENDMDL
MODEL 8
REMARK VINA RESULT:      -4.8      2.351      5.617
REMARK  7 active torsions:
REMARK  status: ('A' for Active; 'I' for Inactive)
REMARK    1  A    between atoms: C_2  and  C_3 
REMARK    2  A    between atoms: C_3  and  O_6 
REMARK    3  A    between atoms: C_3  and  C_4 
REMARK    4  A    between atoms: C_7  and  O_6 
REMARK    5  A    between atoms: C_9  and  C_10 
REMARK    6  A    between atoms: N_15  and  C_14 
REMARK    7  A    between atoms: N_20  and  C_19 
REMARK       I    between atoms: C_22  and  N_20 
ROOT
ATOM      1  C   LIG d   1      -2.472  81.033 114.164  0.00  0.00     0.161 C 
ATOM      2  C   LIG d   1      -2.259  81.916 113.092  0.00  0.00     0.016 C 
ATOM      3  C   LIG d   1      -0.990  82.444 112.760  0.00  0.00     0.038 C 
ATOM      4  C   LIG d   1       0.184  82.005 113.389  0.00  0.00     0.028 C 
ATOM      5  C   LIG d   1      -0.043  81.496 114.809  0.00  0.00    -0.047 C 
ATOM      6  C   LIG d   1      -1.186  80.456 114.792  0.00  0.00     0.091 C 
ENDROOT
BRANCH   1   7
ATOM      7  O   LIG d   1      -3.351  79.967 113.752  0.00  0.00    -0.368 OA
BRANCH   7   8
ATOM      8  C   LIG d   1      -2.708  78.751 113.298  0.00  0.00     0.119 C 
BRANCH   8   9
ATOM      9  C   LIG d   1      -2.846  78.699 111.764  0.00  0.00     0.028 C 
ATOM     10  C   LIG d   1      -1.523  79.009 111.045  0.00  0.00     0.006 C 
ENDBRANCH   8   9
BRANCH   8  11
ATOM     11  C   LIG d   1      -3.440  77.508 113.814  0.00  0.00     0.028 C 
ATOM     12  C   LIG d   1      -2.481  76.422 114.326  0.00  0.00     0.006 C 
ENDBRANCH   8  11
ENDBRANCH   7   8
ENDBRANCH   1   7
BRANCH   6  13
ATOM     13  N   LIG d   1      -1.530  79.970 116.154  0.00  0.00    -0.311 N 
ATOM     14  C   LIG d   1      -0.980  78.890 116.707  0.00  0.00     0.210 C 
ATOM     15  C   LIG d   1      -1.491  78.552 118.111  0.00  0.00     0.109 C 
ATOM     16  O   LIG d   1      -0.095  78.199 116.181  0.00  0.00    -0.276 OA
ATOM     17  H   LIG d   1      -2.217  80.490 116.664  0.00  0.00     0.149 HD
ENDBRANCH   6  13
BRANCH   5  18
ATOM     18  N   LIG d   1       1.235  80.943 115.294  0.00  0.00     0.381 N 
ATOM     19  H   LIG d   1       1.645  81.569 115.958  0.00  0.00    -0.090 HD
ATOM     20  H   LIG d   1       1.865  80.851 114.517  0.00  0.00    -0.090 HD
ATOM     21  H   LIG d   1       1.083  80.053 115.715  0.00  0.00    -0.090 HD
ENDBRANCH   5  18
BRANCH   3  22
ATOM     22  C   LIG d   1      -0.893  83.454 111.815  0.00  0.00     0.382 C 
ATOM     23  O   LIG d   1      -0.785  84.649 112.182  0.00  0.00    -0.241 OA
ATOM     24  O   LIG d   1      -0.955  83.190 110.599  0.00  0.00    -0.241 OA
ENDBRANCH   3  22
TORSDOF 7
ENDMDL
MODEL 9
REMARK VINA RESULT:      -4.7      2.765      4.975
REMARK  7 active torsions:
REMARK  status: ('A' for Active; 'I' for Inactive)
REMARK    1  A    between atoms: C_2  and  C_3 
REMARK    2  A    between atoms: C_3  and  O_6 
REMARK    3  A    between atoms: C_3  and  C_4 
REMARK    4  A    between atoms: C_7  and  O_6 
REMARK    5  A    between atoms: C_9  and  C_10 
REMARK    6  A    between atoms: N_15  and  C_14 
REMARK    7  A    between atoms: N_20  and  C_19 
REMARK       I    between atoms: C_22  and  N_20 
ROOT
ATOM      1  C   LIG d   1       0.650  83.107 113.589  0.00  0.00     0.161 C 
ATOM      2  C   LIG d   1      -0.554  82.786 114.239  0.00  0.00     0.016 C 
ATOM      3  C   LIG d   1      -1.590  82.040 113.633  0.00  0.00     0.038 C 
ATOM      4  C   LIG d   1      -1.430  81.429 112.380  0.00  0.00     0.028 C 
ATOM      5  C   LIG d   1      -0.429  82.147 111.481  0.00  0.00    -0.047 C 
ATOM      6  C   LIG d   1       0.888  82.356 112.263  0.00  0.00     0.091 C 
ENDROOT
BRANCH   1   7
ATOM      7  O   LIG d   1       1.759  82.903 114.487  0.00  0.00    -0.368 OA
BRANCH   7   8
ATOM      8  C   LIG d   1       1.421  82.499 115.837  0.00  0.00     0.119 C 
BRANCH   8   9
ATOM      9  C   LIG d   1       2.183  83.427 116.802  0.00  0.00     0.028 C 
ATOM     10  C   LIG d   1       3.090  84.425 116.064  0.00  0.00     0.006 C 
ENDBRANCH   8   9
BRANCH   8  11
ATOM     11  C   LIG d   1       1.933  81.088 116.141  0.00  0.00     0.028 C 
ATOM     12  C   LIG d   1       0.797  80.072 116.342  0.00  0.00     0.006 C 
ENDBRANCH   8  11
ENDBRANCH   7   8
ENDBRANCH   1   7
BRANCH   6  13
ATOM     13  N   LIG d   1       1.894  83.125 111.485  0.00  0.00    -0.311 N 
ATOM     14  C   LIG d   1       2.896  82.557 110.817  0.00  0.00     0.210 C 
ATOM     15  C   LIG d   1       3.830  83.535 110.097  0.00  0.00     0.109 C 
ATOM     16  O   LIG d   1       3.081  81.334 110.725  0.00  0.00    -0.276 OA
ATOM     17  H   LIG d   1       1.800  84.122 111.479  0.00  0.00     0.149 HD
ENDBRANCH   6  13
BRANCH   5  18
ATOM     18  N   LIG d   1      -0.256  81.330 110.265  0.00  0.00     0.381 N 
ATOM     19  H   LIG d   1       0.604  80.822 110.318  0.00  0.00    -0.090 HD
ATOM     20  H   LIG d   1      -0.215  81.939 109.467  0.00  0.00    -0.090 HD
ATOM     21  H   LIG d   1      -1.019  80.696 110.169  0.00  0.00    -0.090 HD
ENDBRANCH   5  18
BRANCH   3  22
ATOM     22  C   LIG d   1      -2.819  81.931 114.266  0.00  0.00     0.382 C 
ATOM     23  O   LIG d   1      -3.336  80.801 114.443  0.00  0.00    -0.241 OA
ATOM     24  O   LIG d   1      -3.438  82.951 114.624  0.00  0.00    -0.241 OA
ENDBRANCH   3  22
TORSDOF 7
ENDMDL
