MODEL 1
REMARK VINA RESULT:      -5.2      0.000      0.000
REMARK  7 active torsions:
REMARK  status: ('A' for Active; 'I' for Inactive)
REMARK    1  A    between atoms: C_2  and  C_3 
REMARK    2  A    between atoms: C_3  and  O_6 
REMARK    3  A    between atoms: C_3  and  C_4 
REMARK    4  A    between atoms: C_7  and  O_6 
REMARK    5  A    between atoms: C_9  and  C_10 
REMARK    6  A    between atoms: N_15  and  C_14 
REMARK    7  A    between atoms: N_20  and  C_19 
REMARK       I    between atoms: C_22  and  N_20 
ROOT
ATOM      1  C   LIG d   1      -0.064  82.332 112.981  0.00  0.00     0.161 C 
ATOM      2  C   LIG d   1       0.955  83.163 112.486  0.00  0.00     0.016 C 
ATOM      3  C   LIG d   1       1.646  82.913 111.279  0.00  0.00     0.038 C 
ATOM      4  C   LIG d   1       1.260  81.889 110.402  0.00  0.00     0.028 C 
ATOM      5  C   LIG d   1       0.569  80.722 111.100  0.00  0.00    -0.047 C 
ATOM      6  C   LIG d   1      -0.575  81.272 111.983  0.00  0.00     0.091 C 
ENDROOT
BRANCH   1   7
ATOM      7  O   LIG d   1      -1.159  83.135 113.463  0.00  0.00    -0.368 OA
BRANCH   7   8
ATOM      8  C   LIG d   1      -1.289  83.237 114.903  0.00  0.00     0.119 C 
BRANCH   8   9
ATOM      9  C   LIG d   1      -0.342  82.195 115.528  0.00  0.00     0.028 C 
ATOM     10  C   LIG d   1       0.766  82.843 116.375  0.00  0.00     0.006 C 
ENDBRANCH   8   9
BRANCH   8  11
ATOM     11  C   LIG d   1      -2.693  82.838 115.365  0.00  0.00     0.028 C 
ATOM     12  C   LIG d   1      -2.681  81.683 116.380  0.00  0.00     0.006 C 
ENDBRANCH   8  11
ENDBRANCH   7   8
ENDBRANCH   1   7
BRANCH   6  13
ATOM     13  N   LIG d   1      -1.249  80.204 112.766  0.00  0.00    -0.311 N 
ATOM     14  C   LIG d   1      -2.572  80.112 112.894  0.00  0.00     0.210 C 
ATOM     15  C   LIG d   1      -3.058  78.948 113.762  0.00  0.00     0.109 C 
ATOM     16  O   LIG d   1      -3.389  80.866 112.345  0.00  0.00    -0.276 OA
ATOM     17  H   LIG d   1      -0.662  79.531 113.220  0.00  0.00     0.149 HD
ENDBRANCH   6  13
BRANCH   5  18
ATOM     18  N   LIG d   1       0.098  79.793 110.055  0.00  0.00     0.381 N 
ATOM     19  H   LIG d   1      -0.238  80.311 109.268  0.00  0.00    -0.090 HD
ATOM     20  H   LIG d   1      -0.663  79.249 110.423  0.00  0.00    -0.090 HD
ATOM     21  H   LIG d   1       0.840  79.192 109.774  0.00  0.00    -0.090 HD
ENDBRANCH   5  18
BRANCH   3  22
ATOM     22  C   LIG d   1       2.764  83.668 110.958  0.00  0.00     0.382 C 
ATOM     23  O   LIG d   1       2.647  84.679 110.223  0.00  0.00    -0.241 OA
ATOM     24  O   LIG d   1       3.893  83.327 111.357  0.00  0.00    -0.241 OA
ENDBRANCH   3  22
TORSDOF 7
ENDMDL
MODEL 2
REMARK VINA RESULT:      -5.2      1.674      4.991
REMARK  7 active torsions:
REMARK  status: ('A' for Active; 'I' for Inactive)
REMARK    1  A    between atoms: C_2  and  C_3 
REMARK    2  A    between atoms: C_3  and  O_6 
REMARK    3  A    between atoms: C_3  and  C_4 
REMARK    4  A    between atoms: C_7  and  O_6 
REMARK    5  A    between atoms: C_9  and  C_10 
REMARK    6  A    between atoms: N_15  and  C_14 
REMARK    7  A    between atoms: N_20  and  C_19 
REMARK       I    between atoms: C_22  and  N_20 
ROOT
ATOM      1  C   LIG d   1      -0.639  82.203 112.215  0.00  0.00     0.161 C 
ATOM      2  C   LIG d   1      -1.615  81.316 112.699  0.00  0.00     0.016 C 
ATOM      3  C   LIG d   1      -1.623  79.933 112.408  0.00  0.00     0.038 C 
ATOM      4  C   LIG d   1      -0.562  79.312 111.731  0.00  0.00     0.028 C 
ATOM      5  C   LIG d   1       0.188  80.249 110.791  0.00  0.00    -0.047 C 
ATOM      6  C   LIG d   1       0.586  81.525 111.567  0.00  0.00     0.091 C 
ENDROOT
BRANCH   1   7
ATOM      7  O   LIG d   1      -0.221  83.093 113.269  0.00  0.00    -0.368 OA
BRANCH   7   8
ATOM      8  C   LIG d   1       0.316  82.463 114.458  0.00  0.00     0.119 C 
BRANCH   8   9
ATOM      9  C   LIG d   1      -0.452  83.029 115.668  0.00  0.00     0.028 C 
ATOM     10  C   LIG d   1      -1.055  81.922 116.550  0.00  0.00     0.006 C 
ENDBRANCH   8   9
BRANCH   8  11
ATOM     11  C   LIG d   1       1.779  82.859 114.686  0.00  0.00     0.028 C 
ATOM     12  C   LIG d   1       2.163  84.161 113.964  0.00  0.00     0.006 C 
ENDBRANCH   8  11
ENDBRANCH   7   8
ENDBRANCH   1   7
BRANCH   6  13
ATOM     13  N   LIG d   1       1.251  82.532 110.700  0.00  0.00    -0.311 N 
ATOM     14  C   LIG d   1       2.574  82.660 110.605  0.00  0.00     0.210 C 
ATOM     15  C   LIG d   1       3.050  83.774 109.669  0.00  0.00     0.109 C 
ATOM     16  O   LIG d   1       3.397  81.934 111.183  0.00  0.00    -0.276 OA
ATOM     17  H   LIG d   1       0.658  83.142 110.171  0.00  0.00     0.149 HD
ENDBRANCH   6  13
BRANCH   5  18
ATOM     18  N   LIG d   1       1.348  79.511 110.258  0.00  0.00     0.381 N 
ATOM     19  H   LIG d   1       1.062  78.601 109.957  0.00  0.00    -0.090 HD
ATOM     20  H   LIG d   1       2.028  79.402 110.989  0.00  0.00    -0.090 HD
ATOM     21  H   LIG d   1       1.748  80.010 109.494  0.00  0.00    -0.090 HD
ENDBRANCH   5  18
BRANCH   3  22
ATOM     22  C   LIG d   1      -2.720  79.162 112.761  0.00  0.00     0.382 C 
ATOM     23  O   LIG d   1      -3.316  79.378 113.843  0.00  0.00    -0.241 OA
ATOM     24  O   LIG d   1      -3.095  78.225 112.031  0.00  0.00    -0.241 OA
ENDBRANCH   3  22
TORSDOF 7
ENDMDL
MODEL 3
REMARK VINA RESULT:      -5.1      0.882      1.780
REMARK  7 active torsions:
REMARK  status: ('A' for Active; 'I' for Inactive)
REMARK    1  A    between atoms: C_2  and  C_3 
REMARK    2  A    between atoms: C_3  and  O_6 
REMARK    3  A    between atoms: C_3  and  C_4 
REMARK    4  A    between atoms: C_7  and  O_6 
REMARK    5  A    between atoms: C_9  and  C_10 
REMARK    6  A    between atoms: N_15  and  C_14 
REMARK    7  A    between atoms: N_20  and  C_19 
REMARK       I    between atoms: C_22  and  N_20 
ROOT
ATOM      1  C   LIG d   1       0.684  81.882 112.708  0.00  0.00     0.161 C 
ATOM      2  C   LIG d   1       1.795  82.598 112.233  0.00  0.00     0.016 C 
ATOM      3  C   LIG d   1       2.345  82.417 110.943  0.00  0.00     0.038 C 
ATOM      4  C   LIG d   1       1.724  81.608 109.979  0.00  0.00     0.028 C 
ATOM      5  C   LIG d   1       0.890  80.482 110.580  0.00  0.00    -0.047 C 
ATOM      6  C   LIG d   1      -0.074  81.076 111.631  0.00  0.00     0.091 C 
ENDROOT
BRANCH   1   7
ATOM      7  O   LIG d   1      -0.217  82.774 113.393  0.00  0.00    -0.368 OA
BRANCH   7   8
ATOM      8  C   LIG d   1      -0.359  82.565 114.819  0.00  0.00     0.119 C 
BRANCH   8   9
ATOM      9  C   LIG d   1      -1.828  82.851 115.185  0.00  0.00     0.028 C 
ATOM     10  C   LIG d   1      -2.478  81.689 115.956  0.00  0.00     0.006 C 
ENDBRANCH   8   9
BRANCH   8  11
ATOM     11  C   LIG d   1       0.463  83.583 115.616  0.00  0.00     0.028 C 
ATOM     12  C   LIG d   1       1.543  82.924 116.489  0.00  0.00     0.006 C 
ENDBRANCH   8  11
ENDBRANCH   7   8
ENDBRANCH   1   7
BRANCH   6  13
ATOM     13  N   LIG d   1      -0.868  80.031 112.328  0.00  0.00    -0.311 N 
ATOM     14  C   LIG d   1      -2.178  80.130 112.547  0.00  0.00     0.210 C 
ATOM     15  C   LIG d   1      -2.799  78.949 113.300  0.00  0.00     0.109 C 
ATOM     16  O   LIG d   1      -2.891  81.068 112.161  0.00  0.00    -0.276 OA
ATOM     17  H   LIG d   1      -0.374  79.221 112.648  0.00  0.00     0.149 HD
ENDBRANCH   6  13
BRANCH   5  18
ATOM     18  N   LIG d   1       0.191  79.805 109.471  0.00  0.00     0.381 N 
ATOM     19  H   LIG d   1      -0.062  78.877 109.746  0.00  0.00    -0.090 HD
ATOM     20  H   LIG d   1       0.813  79.742 108.685  0.00  0.00    -0.090 HD
ATOM     21  H   LIG d   1      -0.625  80.318 109.219  0.00  0.00    -0.090 HD
ENDBRANCH   5  18
BRANCH   3  22
ATOM     22  C   LIG d   1       3.552  83.017 110.620  0.00  0.00     0.382 C 
ATOM     23  O   LIG d   1       4.265  83.519 111.523  0.00  0.00    -0.241 OA
ATOM     24  O   LIG d   1       3.917  83.104 109.432  0.00  0.00    -0.241 OA
ENDBRANCH   3  22
TORSDOF 7
ENDMDL
MODEL 4
REMARK VINA RESULT:      -4.9      4.107      6.220
REMARK  7 active torsions:
REMARK  status: ('A' for Active; 'I' for Inactive)
REMARK    1  A    between atoms: C_2  and  C_3 
REMARK    2  A    between atoms: C_3  and  O_6 
REMARK    3  A    between atoms: C_3  and  C_4 
REMARK    4  A    between atoms: C_7  and  O_6 
REMARK    5  A    between atoms: C_9  and  C_10 
REMARK    6  A    between atoms: N_15  and  C_14 
REMARK    7  A    between atoms: N_20  and  C_19 
REMARK       I    between atoms: C_22  and  N_20 
ROOT
ATOM      1  C   LIG d   1      -1.640  77.977 115.566  0.00  0.00     0.161 C 
ATOM      2  C   LIG d   1      -2.213  79.246 115.749  0.00  0.00     0.016 C 
ATOM      3  C   LIG d   1      -2.325  80.206 114.717  0.00  0.00     0.038 C 
ATOM      4  C   LIG d   1      -2.004  79.903 113.385  0.00  0.00     0.028 C 
ATOM      5  C   LIG d   1      -0.952  78.807 113.249  0.00  0.00    -0.047 C 
ATOM      6  C   LIG d   1      -1.386  77.588 114.095  0.00  0.00     0.091 C 
ENDROOT
BRANCH   1   7
ATOM      7  O   LIG d   1      -2.449  76.977 116.217  0.00  0.00    -0.368 OA
BRANCH   7   8
ATOM      8  C   LIG d   1      -1.989  76.532 117.517  0.00  0.00     0.119 C 
BRANCH   8   9
ATOM      9  C   LIG d   1      -0.450  76.608 117.514  0.00  0.00     0.028 C 
ATOM     10  C   LIG d   1       0.206  75.232 117.717  0.00  0.00     0.006 C 
ENDBRANCH   8   9
BRANCH   8  11
ATOM     11  C   LIG d   1      -2.322  75.055 117.750  0.00  0.00     0.028 C 
ATOM     12  C   LIG d   1      -3.370  74.518 116.763  0.00  0.00     0.006 C 
ENDBRANCH   8  11
ENDBRANCH   7   8
ENDBRANCH   1   7
BRANCH   6  13
ATOM     13  N   LIG d   1      -0.372  76.502 114.085  0.00  0.00    -0.311 N 
ATOM     14  C   LIG d   1      -0.679  75.213 113.951  0.00  0.00     0.210 C 
ATOM     15  C   LIG d   1       0.517  74.256 113.988  0.00  0.00     0.109 C 
ATOM     16  O   LIG d   1      -1.825  74.774 113.773  0.00  0.00    -0.276 OA
ATOM     17  H   LIG d   1       0.587  76.772 114.193  0.00  0.00     0.149 HD
ENDBRANCH   6  13
BRANCH   5  18
ATOM     18  N   LIG d   1      -0.815  78.496 111.814  0.00  0.00     0.381 N 
ATOM     19  H   LIG d   1       0.058  78.037 111.649  0.00  0.00    -0.090 HD
ATOM     20  H   LIG d   1      -0.823  79.356 111.293  0.00  0.00    -0.090 HD
ATOM     21  H   LIG d   1      -1.567  77.913 111.518  0.00  0.00    -0.090 HD
ENDBRANCH   5  18
BRANCH   3  22
ATOM     22  C   LIG d   1      -2.724  81.499 115.020  0.00  0.00     0.382 C 
ATOM     23  O   LIG d   1      -2.678  81.907 116.206  0.00  0.00    -0.241 OA
ATOM     24  O   LIG d   1      -3.170  82.248 114.131  0.00  0.00    -0.241 OA
ENDBRANCH   3  22
TORSDOF 7
ENDMDL
MODEL 5
REMARK VINA RESULT:      -4.7      2.462      5.921
REMARK  7 active torsions:
REMARK  status: ('A' for Active; 'I' for Inactive)
REMARK    1  A    between atoms: C_2  and  C_3 
REMARK    2  A    between atoms: C_3  and  O_6 
REMARK    3  A    between atoms: C_3  and  C_4 
REMARK    4  A    between atoms: C_7  and  O_6 
REMARK    5  A    between atoms: C_9  and  C_10 
REMARK    6  A    between atoms: N_15  and  C_14 
REMARK    7  A    between atoms: N_20  and  C_19 
REMARK       I    between atoms: C_22  and  N_20 
ROOT
ATOM      1  C   LIG d   1      -0.018  81.258 111.629  0.00  0.00     0.161 C 
ATOM      2  C   LIG d   1      -0.703  80.032 111.669  0.00  0.00     0.016 C 
ATOM      3  C   LIG d   1      -1.676  79.717 112.645  0.00  0.00     0.038 C 
ATOM      4  C   LIG d   1      -2.142  80.670 113.563  0.00  0.00     0.028 C 
ATOM      5  C   LIG d   1      -1.119  81.756 113.880  0.00  0.00    -0.047 C 
ATOM      6  C   LIG d   1      -0.592  82.351 112.554  0.00  0.00     0.091 C 
ENDROOT
BRANCH   1   7
ATOM      7  O   LIG d   1       0.049  81.736 110.270  0.00  0.00    -0.368 OA
BRANCH   7   8
ATOM      8  C   LIG d   1       1.327  81.586 109.604  0.00  0.00     0.119 C 
BRANCH   8   9
ATOM      9  C   LIG d   1       2.241  80.765 110.534  0.00  0.00     0.028 C 
ATOM     10  C   LIG d   1       3.691  81.278 110.535  0.00  0.00     0.006 C 
ENDBRANCH   8   9
BRANCH   8  11
ATOM     11  C   LIG d   1       2.029  82.936 109.434  0.00  0.00     0.028 C 
ATOM     12  C   LIG d   1       1.050  84.121 109.430  0.00  0.00     0.006 C 
ENDBRANCH   8  11
ENDBRANCH   7   8
ENDBRANCH   1   7
BRANCH   6  13
ATOM     13  N   LIG d   1       0.475  83.363 112.771  0.00  0.00    -0.311 N 
ATOM     14  C   LIG d   1       1.629  83.093 113.379  0.00  0.00     0.210 C 
ATOM     15  C   LIG d   1       2.581  84.284 113.517  0.00  0.00     0.109 C 
ATOM     16  O   LIG d   1       1.967  81.972 113.787  0.00  0.00    -0.276 OA
ATOM     17  H   LIG d   1       0.296  84.292 112.443  0.00  0.00     0.149 HD
ENDBRANCH   6  13
BRANCH   5  18
ATOM     18  N   LIG d   1      -1.782  82.755 114.739  0.00  0.00     0.381 N 
ATOM     19  H   LIG d   1      -1.390  83.660 114.571  0.00  0.00    -0.090 HD
ATOM     20  H   LIG d   1      -1.621  82.515 115.701  0.00  0.00    -0.090 HD
ATOM     21  H   LIG d   1      -2.761  82.770 114.552  0.00  0.00    -0.090 HD
ENDBRANCH   5  18
BRANCH   3  22
ATOM     22  C   LIG d   1      -2.165  78.422 112.734  0.00  0.00     0.382 C 
ATOM     23  O   LIG d   1      -3.363  78.184 112.449  0.00  0.00    -0.241 OA
ATOM     24  O   LIG d   1      -1.435  77.498 113.139  0.00  0.00    -0.241 OA
ENDBRANCH   3  22
TORSDOF 7
ENDMDL
MODEL 6
REMARK VINA RESULT:      -4.6      2.466      3.270
REMARK  7 active torsions:
REMARK  status: ('A' for Active; 'I' for Inactive)
REMARK    1  A    between atoms: C_2  and  C_3 
REMARK    2  A    between atoms: C_3  and  O_6 
REMARK    3  A    between atoms: C_3  and  C_4 
REMARK    4  A    between atoms: C_7  and  O_6 
REMARK    5  A    between atoms: C_9  and  C_10 
REMARK    6  A    between atoms: N_15  and  C_14 
REMARK    7  A    between atoms: N_20  and  C_19 
REMARK       I    between atoms: C_22  and  N_20 
ROOT
ATOM      1  C   LIG d   1      -0.210  80.314 114.816  0.00  0.00     0.161 C 
ATOM      2  C   LIG d   1      -0.201  81.657 114.406  0.00  0.00     0.016 C 
ATOM      3  C   LIG d   1      -0.575  82.077 113.109  0.00  0.00     0.038 C 
ATOM      4  C   LIG d   1      -1.133  81.192 112.174  0.00  0.00     0.028 C 
ATOM      5  C   LIG d   1      -0.690  79.746 112.371  0.00  0.00    -0.047 C 
ATOM      6  C   LIG d   1      -0.921  79.346 113.846  0.00  0.00     0.091 C 
ENDROOT
BRANCH   1   7
ATOM      7  O   LIG d   1      -0.781  80.210 116.135  0.00  0.00    -0.368 OA
BRANCH   7   8
ATOM      8  C   LIG d   1      -1.399  81.411 116.659  0.00  0.00     0.119 C 
BRANCH   8   9
ATOM      9  C   LIG d   1      -0.812  81.660 118.062  0.00  0.00     0.028 C 
ATOM     10  C   LIG d   1      -1.897  81.715 119.151  0.00  0.00     0.006 C 
ENDBRANCH   8   9
BRANCH   8  11
ATOM     11  C   LIG d   1      -2.902  81.215 116.877  0.00  0.00     0.028 C 
ATOM     12  C   LIG d   1      -3.387  79.817 116.461  0.00  0.00     0.006 C 
ENDBRANCH   8  11
ENDBRANCH   7   8
ENDBRANCH   1   7
BRANCH   6  13
ATOM     13  N   LIG d   1      -0.437  77.974 114.144  0.00  0.00    -0.311 N 
ATOM     14  C   LIG d   1      -1.222  76.898 114.126  0.00  0.00     0.210 C 
ATOM     15  C   LIG d   1      -0.526  75.582 114.483  0.00  0.00     0.109 C 
ATOM     16  O   LIG d   1      -2.423  76.905 113.817  0.00  0.00    -0.276 OA
ATOM     17  H   LIG d   1       0.533  77.872 114.375  0.00  0.00     0.149 HD
ENDBRANCH   6  13
BRANCH   5  18
ATOM     18  N   LIG d   1      -1.451  78.914 111.420  0.00  0.00     0.381 N 
ATOM     19  H   LIG d   1      -1.198  79.154 110.482  0.00  0.00    -0.090 HD
ATOM     20  H   LIG d   1      -2.431  79.097 111.540  0.00  0.00    -0.090 HD
ATOM     21  H   LIG d   1      -1.263  77.949 111.586  0.00  0.00    -0.090 HD
ENDBRANCH   5  18
BRANCH   3  22
ATOM     22  C   LIG d   1      -0.355  83.391 112.722  0.00  0.00     0.382 C 
ATOM     23  O   LIG d   1       0.238  84.181 113.495  0.00  0.00    -0.241 OA
ATOM     24  O   LIG d   1      -0.782  83.807 111.628  0.00  0.00    -0.241 OA
ENDBRANCH   3  22
TORSDOF 7
ENDMDL
MODEL 7
REMARK VINA RESULT:      -4.4      2.570      5.794
REMARK  7 active torsions:
REMARK  status: ('A' for Active; 'I' for Inactive)
REMARK    1  A    between atoms: C_2  and  C_3 
REMARK    2  A    between atoms: C_3  and  O_6 
REMARK    3  A    between atoms: C_3  and  C_4 
REMARK    4  A    between atoms: C_7  and  O_6 
REMARK    5  A    between atoms: C_9  and  C_10 
REMARK    6  A    between atoms: N_15  and  C_14 
REMARK    7  A    between atoms: N_20  and  C_19 
REMARK       I    between atoms: C_22  and  N_20 
ROOT
ATOM      1  C   LIG d   1       1.325  81.144 113.349  0.00  0.00     0.161 C 
ATOM      2  C   LIG d   1       0.208  80.591 112.700  0.00  0.00     0.016 C 
ATOM      3  C   LIG d   1      -1.094  81.133 112.796  0.00  0.00     0.038 C 
ATOM      4  C   LIG d   1      -1.343  82.359 113.430  0.00  0.00     0.028 C 
ATOM      5  C   LIG d   1      -0.335  82.689 114.526  0.00  0.00    -0.047 C 
ATOM      6  C   LIG d   1       1.094  82.544 113.954  0.00  0.00     0.091 C 
ENDROOT
BRANCH   1   7
ATOM      7  O   LIG d   1       2.451  81.166 112.449  0.00  0.00    -0.368 OA
BRANCH   7   8
ATOM      8  C   LIG d   1       2.143  81.355 111.046  0.00  0.00     0.119 C 
BRANCH   8   9
ATOM      9  C   LIG d   1       3.154  80.523 110.234  0.00  0.00     0.028 C 
ATOM     10  C   LIG d   1       4.211  81.400 109.540  0.00  0.00     0.006 C 
ENDBRANCH   8   9
BRANCH   8  11
ATOM     11  C   LIG d   1       2.372  82.806 110.615  0.00  0.00     0.028 C 
ATOM     12  C   LIG d   1       1.082  83.500 110.150  0.00  0.00     0.006 C 
ENDBRANCH   8  11
ENDBRANCH   7   8
ENDBRANCH   1   7
BRANCH   6  13
ATOM     13  N   LIG d   1       2.142  82.767 114.984  0.00  0.00    -0.311 N 
ATOM     14  C   LIG d   1       2.212  82.078 116.121  0.00  0.00     0.210 C 
ATOM     15  C   LIG d   1       3.359  82.481 117.053  0.00  0.00     0.109 C 
ATOM     16  O   LIG d   1       1.451  81.148 116.432  0.00  0.00    -0.276 OA
ATOM     17  H   LIG d   1       2.819  83.482 114.798  0.00  0.00     0.149 HD
ENDBRANCH   6  13
BRANCH   5  18
ATOM     18  N   LIG d   1      -0.630  84.052 115.007  0.00  0.00     0.381 N 
ATOM     19  H   LIG d   1      -1.376  84.022 115.672  0.00  0.00    -0.090 HD
ATOM     20  H   LIG d   1      -0.923  84.615 114.228  0.00  0.00    -0.090 HD
ATOM     21  H   LIG d   1       0.183  84.449 115.425  0.00  0.00    -0.090 HD
ENDBRANCH   5  18
BRANCH   3  22
ATOM     22  C   LIG d   1      -2.172  80.424 112.287  0.00  0.00     0.382 C 
ATOM     23  O   LIG d   1      -3.331  80.899 112.372  0.00  0.00    -0.241 OA
ATOM     24  O   LIG d   1      -2.007  79.296 111.785  0.00  0.00    -0.241 OA
ENDBRANCH   3  22
TORSDOF 7
ENDMDL
MODEL 8
REMARK VINA RESULT:      -4.3      1.696      2.375
REMARK  7 active torsions:
REMARK  status: ('A' for Active; 'I' for Inactive)
REMARK    1  A    between atoms: C_2  and  C_3 
REMARK    2  A    between atoms: C_3  and  O_6 
REMARK    3  A    between atoms: C_3  and  C_4 
REMARK    4  A    between atoms: C_7  and  O_6 
REMARK    5  A    between atoms: C_9  and  C_10 
REMARK    6  A    between atoms: N_15  and  C_14 
REMARK    7  A    between atoms: N_20  and  C_19 
REMARK       I    between atoms: C_22  and  N_20 
ROOT
ATOM      1  C   LIG d   1       0.538  82.027 113.461  0.00  0.00     0.161 C 
ATOM      2  C   LIG d   1       1.537  82.130 112.479  0.00  0.00     0.016 C 
ATOM      3  C   LIG d   1       1.536  81.373 111.285  0.00  0.00     0.038 C 
ATOM      4  C   LIG d   1       0.448  80.565 110.921  0.00  0.00     0.028 C 
ATOM      5  C   LIG d   1      -0.346  80.044 112.114  0.00  0.00    -0.047 C 
ATOM      6  C   LIG d   1      -0.713  81.234 113.031  0.00  0.00     0.091 C 
ENDROOT
BRANCH   1   7
ATOM      7  O   LIG d   1       0.165  83.342 113.918  0.00  0.00    -0.368 OA
BRANCH   7   8
ATOM      8  C   LIG d   1       0.569  83.687 115.266  0.00  0.00     0.119 C 
BRANCH   8   9
ATOM      9  C   LIG d   1       1.742  84.680 115.158  0.00  0.00     0.028 C 
ATOM     10  C   LIG d   1       3.098  84.022 115.464  0.00  0.00     0.006 C 
ENDBRANCH   8   9
BRANCH   8  11
ATOM     11  C   LIG d   1       1.134  82.471 116.007  0.00  0.00     0.028 C 
ATOM     12  C   LIG d   1       0.286  82.068 117.224  0.00  0.00     0.006 C 
ENDBRANCH   8  11
ENDBRANCH   7   8
ENDBRANCH   1   7
BRANCH   6  13
ATOM     13  N   LIG d   1      -1.419  80.801 114.265  0.00  0.00    -0.311 N 
ATOM     14  C   LIG d   1      -2.502  81.412 114.742  0.00  0.00     0.210 C 
ATOM     15  C   LIG d   1      -3.061  80.817 116.039  0.00  0.00     0.109 C 
ATOM     16  O   LIG d   1      -3.071  82.370 114.198  0.00  0.00    -0.276 OA
ATOM     17  H   LIG d   1      -1.042  80.012 114.753  0.00  0.00     0.149 HD
ENDBRANCH   6  13
BRANCH   5  18
ATOM     18  N   LIG d   1      -1.527  79.334 111.588  0.00  0.00     0.381 N 
ATOM     19  H   LIG d   1      -1.749  79.677 110.675  0.00  0.00    -0.090 HD
ATOM     20  H   LIG d   1      -2.310  79.513 112.192  0.00  0.00    -0.090 HD
ATOM     21  H   LIG d   1      -1.346  78.355 111.548  0.00  0.00    -0.090 HD
ENDBRANCH   5  18
BRANCH   3  22
ATOM     22  C   LIG d   1       2.650  81.388 110.460  0.00  0.00     0.382 C 
ATOM     23  O   LIG d   1       2.873  80.424 109.689  0.00  0.00    -0.241 OA
ATOM     24  O   LIG d   1       3.459  82.334 110.509  0.00  0.00    -0.241 OA
ENDBRANCH   3  22
TORSDOF 7
ENDMDL
MODEL 9
REMARK VINA RESULT:      -4.2      2.052      5.249
REMARK  7 active torsions:
REMARK  status: ('A' for Active; 'I' for Inactive)
REMARK    1  A    between atoms: C_2  and  C_3 
REMARK    2  A    between atoms: C_3  and  O_6 
REMARK    3  A    between atoms: C_3  and  C_4 
REMARK    4  A    between atoms: C_7  and  O_6 
REMARK    5  A    between atoms: C_9  and  C_10 
REMARK    6  A    between atoms: N_15  and  C_14 
REMARK    7  A    between atoms: N_20  and  C_19 
REMARK       I    between atoms: C_22  and  N_20 
ROOT
ATOM      1  C   LIG d   1      -0.533  80.831 114.117  0.00  0.00     0.161 C 
ATOM      2  C   LIG d   1      -1.367  79.789 114.555  0.00  0.00     0.016 C 
ATOM      3  C   LIG d   1      -1.759  78.708 113.732  0.00  0.00     0.038 C 
ATOM      4  C   LIG d   1      -1.218  78.516 112.452  0.00  0.00     0.028 C 
ATOM      5  C   LIG d   1      -0.765  79.810 111.786  0.00  0.00    -0.047 C 
ATOM      6  C   LIG d   1       0.157  80.580 112.759  0.00  0.00     0.091 C 
ENDROOT
BRANCH   1   7
ATOM      7  O   LIG d   1       0.448  81.130 115.130  0.00  0.00    -0.368 OA
BRANCH   7   8
ATOM      8  C   LIG d   1       0.282  82.389 115.826  0.00  0.00     0.119 C 
BRANCH   8   9
ATOM      9  C   LIG d   1      -0.933  83.105 115.204  0.00  0.00     0.028 C 
ATOM     10  C   LIG d   1      -0.572  84.490 114.641  0.00  0.00     0.006 C 
ENDBRANCH   8   9
BRANCH   8  11
ATOM     11  C   LIG d   1       1.471  83.322 115.582  0.00  0.00     0.028 C 
ATOM     12  C   LIG d   1       2.212  83.694 116.877  0.00  0.00     0.006 C 
ENDBRANCH   8  11
ENDBRANCH   7   8
ENDBRANCH   1   7
BRANCH   6  13
ATOM     13  N   LIG d   1       0.577  81.899 112.218  0.00  0.00    -0.311 N 
ATOM     14  C   LIG d   1       1.845  82.214 111.957  0.00  0.00     0.210 C 
ATOM     15  C   LIG d   1       2.062  83.633 111.424  0.00  0.00     0.109 C 
ATOM     16  O   LIG d   1       2.806  81.441 112.086  0.00  0.00    -0.276 OA
ATOM     17  H   LIG d   1      -0.142  82.575 112.054  0.00  0.00     0.149 HD
ENDBRANCH   6  13
BRANCH   5  18
ATOM     18  N   LIG d   1      -0.097  79.450 110.521  0.00  0.00     0.381 N 
ATOM     19  H   LIG d   1       0.194  78.493 110.552  0.00  0.00    -0.090 HD
ATOM     20  H   LIG d   1       0.720  80.025 110.409  0.00  0.00    -0.090 HD
ATOM     21  H   LIG d   1      -0.718  79.591 109.755  0.00  0.00    -0.090 HD
ENDBRANCH   5  18
BRANCH   3  22
ATOM     22  C   LIG d   1      -2.734  77.826 114.174  0.00  0.00     0.382 C 
ATOM     23  O   LIG d   1      -3.440  77.204 113.344  0.00  0.00    -0.241 OA
ATOM     24  O   LIG d   1      -2.947  77.678 115.392  0.00  0.00    -0.241 OA
ENDBRANCH   3  22
TORSDOF 7
ENDMDL
