MODEL 1
REMARK VINA RESULT:      -6.1      0.000      0.000
REMARK  7 active torsions:
REMARK  status: ('A' for Active; 'I' for Inactive)
REMARK    1  A    between atoms: C_2  and  C_3 
REMARK    2  A    between atoms: C_3  and  O_6 
REMARK    3  A    between atoms: C_3  and  C_4 
REMARK    4  A    between atoms: C_7  and  O_6 
REMARK    5  A    between atoms: C_9  and  C_10 
REMARK    6  A    between atoms: N_15  and  C_14 
REMARK    7  A    between atoms: N_20  and  C_19 
REMARK       I    between atoms: C_22  and  N_20 
ROOT
ATOM      1  C   LIG d   1      -0.174  81.158 111.387  0.00  0.00     0.161 C 
ATOM      2  C   LIG d   1      -1.325  80.419 111.705  0.00  0.00     0.016 C 
ATOM      3  C   LIG d   1      -1.511  79.069 111.328  0.00  0.00     0.038 C 
ATOM      4  C   LIG d   1      -0.487  78.317 110.733  0.00  0.00     0.028 C 
ATOM      5  C   LIG d   1       0.504  79.163 109.942  0.00  0.00    -0.047 C 
ATOM      6  C   LIG d   1       1.000  80.323 110.836  0.00  0.00     0.091 C 
ENDROOT
BRANCH   1   7
ATOM      7  O   LIG d   1       0.249  81.921 112.534  0.00  0.00    -0.368 OA
BRANCH   7   8
ATOM      8  C   LIG d   1       0.101  83.359 112.434  0.00  0.00     0.119 C 
BRANCH   8   9
ATOM      9  C   LIG d   1      -0.527  83.665 111.060  0.00  0.00     0.028 C 
ATOM     10  C   LIG d   1       0.298  84.678 110.250  0.00  0.00     0.006 C 
ENDBRANCH   8   9
BRANCH   8  11
ATOM     11  C   LIG d   1       1.462  84.060 112.422  0.00  0.00     0.028 C 
ATOM     12  C   LIG d   1       1.986  84.368 113.834  0.00  0.00     0.006 C 
ENDBRANCH   8  11
ENDBRANCH   7   8
ENDBRANCH   1   7
BRANCH   6  13
ATOM     13  N   LIG d   1       1.910  81.248 110.111  0.00  0.00    -0.311 N 
ATOM     14  C   LIG d   1       3.166  81.485 110.486  0.00  0.00     0.210 C 
ATOM     15  C   LIG d   1       3.924  82.488 109.611  0.00  0.00     0.109 C 
ATOM     16  O   LIG d   1       3.734  80.934 111.441  0.00  0.00    -0.276 OA
ATOM     17  H   LIG d   1       1.540  81.714 109.306  0.00  0.00     0.149 HD
ENDBRANCH   6  13
BRANCH   5  18
ATOM     18  N   LIG d   1       1.592  78.273 109.493  0.00  0.00     0.381 N 
ATOM     19  H   LIG d   1       1.210  77.405 109.176  0.00  0.00    -0.090 HD
ATOM     20  H   LIG d   1       2.199  78.085 110.271  0.00  0.00    -0.090 HD
ATOM     21  H   LIG d   1       2.106  78.706 108.758  0.00  0.00    -0.090 HD
ENDBRANCH   5  18
BRANCH   3  22
ATOM     22  C   LIG d   1      -2.748  78.469 111.509  0.00  0.00     0.382 C 
ATOM     23  O   LIG d   1      -3.198  77.684 110.640  0.00  0.00    -0.241 OA
ATOM     24  O   LIG d   1      -3.440  78.737 112.510  0.00  0.00    -0.241 OA
ENDBRANCH   3  22
TORSDOF 7
ENDMDL
MODEL 2
REMARK VINA RESULT:      -5.2      2.350      5.458
REMARK  7 active torsions:
REMARK  status: ('A' for Active; 'I' for Inactive)
REMARK    1  A    between atoms: C_2  and  C_3 
REMARK    2  A    between atoms: C_3  and  O_6 
REMARK    3  A    between atoms: C_3  and  C_4 
REMARK    4  A    between atoms: C_7  and  O_6 
REMARK    5  A    between atoms: C_9  and  C_10 
REMARK    6  A    between atoms: N_15  and  C_14 
REMARK    7  A    between atoms: N_20  and  C_19 
REMARK       I    between atoms: C_22  and  N_20 
ROOT
ATOM      1  C   LIG d   1       1.763  81.101 112.612  0.00  0.00     0.161 C 
ATOM      2  C   LIG d   1       2.652  82.032 112.052  0.00  0.00     0.016 C 
ATOM      3  C   LIG d   1       2.545  82.510 110.725  0.00  0.00     0.038 C 
ATOM      4  C   LIG d   1       1.445  82.200 109.912  0.00  0.00     0.028 C 
ATOM      5  C   LIG d   1       0.790  80.867 110.261  0.00  0.00    -0.047 C 
ATOM      6  C   LIG d   1       0.492  80.836 111.777  0.00  0.00     0.091 C 
ENDROOT
BRANCH   1   7
ATOM      7  O   LIG d   1       1.408  81.507 113.949  0.00  0.00    -0.368 OA
BRANCH   7   8
ATOM      8  C   LIG d   1       2.416  82.251 114.678  0.00  0.00     0.119 C 
BRANCH   8   9
ATOM      9  C   LIG d   1       2.967  81.326 115.780  0.00  0.00     0.028 C 
ATOM     10  C   LIG d   1       1.853  80.561 116.516  0.00  0.00     0.006 C 
ENDBRANCH   8   9
BRANCH   8  11
ATOM     11  C   LIG d   1       1.802  83.443 115.418  0.00  0.00     0.028 C 
ATOM     12  C   LIG d   1       1.485  84.623 114.486  0.00  0.00     0.006 C 
ENDBRANCH   8  11
ENDBRANCH   7   8
ENDBRANCH   1   7
BRANCH   6  13
ATOM     13  N   LIG d   1      -0.072  79.533 112.218  0.00  0.00    -0.311 N 
ATOM     14  C   LIG d   1      -1.379  79.293 112.306  0.00  0.00     0.210 C 
ATOM     15  C   LIG d   1      -1.746  77.890 112.800  0.00  0.00     0.109 C 
ATOM     16  O   LIG d   1      -2.269  80.097 111.992  0.00  0.00    -0.276 OA
ATOM     17  H   LIG d   1       0.580  78.813 112.462  0.00  0.00     0.149 HD
ENDBRANCH   6  13
BRANCH   5  18
ATOM     18  N   LIG d   1      -0.422  80.735 109.431  0.00  0.00     0.381 N 
ATOM     19  H   LIG d   1      -0.560  79.776 109.183  0.00  0.00    -0.090 HD
ATOM     20  H   LIG d   1      -0.296  81.264 108.586  0.00  0.00    -0.090 HD
ATOM     21  H   LIG d   1      -1.215  81.075 109.929  0.00  0.00    -0.090 HD
ENDBRANCH   5  18
BRANCH   3  22
ATOM     22  C   LIG d   1       3.567  83.276 110.186  0.00  0.00     0.382 C 
ATOM     23  O   LIG d   1       3.556  84.523 110.324  0.00  0.00    -0.241 OA
ATOM     24  O   LIG d   1       4.477  82.740 109.525  0.00  0.00    -0.241 OA
ENDBRANCH   3  22
TORSDOF 7
ENDMDL
MODEL 3
REMARK VINA RESULT:      -4.8      1.357      2.145
REMARK  7 active torsions:
REMARK  status: ('A' for Active; 'I' for Inactive)
REMARK    1  A    between atoms: C_2  and  C_3 
REMARK    2  A    between atoms: C_3  and  O_6 
REMARK    3  A    between atoms: C_3  and  C_4 
REMARK    4  A    between atoms: C_7  and  O_6 
REMARK    5  A    between atoms: C_9  and  C_10 
REMARK    6  A    between atoms: N_15  and  C_14 
REMARK    7  A    between atoms: N_20  and  C_19 
REMARK       I    between atoms: C_22  and  N_20 
ROOT
ATOM      1  C   LIG d   1      -0.092  81.368 111.618  0.00  0.00     0.161 C 
ATOM      2  C   LIG d   1      -1.220  80.596 111.943  0.00  0.00     0.016 C 
ATOM      3  C   LIG d   1      -1.419  79.275 111.480  0.00  0.00     0.038 C 
ATOM      4  C   LIG d   1      -0.424  78.577 110.779  0.00  0.00     0.028 C 
ATOM      5  C   LIG d   1       0.519  79.488 109.999  0.00  0.00    -0.047 C 
ATOM      6  C   LIG d   1       1.055  80.585 110.946  0.00  0.00     0.091 C 
ENDROOT
BRANCH   1   7
ATOM      7  O   LIG d   1       0.387  82.050 112.793  0.00  0.00    -0.368 OA
BRANCH   7   8
ATOM      8  C   LIG d   1       1.736  81.726 113.213  0.00  0.00     0.119 C 
BRANCH   8   9
ATOM      9  C   LIG d   1       1.630  80.798 114.438  0.00  0.00     0.028 C 
ATOM     10  C   LIG d   1       2.448  81.310 115.635  0.00  0.00     0.006 C 
ENDBRANCH   8   9
BRANCH   8  11
ATOM     11  C   LIG d   1       2.479  82.970 113.709  0.00  0.00     0.028 C 
ATOM     12  C   LIG d   1       2.458  84.122 112.692  0.00  0.00     0.006 C 
ENDBRANCH   8  11
ENDBRANCH   7   8
ENDBRANCH   1   7
BRANCH   6  13
ATOM     13  N   LIG d   1       1.919  81.568 110.243  0.00  0.00    -0.311 N 
ATOM     14  C   LIG d   1       3.247  81.472 110.189  0.00  0.00     0.210 C 
ATOM     15  C   LIG d   1       3.947  82.603 109.430  0.00  0.00     0.109 C 
ATOM     16  O   LIG d   1       3.908  80.540 110.671  0.00  0.00    -0.276 OA
ATOM     17  H   LIG d   1       1.463  82.340 109.798  0.00  0.00     0.149 HD
ENDBRANCH   6  13
BRANCH   5  18
ATOM     18  N   LIG d   1       1.586  78.643 109.430  0.00  0.00     0.381 N 
ATOM     19  H   LIG d   1       1.305  77.682 109.452  0.00  0.00    -0.090 HD
ATOM     20  H   LIG d   1       2.413  78.742 109.991  0.00  0.00    -0.090 HD
ATOM     21  H   LIG d   1       1.776  78.919 108.492  0.00  0.00    -0.090 HD
ENDBRANCH   5  18
BRANCH   3  22
ATOM     22  C   LIG d   1      -2.641  78.651 111.683  0.00  0.00     0.382 C 
ATOM     23  O   LIG d   1      -3.275  78.848 112.748  0.00  0.00    -0.241 OA
ATOM     24  O   LIG d   1      -3.096  77.861 110.835  0.00  0.00    -0.241 OA
ENDBRANCH   3  22
TORSDOF 7
ENDMDL
MODEL 4
REMARK VINA RESULT:      -4.2      2.303      2.722
REMARK  7 active torsions:
REMARK  status: ('A' for Active; 'I' for Inactive)
REMARK    1  A    between atoms: C_2  and  C_3 
REMARK    2  A    between atoms: C_3  and  O_6 
REMARK    3  A    between atoms: C_3  and  C_4 
REMARK    4  A    between atoms: C_7  and  O_6 
REMARK    5  A    between atoms: C_9  and  C_10 
REMARK    6  A    between atoms: N_15  and  C_14 
REMARK    7  A    between atoms: N_20  and  C_19 
REMARK       I    between atoms: C_22  and  N_20 
ROOT
ATOM      1  C   LIG d   1       0.014  80.126 112.824  0.00  0.00     0.161 C 
ATOM      2  C   LIG d   1      -0.592  79.125 113.601  0.00  0.00     0.016 C 
ATOM      3  C   LIG d   1      -1.372  78.080 113.054  0.00  0.00     0.038 C 
ATOM      4  C   LIG d   1      -1.474  77.878 111.670  0.00  0.00     0.028 C 
ATOM      5  C   LIG d   1      -1.296  79.156 110.856  0.00  0.00    -0.047 C 
ATOM      6  C   LIG d   1       0.006  79.858 111.304  0.00  0.00     0.091 C 
ENDROOT
BRANCH   1   7
ATOM      7  O   LIG d   1       1.360  80.354 113.285  0.00  0.00    -0.368 OA
BRANCH   7   8
ATOM      8  C   LIG d   1       1.532  81.429 114.242  0.00  0.00     0.119 C 
BRANCH   8   9
ATOM      9  C   LIG d   1       2.178  82.613 113.497  0.00  0.00     0.028 C 
ATOM     10  C   LIG d   1       1.155  83.695 113.116  0.00  0.00     0.006 C 
ENDBRANCH   8   9
BRANCH   8  11
ATOM     11  C   LIG d   1       2.532  81.045 115.337  0.00  0.00     0.028 C 
ATOM     12  C   LIG d   1       2.953  82.241 116.206  0.00  0.00     0.006 C 
ENDBRANCH   8  11
ENDBRANCH   7   8
ENDBRANCH   1   7
BRANCH   6  13
ATOM     13  N   LIG d   1       0.213  81.160 110.617  0.00  0.00    -0.311 N 
ATOM     14  C   LIG d   1       1.372  81.524 110.071  0.00  0.00     0.210 C 
ATOM     15  C   LIG d   1       1.375  82.915 109.430  0.00  0.00     0.109 C 
ATOM     16  O   LIG d   1       2.388  80.814 110.027  0.00  0.00    -0.276 OA
ATOM     17  H   LIG d   1      -0.568  81.785 110.579  0.00  0.00     0.149 HD
ENDBRANCH   6  13
BRANCH   5  18
ATOM     18  N   LIG d   1      -1.288  78.779 109.430  0.00  0.00     0.381 N 
ATOM     19  H   LIG d   1      -0.360  78.855 109.064  0.00  0.00    -0.090 HD
ATOM     20  H   LIG d   1      -1.880  79.412 108.923  0.00  0.00    -0.090 HD
ATOM     21  H   LIG d   1      -1.619  77.845 109.322  0.00  0.00    -0.090 HD
ENDBRANCH   5  18
BRANCH   3  22
ATOM     22  C   LIG d   1      -2.093  77.248 113.896  0.00  0.00     0.382 C 
ATOM     23  O   LIG d   1      -1.607  76.897 114.998  0.00  0.00    -0.241 OA
ATOM     24  O   LIG d   1      -3.205  76.806 113.548  0.00  0.00    -0.241 OA
ENDBRANCH   3  22
TORSDOF 7
ENDMDL
MODEL 5
REMARK VINA RESULT:      -4.0      3.145      4.829
REMARK  7 active torsions:
REMARK  status: ('A' for Active; 'I' for Inactive)
REMARK    1  A    between atoms: C_2  and  C_3 
REMARK    2  A    between atoms: C_3  and  O_6 
REMARK    3  A    between atoms: C_3  and  C_4 
REMARK    4  A    between atoms: C_7  and  O_6 
REMARK    5  A    between atoms: C_9  and  C_10 
REMARK    6  A    between atoms: N_15  and  C_14 
REMARK    7  A    between atoms: N_20  and  C_19 
REMARK       I    between atoms: C_22  and  N_20 
ROOT
ATOM      1  C   LIG d   1      -0.534  79.646 113.510  0.00  0.00     0.161 C 
ATOM      2  C   LIG d   1      -1.225  78.630 112.828  0.00  0.00     0.016 C 
ATOM      3  C   LIG d   1      -1.078  78.384 111.444  0.00  0.00     0.038 C 
ATOM      4  C   LIG d   1      -0.110  79.043 110.672  0.00  0.00     0.028 C 
ATOM      5  C   LIG d   1       0.255  80.423 111.208  0.00  0.00    -0.047 C 
ATOM      6  C   LIG d   1       0.609  80.302 112.707  0.00  0.00     0.091 C 
ENDROOT
BRANCH   1   7
ATOM      7  O   LIG d   1      -0.038  79.140 114.766  0.00  0.00    -0.368 OA
BRANCH   7   8
ATOM      8  C   LIG d   1      -0.884  78.180 115.445  0.00  0.00     0.119 C 
BRANCH   8   9
ATOM      9  C   LIG d   1      -1.314  78.809 116.785  0.00  0.00     0.028 C 
ATOM     10  C   LIG d   1      -1.718  77.751 117.826  0.00  0.00     0.006 C 
ENDBRANCH   8   9
BRANCH   8  11
ATOM     11  C   LIG d   1      -0.103  76.918 115.822  0.00  0.00     0.028 C 
ATOM     12  C   LIG d   1      -0.443  75.717 114.925  0.00  0.00     0.006 C 
ENDBRANCH   8  11
ENDBRANCH   7   8
ENDBRANCH   1   7
BRANCH   6  13
ATOM     13  N   LIG d   1       0.897  81.620 113.330  0.00  0.00    -0.311 N 
ATOM     14  C   LIG d   1       2.042  81.904 113.949  0.00  0.00     0.210 C 
ATOM     15  C   LIG d   1       2.125  83.315 114.539  0.00  0.00     0.109 C 
ATOM     16  O   LIG d   1       3.009  81.132 114.037  0.00  0.00    -0.276 OA
ATOM     17  H   LIG d   1       0.179  82.316 113.278  0.00  0.00     0.149 HD
ENDBRANCH   6  13
BRANCH   5  18
ATOM     18  N   LIG d   1       1.370  80.938 110.390  0.00  0.00     0.381 N 
ATOM     19  H   LIG d   1       1.199  80.745 109.424  0.00  0.00    -0.090 HD
ATOM     20  H   LIG d   1       2.216  80.468 110.661  0.00  0.00    -0.090 HD
ATOM     21  H   LIG d   1       1.469  81.920 110.528  0.00  0.00    -0.090 HD
ENDBRANCH   5  18
BRANCH   3  22
ATOM     22  C   LIG d   1      -1.934  77.496 110.809  0.00  0.00     0.382 C 
ATOM     23  O   LIG d   1      -3.118  77.833 110.565  0.00  0.00    -0.241 OA
ATOM     24  O   LIG d   1      -1.551  76.347 110.519  0.00  0.00    -0.241 OA
ENDBRANCH   3  22
TORSDOF 7
ENDMDL
MODEL 6
REMARK VINA RESULT:      -3.7      6.947      7.854
REMARK  7 active torsions:
REMARK  status: ('A' for Active; 'I' for Inactive)
REMARK    1  A    between atoms: C_2  and  C_3 
REMARK    2  A    between atoms: C_3  and  O_6 
REMARK    3  A    between atoms: C_3  and  C_4 
REMARK    4  A    between atoms: C_7  and  O_6 
REMARK    5  A    between atoms: C_9  and  C_10 
REMARK    6  A    between atoms: N_15  and  C_14 
REMARK    7  A    between atoms: N_20  and  C_19 
REMARK       I    between atoms: C_22  and  N_20 
ROOT
ATOM      1  C   LIG d   1       0.357  78.252 118.578  0.00  0.00     0.161 C 
ATOM      2  C   LIG d   1      -0.170  76.950 118.546  0.00  0.00     0.016 C 
ATOM      3  C   LIG d   1      -0.644  76.332 117.366  0.00  0.00     0.038 C 
ATOM      4  C   LIG d   1      -0.483  76.922 116.103  0.00  0.00     0.028 C 
ATOM      5  C   LIG d   1      -0.417  78.445 116.151  0.00  0.00    -0.047 C 
ATOM      6  C   LIG d   1       0.643  78.869 117.193  0.00  0.00     0.091 C 
ENDROOT
BRANCH   1   7
ATOM      7  O   LIG d   1       1.545  78.278 119.394  0.00  0.00    -0.368 OA
BRANCH   7   8
ATOM      8  C   LIG d   1       2.716  77.635 118.834  0.00  0.00     0.119 C 
BRANCH   8   9
ATOM      9  C   LIG d   1       3.227  76.618 119.873  0.00  0.00     0.028 C 
ATOM     10  C   LIG d   1       2.922  75.165 119.472  0.00  0.00     0.006 C 
ENDBRANCH   8   9
BRANCH   8  11
ATOM     11  C   LIG d   1       3.863  78.632 118.644  0.00  0.00     0.028 C 
ATOM     12  C   LIG d   1       4.570  78.477 117.289  0.00  0.00     0.006 C 
ENDBRANCH   8  11
ENDBRANCH   7   8
ENDBRANCH   1   7
BRANCH   6  13
ATOM     13  N   LIG d   1       0.712  80.344 117.364  0.00  0.00    -0.311 N 
ATOM     14  C   LIG d   1       1.600  81.113 116.737  0.00  0.00     0.210 C 
ATOM     15  C   LIG d   1       1.511  82.606 117.069  0.00  0.00     0.109 C 
ATOM     16  O   LIG d   1       2.432  80.705 115.912  0.00  0.00    -0.276 OA
ATOM     17  H   LIG d   1       0.053  80.762 117.991  0.00  0.00     0.149 HD
ENDBRANCH   6  13
BRANCH   5  18
ATOM     18  N   LIG d   1      -0.110  78.920 114.788  0.00  0.00     0.381 N 
ATOM     19  H   LIG d   1       0.834  78.688 114.553  0.00  0.00    -0.090 HD
ATOM     20  H   LIG d   1      -0.204  79.920 114.764  0.00  0.00    -0.090 HD
ATOM     21  H   LIG d   1      -0.735  78.504 114.133  0.00  0.00    -0.090 HD
ENDBRANCH   5  18
BRANCH   3  22
ATOM     22  C   LIG d   1      -1.323  75.126 117.447  0.00  0.00     0.382 C 
ATOM     23  O   LIG d   1      -1.035  74.189 116.663  0.00  0.00    -0.241 OA
ATOM     24  O   LIG d   1      -2.251  74.977 118.265  0.00  0.00    -0.241 OA
ENDBRANCH   3  22
TORSDOF 7
ENDMDL
MODEL 7
REMARK VINA RESULT:      -3.5      6.731      7.641
REMARK  7 active torsions:
REMARK  status: ('A' for Active; 'I' for Inactive)
REMARK    1  A    between atoms: C_2  and  C_3 
REMARK    2  A    between atoms: C_3  and  O_6 
REMARK    3  A    between atoms: C_3  and  C_4 
REMARK    4  A    between atoms: C_7  and  O_6 
REMARK    5  A    between atoms: C_9  and  C_10 
REMARK    6  A    between atoms: N_15  and  C_14 
REMARK    7  A    between atoms: N_20  and  C_19 
REMARK       I    between atoms: C_22  and  N_20 
ROOT
ATOM      1  C   LIG d   1      -1.042  77.896 117.722  0.00  0.00     0.161 C 
ATOM      2  C   LIG d   1      -1.775  78.289 116.590  0.00  0.00     0.016 C 
ATOM      3  C   LIG d   1      -2.140  77.401 115.552  0.00  0.00     0.038 C 
ATOM      4  C   LIG d   1      -1.925  76.018 115.650  0.00  0.00     0.028 C 
ATOM      5  C   LIG d   1      -0.743  75.651 116.540  0.00  0.00    -0.047 C 
ATOM      6  C   LIG d   1      -0.895  76.370 117.899  0.00  0.00     0.091 C 
ENDROOT
BRANCH   1   7
ATOM      7  O   LIG d   1      -1.617  78.485 118.905  0.00  0.00    -0.368 OA
BRANCH   7   8
ATOM      8  C   LIG d   1      -0.798  79.460 119.595  0.00  0.00     0.119 C 
BRANCH   8   9
ATOM      9  C   LIG d   1      -1.669  80.707 119.841  0.00  0.00     0.028 C 
ATOM     10  C   LIG d   1      -3.173  80.384 119.823  0.00  0.00     0.006 C 
ENDBRANCH   8   9
BRANCH   8  11
ATOM     11  C   LIG d   1       0.358  79.941 118.712  0.00  0.00     0.028 C 
ATOM     12  C   LIG d   1       0.255  81.433 118.357  0.00  0.00     0.006 C 
ENDBRANCH   8  11
ENDBRANCH   7   8
ENDBRANCH   1   7
BRANCH   6  13
ATOM     13  N   LIG d   1       0.263  76.132 118.800  0.00  0.00    -0.311 N 
ATOM     14  C   LIG d   1       1.516  76.453 118.484  0.00  0.00     0.210 C 
ATOM     15  C   LIG d   1       2.561  76.103 119.548  0.00  0.00     0.109 C 
ATOM     16  O   LIG d   1       1.857  77.024 117.437  0.00  0.00    -0.276 OA
ATOM     17  H   LIG d   1       0.072  75.701 119.684  0.00  0.00     0.149 HD
ENDBRANCH   6  13
BRANCH   5  18
ATOM     18  N   LIG d   1      -0.718  74.181 116.663  0.00  0.00     0.381 N 
ATOM     19  H   LIG d   1      -0.758  73.921 117.629  0.00  0.00    -0.090 HD
ATOM     20  H   LIG d   1       0.145  73.837 116.280  0.00  0.00    -0.090 HD
ATOM     21  H   LIG d   1      -1.489  73.785 116.173  0.00  0.00    -0.090 HD
ENDBRANCH   5  18
BRANCH   3  22
ATOM     22  C   LIG d   1      -2.691  77.901 114.382  0.00  0.00     0.382 C 
ATOM     23  O   LIG d   1      -2.997  77.120 113.449  0.00  0.00    -0.241 OA
ATOM     24  O   LIG d   1      -2.846  79.128 114.230  0.00  0.00    -0.241 OA
ENDBRANCH   3  22
TORSDOF 7
ENDMDL
MODEL 8
REMARK VINA RESULT:      -3.4      5.629      7.724
REMARK  7 active torsions:
REMARK  status: ('A' for Active; 'I' for Inactive)
REMARK    1  A    between atoms: C_2  and  C_3 
REMARK    2  A    between atoms: C_3  and  O_6 
REMARK    3  A    between atoms: C_3  and  C_4 
REMARK    4  A    between atoms: C_7  and  O_6 
REMARK    5  A    between atoms: C_9  and  C_10 
REMARK    6  A    between atoms: N_15  and  C_14 
REMARK    7  A    between atoms: N_20  and  C_19 
REMARK       I    between atoms: C_22  and  N_20 
ROOT
ATOM      1  C   LIG d   1       2.253  80.664 117.343  0.00  0.00     0.161 C 
ATOM      2  C   LIG d   1       3.633  80.911 117.249  0.00  0.00     0.016 C 
ATOM      3  C   LIG d   1       4.607  79.887 117.218  0.00  0.00     0.038 C 
ATOM      4  C   LIG d   1       4.255  78.532 117.126  0.00  0.00     0.028 C 
ATOM      5  C   LIG d   1       2.888  78.219 117.727  0.00  0.00    -0.047 C 
ATOM      6  C   LIG d   1       1.844  79.191 117.132  0.00  0.00     0.091 C 
ENDROOT
BRANCH   1   7
ATOM      7  O   LIG d   1       1.540  81.518 116.427  0.00  0.00    -0.368 OA
BRANCH   7   8
ATOM      8  C   LIG d   1       2.322  82.093 115.351  0.00  0.00     0.119 C 
BRANCH   8   9
ATOM      9  C   LIG d   1       1.807  83.526 115.119  0.00  0.00     0.028 C 
ATOM     10  C   LIG d   1       1.499  84.260 116.435  0.00  0.00     0.006 C 
ENDBRANCH   8   9
BRANCH   8  11
ATOM     11  C   LIG d   1       2.080  81.356 114.031  0.00  0.00     0.028 C 
ATOM     12  C   LIG d   1       1.465  82.258 112.949  0.00  0.00     0.006 C 
ENDBRANCH   8  11
ENDBRANCH   7   8
ENDBRANCH   1   7
BRANCH   6  13
ATOM     13  N   LIG d   1       0.495  79.009 117.729  0.00  0.00    -0.311 N 
ATOM     14  C   LIG d   1      -0.617  78.896 117.005  0.00  0.00     0.210 C 
ATOM     15  C   LIG d   1      -1.905  78.735 117.820  0.00  0.00     0.109 C 
ATOM     16  O   LIG d   1      -0.656  78.881 115.766  0.00  0.00    -0.276 OA
ATOM     17  H   LIG d   1       0.439  78.978 118.728  0.00  0.00     0.149 HD
ENDBRANCH   6  13
BRANCH   5  18
ATOM     18  N   LIG d   1       2.590  76.803 117.440  0.00  0.00     0.381 N 
ATOM     19  H   LIG d   1       3.318  76.410 116.878  0.00  0.00    -0.090 HD
ATOM     20  H   LIG d   1       1.729  76.750 116.924  0.00  0.00    -0.090 HD
ATOM     21  H   LIG d   1       2.506  76.293 118.292  0.00  0.00    -0.090 HD
ENDBRANCH   5  18
BRANCH   3  22
ATOM     22  C   LIG d   1       5.951  80.213 117.319  0.00  0.00     0.382 C 
ATOM     23  O   LIG d   1       6.352  81.340 116.944  0.00  0.00    -0.241 OA
ATOM     24  O   LIG d   1       6.773  79.378 117.740  0.00  0.00    -0.241 OA
ENDBRANCH   3  22
TORSDOF 7
ENDMDL
MODEL 9
REMARK VINA RESULT:      -3.4      6.031      8.204
REMARK  7 active torsions:
REMARK  status: ('A' for Active; 'I' for Inactive)
REMARK    1  A    between atoms: C_2  and  C_3 
REMARK    2  A    between atoms: C_3  and  O_6 
REMARK    3  A    between atoms: C_3  and  C_4 
REMARK    4  A    between atoms: C_7  and  O_6 
REMARK    5  A    between atoms: C_9  and  C_10 
REMARK    6  A    between atoms: N_15  and  C_14 
REMARK    7  A    between atoms: N_20  and  C_19 
REMARK       I    between atoms: C_22  and  N_20 
ROOT
ATOM      1  C   LIG d   1       2.301  80.747 117.861  0.00  0.00     0.161 C 
ATOM      2  C   LIG d   1       3.634  81.076 117.563  0.00  0.00     0.016 C 
ATOM      3  C   LIG d   1       4.606  80.120 117.189  0.00  0.00     0.038 C 
ATOM      4  C   LIG d   1       4.272  78.781 116.940  0.00  0.00     0.028 C 
ATOM      5  C   LIG d   1       3.048  78.308 117.717  0.00  0.00    -0.047 C 
ATOM      6  C   LIG d   1       1.891  79.307 117.488  0.00  0.00     0.091 C 
ENDROOT
BRANCH   1   7
ATOM      7  O   LIG d   1       1.413  81.698 117.242  0.00  0.00    -0.368 OA
BRANCH   7   8
ATOM      8  C   LIG d   1       1.220  82.947 117.950  0.00  0.00     0.119 C 
BRANCH   8   9
ATOM      9  C   LIG d   1      -0.122  82.852 118.700  0.00  0.00     0.028 C 
ATOM     10  C   LIG d   1      -0.791  84.224 118.884  0.00  0.00     0.006 C 
ENDBRANCH   8   9
BRANCH   8  11
ATOM     11  C   LIG d   1       1.060  84.120 116.979  0.00  0.00     0.028 C 
ATOM     12  C   LIG d   1       1.681  83.841 115.601  0.00  0.00     0.006 C 
ENDBRANCH   8  11
ENDBRANCH   7   8
ENDBRANCH   1   7
BRANCH   6  13
ATOM     13  N   LIG d   1       0.681  78.964 118.279  0.00  0.00    -0.311 N 
ATOM     14  C   LIG d   1      -0.550  78.955 117.769  0.00  0.00     0.210 C 
ATOM     15  C   LIG d   1      -1.658  78.593 118.763  0.00  0.00     0.109 C 
ATOM     16  O   LIG d   1      -0.825  79.180 116.581  0.00  0.00    -0.276 OA
ATOM     17  H   LIG d   1       0.816  78.738 119.245  0.00  0.00     0.149 HD
ENDBRANCH   6  13
BRANCH   5  18
ATOM     18  N   LIG d   1       2.731  76.942 117.260  0.00  0.00     0.381 N 
ATOM     19  H   LIG d   1       1.840  76.935 116.805  0.00  0.00    -0.090 HD
ATOM     20  H   LIG d   1       2.681  76.335 118.059  0.00  0.00    -0.090 HD
ATOM     21  H   LIG d   1       3.435  76.620 116.632  0.00  0.00    -0.090 HD
ENDBRANCH   5  18
BRANCH   3  22
ATOM     22  C   LIG d   1       5.939  80.495 117.099  0.00  0.00     0.382 C 
ATOM     23  O   LIG d   1       6.281  81.668 117.383  0.00  0.00    -0.241 OA
ATOM     24  O   LIG d   1       6.796  79.686 116.695  0.00  0.00    -0.241 OA
ENDBRANCH   3  22
TORSDOF 7
ENDMDL
