MODEL 1
REMARK VINA RESULT:      -5.2      0.000      0.000
REMARK  7 active torsions:
REMARK  status: ('A' for Active; 'I' for Inactive)
REMARK    1  A    between atoms: C_2  and  C_3 
REMARK    2  A    between atoms: C_3  and  O_6 
REMARK    3  A    between atoms: C_3  and  C_4 
REMARK    4  A    between atoms: C_7  and  O_6 
REMARK    5  A    between atoms: C_9  and  C_10 
REMARK    6  A    between atoms: N_15  and  C_14 
REMARK    7  A    between atoms: N_20  and  C_19 
REMARK       I    between atoms: C_22  and  N_20 
ROOT
ATOM      1  C   LIG d   1       1.071  81.483 112.936  0.00  0.00     0.161 C 
ATOM      2  C   LIG d   1       2.044  82.376 112.455  0.00  0.00     0.016 C 
ATOM      3  C   LIG d   1       2.271  82.611 111.079  0.00  0.00     0.038 C 
ATOM      4  C   LIG d   1       1.433  82.080 110.088  0.00  0.00     0.028 C 
ATOM      5  C   LIG d   1       0.757  80.777 110.500  0.00  0.00    -0.047 C 
ATOM      6  C   LIG d   1       0.074  80.979 111.872  0.00  0.00     0.091 C 
ENDROOT
BRANCH   1   7
ATOM      7  O   LIG d   1       0.365  82.080 114.042  0.00  0.00    -0.368 OA
BRANCH   7   8
ATOM      8  C   LIG d   1       0.367  83.528 114.093  0.00  0.00     0.119 C 
BRANCH   8   9
ATOM      9  C   LIG d   1       0.389  83.939 115.578  0.00  0.00     0.028 C 
ATOM     10  C   LIG d   1      -0.192  82.851 116.496  0.00  0.00     0.006 C 
ENDBRANCH   8   9
BRANCH   8  11
ATOM     11  C   LIG d   1      -0.934  84.107 113.530  0.00  0.00     0.028 C 
ATOM     12  C   LIG d   1      -0.770  84.674 112.112  0.00  0.00     0.006 C 
ENDBRANCH   8  11
ENDBRANCH   7   8
ENDBRANCH   1   7
BRANCH   6  13
ATOM     13  N   LIG d   1      -0.541  79.728 112.389  0.00  0.00    -0.311 N 
ATOM     14  C   LIG d   1      -1.820  79.633 112.746  0.00  0.00     0.210 C 
ATOM     15  C   LIG d   1      -2.245  78.258 113.272  0.00  0.00     0.109 C 
ATOM     16  O   LIG d   1      -2.652  80.548 112.648  0.00  0.00    -0.276 OA
ATOM     17  H   LIG d   1       0.055  78.928 112.472  0.00  0.00     0.149 HD
ENDBRANCH   6  13
BRANCH   5  18
ATOM     18  N   LIG d   1      -0.191  80.408 109.431  0.00  0.00     0.381 N 
ATOM     19  H   LIG d   1      -0.595  79.515 109.630  0.00  0.00    -0.090 HD
ATOM     20  H   LIG d   1       0.310  80.342 108.562  0.00  0.00    -0.090 HD
ATOM     21  H   LIG d   1      -0.907  81.096 109.359  0.00  0.00    -0.090 HD
ENDBRANCH   5  18
BRANCH   3  22
ATOM     22  C   LIG d   1       3.372  83.355 110.682  0.00  0.00     0.382 C 
ATOM     23  O   LIG d   1       4.508  83.087 111.141  0.00  0.00    -0.241 OA
ATOM     24  O   LIG d   1       3.236  84.318 109.904  0.00  0.00    -0.241 OA
ENDBRANCH   3  22
TORSDOF 7
ENDMDL
MODEL 2
REMARK VINA RESULT:      -5.2      1.488      1.937
REMARK  7 active torsions:
REMARK  status: ('A' for Active; 'I' for Inactive)
REMARK    1  A    between atoms: C_2  and  C_3 
REMARK    2  A    between atoms: C_3  and  O_6 
REMARK    3  A    between atoms: C_3  and  C_4 
REMARK    4  A    between atoms: C_7  and  O_6 
REMARK    5  A    between atoms: C_9  and  C_10 
REMARK    6  A    between atoms: N_15  and  C_14 
REMARK    7  A    between atoms: N_20  and  C_19 
REMARK       I    between atoms: C_22  and  N_20 
ROOT
ATOM      1  C   LIG d   1       0.272  83.026 113.002  0.00  0.00     0.161 C 
ATOM      2  C   LIG d   1       1.358  83.436 112.211  0.00  0.00     0.016 C 
ATOM      3  C   LIG d   1       1.832  82.702 111.099  0.00  0.00     0.038 C 
ATOM      4  C   LIG d   1       1.152  81.578 110.608  0.00  0.00     0.028 C 
ATOM      5  C   LIG d   1       0.347  80.843 111.675  0.00  0.00    -0.047 C 
ATOM      6  C   LIG d   1      -0.552  81.860 112.415  0.00  0.00     0.091 C 
ENDROOT
BRANCH   1   7
ATOM      7  O   LIG d   1      -0.583  84.152 113.280  0.00  0.00    -0.368 OA
BRANCH   7   8
ATOM      8  C   LIG d   1      -0.523  84.680 114.628  0.00  0.00     0.119 C 
BRANCH   8   9
ATOM      9  C   LIG d   1       0.505  83.838 115.410  0.00  0.00     0.028 C 
ATOM     10  C   LIG d   1       1.759  84.645 115.786  0.00  0.00     0.006 C 
ENDBRANCH   8   9
BRANCH   8  11
ATOM     11  C   LIG d   1      -1.852  84.482 115.364  0.00  0.00     0.028 C 
ATOM     12  C   LIG d   1      -1.725  83.558 116.585  0.00  0.00     0.006 C 
ENDBRANCH   8  11
ENDBRANCH   7   8
ENDBRANCH   1   7
BRANCH   6  13
ATOM     13  N   LIG d   1      -1.311  81.239 113.531  0.00  0.00    -0.311 N 
ATOM     14  C   LIG d   1      -2.632  81.336 113.663  0.00  0.00     0.210 C 
ATOM     15  C   LIG d   1      -3.213  80.638 114.897  0.00  0.00     0.109 C 
ATOM     16  O   LIG d   1      -3.383  81.907 112.858  0.00  0.00    -0.276 OA
ATOM     17  H   LIG d   1      -0.783  80.730 114.214  0.00  0.00     0.149 HD
ENDBRANCH   6  13
BRANCH   5  18
ATOM     18  N   LIG d   1      -0.419  79.778 111.001  0.00  0.00     0.381 N 
ATOM     19  H   LIG d   1      -0.628  80.053 110.062  0.00  0.00    -0.090 HD
ATOM     20  H   LIG d   1      -1.286  79.641 111.490  0.00  0.00    -0.090 HD
ATOM     21  H   LIG d   1       0.106  78.931 110.997  0.00  0.00    -0.090 HD
ENDBRANCH   5  18
BRANCH   3  22
ATOM     22  C   LIG d   1       3.022  83.069 110.490  0.00  0.00     0.382 C 
ATOM     23  O   LIG d   1       4.118  82.735 111.002  0.00  0.00    -0.241 OA
ATOM     24  O   LIG d   1       3.015  83.769 109.460  0.00  0.00    -0.241 OA
ENDBRANCH   3  22
TORSDOF 7
ENDMDL
MODEL 3
REMARK VINA RESULT:      -4.9      2.895      5.596
REMARK  7 active torsions:
REMARK  status: ('A' for Active; 'I' for Inactive)
REMARK    1  A    between atoms: C_2  and  C_3 
REMARK    2  A    between atoms: C_3  and  O_6 
REMARK    3  A    between atoms: C_3  and  C_4 
REMARK    4  A    between atoms: C_7  and  O_6 
REMARK    5  A    between atoms: C_9  and  C_10 
REMARK    6  A    between atoms: N_15  and  C_14 
REMARK    7  A    between atoms: N_20  and  C_19 
REMARK       I    between atoms: C_22  and  N_20 
ROOT
ATOM      1  C   LIG d   1       2.113  81.298 112.808  0.00  0.00     0.161 C 
ATOM      2  C   LIG d   1       1.002  81.926 112.220  0.00  0.00     0.016 C 
ATOM      3  C   LIG d   1      -0.012  82.571 112.964  0.00  0.00     0.038 C 
ATOM      4  C   LIG d   1       0.096  82.766 114.350  0.00  0.00     0.028 C 
ATOM      5  C   LIG d   1       0.949  81.710 115.045  0.00  0.00    -0.047 C 
ATOM      6  C   LIG d   1       2.304  81.596 114.310  0.00  0.00     0.091 C 
ENDROOT
BRANCH   1   7
ATOM      7  O   LIG d   1       3.308  81.633 112.074  0.00  0.00    -0.368 OA
BRANCH   7   8
ATOM      8  C   LIG d   1       3.144  81.844 110.650  0.00  0.00     0.119 C 
BRANCH   8   9
ATOM      9  C   LIG d   1       3.702  80.600 109.931  0.00  0.00     0.028 C 
ATOM     10  C   LIG d   1       2.590  79.664 109.430  0.00  0.00     0.006 C 
ENDBRANCH   8   9
BRANCH   8  11
ATOM     11  C   LIG d   1       3.999  83.015 110.158  0.00  0.00     0.028 C 
ATOM     12  C   LIG d   1       4.291  84.044 111.262  0.00  0.00     0.006 C 
ENDBRANCH   8  11
ENDBRANCH   7   8
ENDBRANCH   1   7
BRANCH   6  13
ATOM     13  N   LIG d   1       3.167  80.526 114.874  0.00  0.00    -0.311 N 
ATOM     14  C   LIG d   1       4.077  80.742 115.823  0.00  0.00     0.210 C 
ATOM     15  C   LIG d   1       4.873  79.504 116.249  0.00  0.00     0.109 C 
ATOM     16  O   LIG d   1       4.278  81.834 116.374  0.00  0.00    -0.276 OA
ATOM     17  H   LIG d   1       3.048  79.603 114.506  0.00  0.00     0.149 HD
ENDBRANCH   6  13
BRANCH   5  18
ATOM     18  N   LIG d   1       1.090  82.111 116.458  0.00  0.00     0.381 N 
ATOM     19  H   LIG d   1       1.930  81.722 116.838  0.00  0.00    -0.090 HD
ATOM     20  H   LIG d   1       0.311  81.747 116.978  0.00  0.00    -0.090 HD
ATOM     21  H   LIG d   1       1.112  83.104 116.530  0.00  0.00    -0.090 HD
ENDBRANCH   5  18
BRANCH   3  22
ATOM     22  C   LIG d   1      -1.168  82.996 112.328  0.00  0.00     0.382 C 
ATOM     23  O   LIG d   1      -1.091  83.723 111.308  0.00  0.00    -0.241 OA
ATOM     24  O   LIG d   1      -2.287  82.697 112.785  0.00  0.00    -0.241 OA
ENDBRANCH   3  22
TORSDOF 7
ENDMDL
MODEL 4
REMARK VINA RESULT:      -4.9      1.165      1.727
REMARK  7 active torsions:
REMARK  status: ('A' for Active; 'I' for Inactive)
REMARK    1  A    between atoms: C_2  and  C_3 
REMARK    2  A    between atoms: C_3  and  O_6 
REMARK    3  A    between atoms: C_3  and  C_4 
REMARK    4  A    between atoms: C_7  and  O_6 
REMARK    5  A    between atoms: C_9  and  C_10 
REMARK    6  A    between atoms: N_15  and  C_14 
REMARK    7  A    between atoms: N_20  and  C_19 
REMARK       I    between atoms: C_22  and  N_20 
ROOT
ATOM      1  C   LIG d   1       0.435  81.383 113.081  0.00  0.00     0.161 C 
ATOM      2  C   LIG d   1       1.369  82.378 112.746  0.00  0.00     0.016 C 
ATOM      3  C   LIG d   1       1.769  82.655 111.418  0.00  0.00     0.038 C 
ATOM      4  C   LIG d   1       1.145  82.053 110.315  0.00  0.00     0.028 C 
ATOM      5  C   LIG d   1       0.556  80.681 110.627  0.00  0.00    -0.047 C 
ATOM      6  C   LIG d   1      -0.338  80.793 111.883  0.00  0.00     0.091 C 
ENDROOT
BRANCH   1   7
ATOM      7  O   LIG d   1      -0.483  81.888 114.070  0.00  0.00    -0.368 OA
BRANCH   7   8
ATOM      8  C   LIG d   1       0.049  82.055 115.408  0.00  0.00     0.119 C 
BRANCH   8   9
ATOM      9  C   LIG d   1       0.025  80.674 116.091  0.00  0.00     0.028 C 
ATOM     10  C   LIG d   1      -1.400  80.113 116.232  0.00  0.00     0.006 C 
ENDBRANCH   8   9
BRANCH   8  11
ATOM     11  C   LIG d   1      -0.859  82.945 116.261  0.00  0.00     0.028 C 
ATOM     12  C   LIG d   1      -1.580  84.024 115.438  0.00  0.00     0.006 C 
ENDBRANCH   8  11
ENDBRANCH   7   8
ENDBRANCH   1   7
BRANCH   6  13
ATOM     13  N   LIG d   1      -0.887  79.478 112.307  0.00  0.00    -0.311 N 
ATOM     14  C   LIG d   1      -2.150  79.300 112.690  0.00  0.00     0.210 C 
ATOM     15  C   LIG d   1      -2.504  77.869 113.106  0.00  0.00     0.109 C 
ATOM     16  O   LIG d   1      -3.019  80.185 112.695  0.00  0.00    -0.276 OA
ATOM     17  H   LIG d   1      -0.258  78.699 112.303  0.00  0.00     0.149 HD
ENDBRANCH   6  13
BRANCH   5  18
ATOM     18  N   LIG d   1      -0.181  80.231 109.431  0.00  0.00     0.381 N 
ATOM     19  H   LIG d   1       0.240  79.400 109.067  0.00  0.00    -0.090 HD
ATOM     20  H   LIG d   1      -0.127  80.946 108.728  0.00  0.00    -0.090 HD
ATOM     21  H   LIG d   1      -1.134  80.054 109.664  0.00  0.00    -0.090 HD
ENDBRANCH   5  18
BRANCH   3  22
ATOM     22  C   LIG d   1       2.832  83.514 111.186  0.00  0.00     0.382 C 
ATOM     23  O   LIG d   1       2.696  84.481 110.397  0.00  0.00    -0.241 OA
ATOM     24  O   LIG d   1       3.938  83.310 111.720  0.00  0.00    -0.241 OA
ENDBRANCH   3  22
TORSDOF 7
ENDMDL
MODEL 5
REMARK VINA RESULT:      -4.9      1.796      4.873
REMARK  7 active torsions:
REMARK  status: ('A' for Active; 'I' for Inactive)
REMARK    1  A    between atoms: C_2  and  C_3 
REMARK    2  A    between atoms: C_3  and  O_6 
REMARK    3  A    between atoms: C_3  and  C_4 
REMARK    4  A    between atoms: C_7  and  O_6 
REMARK    5  A    between atoms: C_9  and  C_10 
REMARK    6  A    between atoms: N_15  and  C_14 
REMARK    7  A    between atoms: N_20  and  C_19 
REMARK       I    between atoms: C_22  and  N_20 
ROOT
ATOM      1  C   LIG d   1       0.335  83.178 112.354  0.00  0.00     0.161 C 
ATOM      2  C   LIG d   1      -0.885  82.868 112.978  0.00  0.00     0.016 C 
ATOM      3  C   LIG d   1      -1.526  81.614 112.852  0.00  0.00     0.038 C 
ATOM      4  C   LIG d   1      -0.911  80.527 112.213  0.00  0.00     0.028 C 
ATOM      5  C   LIG d   1       0.089  80.943 111.140  0.00  0.00    -0.047 C 
ATOM      6  C   LIG d   1       1.075  81.969 111.744  0.00  0.00     0.091 C 
ENDROOT
BRANCH   1   7
ATOM      7  O   LIG d   1       1.193  83.876 113.279  0.00  0.00    -0.368 OA
BRANCH   7   8
ATOM      8  C   LIG d   1       1.230  83.356 114.630  0.00  0.00     0.119 C 
BRANCH   8   9
ATOM      9  C   LIG d   1       1.006  84.541 115.589  0.00  0.00     0.028 C 
ATOM     10  C   LIG d   1      -0.349  84.463 116.312  0.00  0.00     0.006 C 
ENDBRANCH   8   9
BRANCH   8  11
ATOM     11  C   LIG d   1       2.617  82.809 114.979  0.00  0.00     0.028 C 
ATOM     12  C   LIG d   1       2.608  81.299 115.267  0.00  0.00     0.006 C 
ENDBRANCH   8  11
ENDBRANCH   7   8
ENDBRANCH   1   7
BRANCH   6  13
ATOM     13  N   LIG d   1       2.036  82.491 110.738  0.00  0.00    -0.311 N 
ATOM     14  C   LIG d   1       3.357  82.351 110.844  0.00  0.00     0.210 C 
ATOM     15  C   LIG d   1       4.167  82.981 109.707  0.00  0.00     0.109 C 
ATOM     16  O   LIG d   1       3.932  81.736 111.754  0.00  0.00    -0.276 OA
ATOM     17  H   LIG d   1       1.654  82.977 109.950  0.00  0.00     0.149 HD
ENDBRANCH   6  13
BRANCH   5  18
ATOM     18  N   LIG d   1       0.754  79.720 110.653  0.00  0.00     0.381 N 
ATOM     19  H   LIG d   1       0.839  79.754 109.656  0.00  0.00    -0.090 HD
ATOM     20  H   LIG d   1       0.190  78.925 110.894  0.00  0.00    -0.090 HD
ATOM     21  H   LIG d   1       1.656  79.634 111.067  0.00  0.00    -0.090 HD
ENDBRANCH   5  18
BRANCH   3  22
ATOM     22  C   LIG d   1      -2.815  81.450 113.336  0.00  0.00     0.382 C 
ATOM     23  O   LIG d   1      -3.440  82.433 113.803  0.00  0.00    -0.241 OA
ATOM     24  O   LIG d   1      -3.345  80.323 113.353  0.00  0.00    -0.241 OA
ENDBRANCH   3  22
TORSDOF 7
ENDMDL
MODEL 6
REMARK VINA RESULT:      -4.6      2.497      5.631
REMARK  7 active torsions:
REMARK  status: ('A' for Active; 'I' for Inactive)
REMARK    1  A    between atoms: C_2  and  C_3 
REMARK    2  A    between atoms: C_3  and  O_6 
REMARK    3  A    between atoms: C_3  and  C_4 
REMARK    4  A    between atoms: C_7  and  O_6 
REMARK    5  A    between atoms: C_9  and  C_10 
REMARK    6  A    between atoms: N_15  and  C_14 
REMARK    7  A    between atoms: N_20  and  C_19 
REMARK       I    between atoms: C_22  and  N_20 
ROOT
ATOM      1  C   LIG d   1      -0.225  80.943 112.458  0.00  0.00     0.161 C 
ATOM      2  C   LIG d   1      -0.992  79.801 112.171  0.00  0.00     0.016 C 
ATOM      3  C   LIG d   1      -1.862  79.193 113.105  0.00  0.00     0.038 C 
ATOM      4  C   LIG d   1      -2.142  79.780 114.349  0.00  0.00     0.028 C 
ATOM      5  C   LIG d   1      -1.010  80.657 114.873  0.00  0.00    -0.047 C 
ATOM      6  C   LIG d   1      -0.601  81.661 113.771  0.00  0.00     0.091 C 
ENDROOT
BRANCH   1   7
ATOM      7  O   LIG d   1      -0.285  81.862 111.349  0.00  0.00    -0.368 OA
BRANCH   7   8
ATOM      8  C   LIG d   1       0.838  81.832 110.435  0.00  0.00     0.119 C 
BRANCH   8   9
ATOM      9  C   LIG d   1       2.045  81.261 111.204  0.00  0.00     0.028 C 
ATOM     10  C   LIG d   1       3.230  82.241 111.249  0.00  0.00     0.006 C 
ENDBRANCH   8   9
BRANCH   8  11
ATOM     11  C   LIG d   1       1.255  83.245 110.018  0.00  0.00     0.028 C 
ATOM     12  C   LIG d   1       0.280  84.325 110.513  0.00  0.00     0.006 C 
ENDBRANCH   8  11
ENDBRANCH   7   8
ENDBRANCH   1   7
BRANCH   6  13
ATOM     13  N   LIG d   1       0.557  82.501 114.171  0.00  0.00    -0.311 N 
ATOM     14  C   LIG d   1       0.516  83.832 114.221  0.00  0.00     0.210 C 
ATOM     15  C   LIG d   1       1.827  84.504 114.639  0.00  0.00     0.109 C 
ATOM     16  O   LIG d   1      -0.492  84.517 113.990  0.00  0.00    -0.276 OA
ATOM     17  H   LIG d   1       1.407  82.026 114.406  0.00  0.00     0.149 HD
ENDBRANCH   6  13
BRANCH   5  18
ATOM     18  N   LIG d   1      -1.488  81.313 116.104  0.00  0.00     0.381 N 
ATOM     19  H   LIG d   1      -2.437  81.050 116.282  0.00  0.00    -0.090 HD
ATOM     20  H   LIG d   1      -1.456  82.309 115.976  0.00  0.00    -0.090 HD
ATOM     21  H   LIG d   1      -0.913  81.052 116.875  0.00  0.00    -0.090 HD
ENDBRANCH   5  18
BRANCH   3  22
ATOM     22  C   LIG d   1      -2.434  77.964 112.814  0.00  0.00     0.382 C 
ATOM     23  O   LIG d   1      -1.911  76.910 113.250  0.00  0.00    -0.241 OA
ATOM     24  O   LIG d   1      -3.440  77.892 112.083  0.00  0.00    -0.241 OA
ENDBRANCH   3  22
TORSDOF 7
ENDMDL
MODEL 7
REMARK VINA RESULT:      -4.5      1.539      2.178
REMARK  7 active torsions:
REMARK  status: ('A' for Active; 'I' for Inactive)
REMARK    1  A    between atoms: C_2  and  C_3 
REMARK    2  A    between atoms: C_3  and  O_6 
REMARK    3  A    between atoms: C_3  and  C_4 
REMARK    4  A    between atoms: C_7  and  O_6 
REMARK    5  A    between atoms: C_9  and  C_10 
REMARK    6  A    between atoms: N_15  and  C_14 
REMARK    7  A    between atoms: N_20  and  C_19 
REMARK       I    between atoms: C_22  and  N_20 
ROOT
ATOM      1  C   LIG d   1       1.242  83.027 113.445  0.00  0.00     0.161 C 
ATOM      2  C   LIG d   1       2.370  83.641 112.875  0.00  0.00     0.016 C 
ATOM      3  C   LIG d   1       2.707  83.532 111.506  0.00  0.00     0.038 C 
ATOM      4  C   LIG d   1       1.851  82.921 110.578  0.00  0.00     0.028 C 
ATOM      5  C   LIG d   1       0.953  81.853 111.193  0.00  0.00    -0.047 C 
ATOM      6  C   LIG d   1       0.236  82.450 112.427  0.00  0.00     0.091 C 
ENDROOT
BRANCH   1   7
ATOM      7  O   LIG d   1       0.581  83.948 114.334  0.00  0.00    -0.368 OA
BRANCH   7   8
ATOM      8  C   LIG d   1       0.488  83.540 115.721  0.00  0.00     0.119 C 
BRANCH   8   9
ATOM      9  C   LIG d   1      -1.004  83.548 116.107  0.00  0.00     0.028 C 
ATOM     10  C   LIG d   1      -1.218  83.442 117.627  0.00  0.00     0.006 C 
ENDBRANCH   8   9
BRANCH   8  11
ATOM     11  C   LIG d   1       1.152  84.561 116.649  0.00  0.00     0.028 C 
ATOM     12  C   LIG d   1       2.667  84.680 116.417  0.00  0.00     0.006 C 
ENDBRANCH   8  11
ENDBRANCH   7   8
ENDBRANCH   1   7
BRANCH   6  13
ATOM     13  N   LIG d   1      -0.598  81.446 113.138  0.00  0.00    -0.311 N 
ATOM     14  C   LIG d   1      -1.924  81.525 113.225  0.00  0.00     0.210 C 
ATOM     15  C   LIG d   1      -2.588  80.397 114.020  0.00  0.00     0.109 C 
ATOM     16  O   LIG d   1      -2.617  82.405 112.692  0.00  0.00    -0.276 OA
ATOM     17  H   LIG d   1      -0.120  80.682 113.573  0.00  0.00     0.149 HD
ENDBRANCH   6  13
BRANCH   5  18
ATOM     18  N   LIG d   1       0.019  81.399 110.146  0.00  0.00     0.381 N 
ATOM     19  H   LIG d   1       0.363  81.668 109.246  0.00  0.00    -0.090 HD
ATOM     20  H   LIG d   1      -0.871  81.842 110.289  0.00  0.00    -0.090 HD
ATOM     21  H   LIG d   1      -0.084  80.409 110.188  0.00  0.00    -0.090 HD
ENDBRANCH   5  18
BRANCH   3  22
ATOM     22  C   LIG d   1       3.933  84.003 111.061  0.00  0.00     0.382 C 
ATOM     23  O   LIG d   1       4.146  84.131 109.832  0.00  0.00    -0.241 OA
ATOM     24  O   LIG d   1       4.844  84.259 111.872  0.00  0.00    -0.241 OA
ENDBRANCH   3  22
TORSDOF 7
ENDMDL
MODEL 8
REMARK VINA RESULT:      -4.1      2.728      6.047
REMARK  7 active torsions:
REMARK  status: ('A' for Active; 'I' for Inactive)
REMARK    1  A    between atoms: C_2  and  C_3 
REMARK    2  A    between atoms: C_3  and  O_6 
REMARK    3  A    between atoms: C_3  and  C_4 
REMARK    4  A    between atoms: C_7  and  O_6 
REMARK    5  A    between atoms: C_9  and  C_10 
REMARK    6  A    between atoms: N_15  and  C_14 
REMARK    7  A    between atoms: N_20  and  C_19 
REMARK       I    between atoms: C_22  and  N_20 
ROOT
ATOM      1  C   LIG d   1      -0.794  80.692 113.130  0.00  0.00     0.161 C 
ATOM      2  C   LIG d   1      -1.306  79.424 112.812  0.00  0.00     0.016 C 
ATOM      3  C   LIG d   1      -2.352  78.803 113.534  0.00  0.00     0.038 C 
ATOM      4  C   LIG d   1      -3.063  79.479 114.537  0.00  0.00     0.028 C 
ATOM      5  C   LIG d   1      -2.249  80.569 115.226  0.00  0.00    -0.047 C 
ATOM      6  C   LIG d   1      -1.632  81.491 114.150  0.00  0.00     0.091 C 
ENDROOT
BRANCH   1   7
ATOM      7  O   LIG d   1      -0.608  81.460 111.924  0.00  0.00    -0.368 OA
BRANCH   7   8
ATOM      8  C   LIG d   1       0.689  82.086 111.760  0.00  0.00     0.119 C 
BRANCH   8   9
ATOM      9  C   LIG d   1       1.063  81.992 110.268  0.00  0.00     0.028 C 
ATOM     10  C   LIG d   1       0.634  80.655 109.639  0.00  0.00     0.006 C 
ENDBRANCH   8   9
BRANCH   8  11
ATOM     11  C   LIG d   1       1.780  81.308 112.502  0.00  0.00     0.028 C 
ATOM     12  C   LIG d   1       2.534  82.170 113.526  0.00  0.00     0.006 C 
ENDBRANCH   8  11
ENDBRANCH   7   8
ENDBRANCH   1   7
BRANCH   6  13
ATOM     13  N   LIG d   1      -0.751  82.535 114.736  0.00  0.00    -0.311 N 
ATOM     14  C   LIG d   1      -1.180  83.750 115.075  0.00  0.00     0.210 C 
ATOM     15  C   LIG d   1      -0.103  84.680 115.644  0.00  0.00     0.109 C 
ATOM     16  O   LIG d   1      -2.356  84.134 114.989  0.00  0.00    -0.276 OA
ATOM     17  H   LIG d   1       0.212  82.297 114.870  0.00  0.00     0.149 HD
ENDBRANCH   6  13
BRANCH   5  18
ATOM     18  N   LIG d   1      -3.152  81.282 116.150  0.00  0.00     0.381 N 
ATOM     19  H   LIG d   1      -4.104  81.118 115.887  0.00  0.00    -0.090 HD
ATOM     20  H   LIG d   1      -2.972  82.268 116.084  0.00  0.00    -0.090 HD
ATOM     21  H   LIG d   1      -2.999  80.971 117.084  0.00  0.00    -0.090 HD
ENDBRANCH   5  18
BRANCH   3  22
ATOM     22  C   LIG d   1      -2.669  77.477 113.281  0.00  0.00     0.382 C 
ATOM     23  O   LIG d   1      -3.440  77.186 112.335  0.00  0.00    -0.241 OA
ATOM     24  O   LIG d   1      -2.228  76.572 114.014  0.00  0.00    -0.241 OA
ENDBRANCH   3  22
TORSDOF 7
ENDMDL
MODEL 9
REMARK VINA RESULT:      -4.0      2.544      4.489
REMARK  7 active torsions:
REMARK  status: ('A' for Active; 'I' for Inactive)
REMARK    1  A    between atoms: C_2  and  C_3 
REMARK    2  A    between atoms: C_3  and  O_6 
REMARK    3  A    between atoms: C_3  and  C_4 
REMARK    4  A    between atoms: C_7  and  O_6 
REMARK    5  A    between atoms: C_9  and  C_10 
REMARK    6  A    between atoms: N_15  and  C_14 
REMARK    7  A    between atoms: N_20  and  C_19 
REMARK       I    between atoms: C_22  and  N_20 
ROOT
ATOM      1  C   LIG d   1      -0.413  83.460 113.196  0.00  0.00     0.161 C 
ATOM      2  C   LIG d   1      -0.357  82.836 111.939  0.00  0.00     0.016 C 
ATOM      3  C   LIG d   1       0.591  81.843 111.604  0.00  0.00     0.038 C 
ATOM      4  C   LIG d   1       1.459  81.294 112.560  0.00  0.00     0.028 C 
ATOM      5  C   LIG d   1       1.777  82.247 113.707  0.00  0.00    -0.047 C 
ATOM      6  C   LIG d   1       0.453  82.795 114.287  0.00  0.00     0.091 C 
ENDROOT
BRANCH   1   7
ATOM      7  O   LIG d   1      -1.783  83.555 113.634  0.00  0.00    -0.368 OA
BRANCH   7   8
ATOM      8  C   LIG d   1      -2.282  82.441 114.414  0.00  0.00     0.119 C 
BRANCH   8   9
ATOM      9  C   LIG d   1      -3.147  81.573 113.479  0.00  0.00     0.028 C 
ATOM     10  C   LIG d   1      -2.567  80.162 113.285  0.00  0.00     0.006 C 
ENDBRANCH   8   9
BRANCH   8  11
ATOM     11  C   LIG d   1      -3.230  82.914 115.520  0.00  0.00     0.028 C 
ATOM     12  C   LIG d   1      -2.800  82.438 116.917  0.00  0.00     0.006 C 
ENDBRANCH   8  11
ENDBRANCH   7   8
ENDBRANCH   1   7
BRANCH   6  13
ATOM     13  N   LIG d   1       0.677  83.800 115.358  0.00  0.00    -0.311 N 
ATOM     14  C   LIG d   1       0.757  83.488 116.651  0.00  0.00     0.210 C 
ATOM     15  C   LIG d   1       0.971  84.679 117.591  0.00  0.00     0.109 C 
ATOM     16  O   LIG d   1       0.705  82.335 117.105  0.00  0.00    -0.276 OA
ATOM     17  H   LIG d   1       0.762  84.757 115.076  0.00  0.00     0.149 HD
ENDBRANCH   6  13
BRANCH   5  18
ATOM     18  N   LIG d   1       2.577  81.502 114.697  0.00  0.00     0.381 N 
ATOM     19  H   LIG d   1       2.435  80.519 114.576  0.00  0.00    -0.090 HD
ATOM     20  H   LIG d   1       2.270  81.754 115.620  0.00  0.00    -0.090 HD
ATOM     21  H   LIG d   1       3.543  81.721 114.590  0.00  0.00    -0.090 HD
ENDBRANCH   5  18
BRANCH   3  22
ATOM     22  C   LIG d   1       0.705  81.416 110.289  0.00  0.00     0.382 C 
ATOM     23  O   LIG d   1       1.548  81.950 109.528  0.00  0.00    -0.241 OA
ATOM     24  O   LIG d   1      -0.053  80.535 109.843  0.00  0.00    -0.241 OA
ENDBRANCH   3  22
TORSDOF 7
ENDMDL
