MODEL 1
REMARK VINA RESULT:      -5.1      0.000      0.000
REMARK  7 active torsions:
REMARK  status: ('A' for Active; 'I' for Inactive)
REMARK    1  A    between atoms: C_2  and  C_3 
REMARK    2  A    between atoms: C_3  and  O_6 
REMARK    3  A    between atoms: C_3  and  C_4 
REMARK    4  A    between atoms: C_7  and  O_6 
REMARK    5  A    between atoms: C_9  and  C_10 
REMARK    6  A    between atoms: N_15  and  C_14 
REMARK    7  A    between atoms: N_20  and  C_19 
REMARK       I    between atoms: C_22  and  N_20 
ROOT
ATOM      1  C   LIG d   1       0.291  83.574 112.337  0.00  0.00     0.161 C 
ATOM      2  C   LIG d   1      -0.950  83.178 112.864  0.00  0.00     0.016 C 
ATOM      3  C   LIG d   1      -1.505  81.893 112.667  0.00  0.00     0.038 C 
ATOM      4  C   LIG d   1      -0.783  80.860 112.052  0.00  0.00     0.028 C 
ATOM      5  C   LIG d   1       0.266  81.358 111.064  0.00  0.00    -0.047 C 
ATOM      6  C   LIG d   1       1.143  82.425 111.759  0.00  0.00     0.091 C 
ENDROOT
BRANCH   1   7
ATOM      7  O   LIG d   1       1.037  84.297 113.336  0.00  0.00    -0.368 OA
BRANCH   7   8
ATOM      8  C   LIG d   1       1.480  83.529 114.482  0.00  0.00     0.119 C 
BRANCH   8   9
ATOM      9  C   LIG d   1       0.892  84.195 115.741  0.00  0.00     0.028 C 
ATOM     10  C   LIG d   1      -0.122  83.292 116.463  0.00  0.00     0.006 C 
ENDBRANCH   8   9
BRANCH   8  11
ATOM     11  C   LIG d   1       3.000  83.610 114.653  0.00  0.00     0.028 C 
ATOM     12  C   LIG d   1       3.646  84.669 113.746  0.00  0.00     0.006 C 
ENDBRANCH   8  11
ENDBRANCH   7   8
ENDBRANCH   1   7
BRANCH   6  13
ATOM     13  N   LIG d   1       2.142  83.026 110.836  0.00  0.00    -0.311 N 
ATOM     14  C   LIG d   1       3.413  82.634 110.776  0.00  0.00     0.210 C 
ATOM     15  C   LIG d   1       4.279  83.400 109.771  0.00  0.00     0.109 C 
ATOM     16  O   LIG d   1       3.899  81.704 111.437  0.00  0.00    -0.276 OA
ATOM     17  H   LIG d   1       1.825  83.767 110.242  0.00  0.00     0.149 HD
ENDBRANCH   6  13
BRANCH   5  18
ATOM     18  N   LIG d   1       1.036  80.188 110.602  0.00  0.00     0.381 N 
ATOM     19  H   LIG d   1       1.846  80.492 110.101  0.00  0.00    -0.090 HD
ATOM     20  H   LIG d   1       0.463  79.647 109.979  0.00  0.00    -0.090 HD
ATOM     21  H   LIG d   1       1.308  79.630 111.382  0.00  0.00    -0.090 HD
ENDBRANCH   5  18
BRANCH   3  22
ATOM     22  C   LIG d   1      -2.814  81.643 113.052  0.00  0.00     0.382 C 
ATOM     23  O   LIG d   1      -3.440  80.677 112.555  0.00  0.00    -0.241 OA
ATOM     24  O   LIG d   1      -3.390  82.399 113.857  0.00  0.00    -0.241 OA
ENDBRANCH   3  22
TORSDOF 7
ENDMDL
MODEL 2
REMARK VINA RESULT:      -4.7      1.975      5.024
REMARK  7 active torsions:
REMARK  status: ('A' for Active; 'I' for Inactive)
REMARK    1  A    between atoms: C_2  and  C_3 
REMARK    2  A    between atoms: C_3  and  O_6 
REMARK    3  A    between atoms: C_3  and  C_4 
REMARK    4  A    between atoms: C_7  and  O_6 
REMARK    5  A    between atoms: C_9  and  C_10 
REMARK    6  A    between atoms: N_15  and  C_14 
REMARK    7  A    between atoms: N_20  and  C_19 
REMARK       I    between atoms: C_22  and  N_20 
ROOT
ATOM      1  C   LIG d   1       0.598  81.537 113.450  0.00  0.00     0.161 C 
ATOM      2  C   LIG d   1       1.551  82.518 113.130  0.00  0.00     0.016 C 
ATOM      3  C   LIG d   1       1.841  82.918 111.805  0.00  0.00     0.038 C 
ATOM      4  C   LIG d   1       1.084  82.469 110.713  0.00  0.00     0.028 C 
ATOM      5  C   LIG d   1       0.449  81.101 110.937  0.00  0.00    -0.047 C 
ATOM      6  C   LIG d   1      -0.316  81.116 112.280  0.00  0.00     0.091 C 
ENDROOT
BRANCH   1   7
ATOM      7  O   LIG d   1      -0.194  81.973 114.572  0.00  0.00    -0.368 OA
BRANCH   7   8
ATOM      8  C   LIG d   1      -1.146  83.033 114.307  0.00  0.00     0.119 C 
BRANCH   8   9
ATOM      9  C   LIG d   1      -0.679  84.279 115.084  0.00  0.00     0.028 C 
ATOM     10  C   LIG d   1       0.131  83.918 116.340  0.00  0.00     0.006 C 
ENDBRANCH   8   9
BRANCH   8  11
ATOM     11  C   LIG d   1      -2.528  82.696 114.874  0.00  0.00     0.028 C 
ATOM     12  C   LIG d   1      -2.514  81.453 115.779  0.00  0.00     0.006 C 
ENDBRANCH   8  11
ENDBRANCH   7   8
ENDBRANCH   1   7
BRANCH   6  13
ATOM     13  N   LIG d   1      -0.897  79.791 112.617  0.00  0.00    -0.311 N 
ATOM     14  C   LIG d   1      -2.206  79.552 112.653  0.00  0.00     0.210 C 
ATOM     15  C   LIG d   1      -2.592  78.122 113.043  0.00  0.00     0.109 C 
ATOM     16  O   LIG d   1      -3.084  80.381 112.369  0.00  0.00    -0.276 OA
ATOM     17  H   LIG d   1      -0.255  79.052 112.830  0.00  0.00     0.149 HD
ENDBRANCH   6  13
BRANCH   5  18
ATOM     18  N   LIG d   1      -0.420  80.818 109.779  0.00  0.00     0.381 N 
ATOM     19  H   LIG d   1      -0.943  79.981 109.945  0.00  0.00    -0.090 HD
ATOM     20  H   LIG d   1       0.155  80.676 108.968  0.00  0.00    -0.090 HD
ATOM     21  H   LIG d   1      -1.042  81.581 109.625  0.00  0.00    -0.090 HD
ENDBRANCH   5  18
BRANCH   3  22
ATOM     22  C   LIG d   1       2.925  83.747 111.559  0.00  0.00     0.382 C 
ATOM     23  O   LIG d   1       2.866  84.600 110.641  0.00  0.00    -0.241 OA
ATOM     24  O   LIG d   1       3.976  83.623 112.215  0.00  0.00    -0.241 OA
ENDBRANCH   3  22
TORSDOF 7
ENDMDL
MODEL 3
REMARK VINA RESULT:      -4.6      1.698      4.810
REMARK  7 active torsions:
REMARK  status: ('A' for Active; 'I' for Inactive)
REMARK    1  A    between atoms: C_2  and  C_3 
REMARK    2  A    between atoms: C_3  and  O_6 
REMARK    3  A    between atoms: C_3  and  C_4 
REMARK    4  A    between atoms: C_7  and  O_6 
REMARK    5  A    between atoms: C_9  and  C_10 
REMARK    6  A    between atoms: N_15  and  C_14 
REMARK    7  A    between atoms: N_20  and  C_19 
REMARK       I    between atoms: C_22  and  N_20 
ROOT
ATOM      1  C   LIG d   1       1.362  82.032 112.773  0.00  0.00     0.161 C 
ATOM      2  C   LIG d   1       2.545  82.523 112.197  0.00  0.00     0.016 C 
ATOM      3  C   LIG d   1       2.820  82.460 110.811  0.00  0.00     0.038 C 
ATOM      4  C   LIG d   1       1.858  82.037 109.883  0.00  0.00     0.028 C 
ATOM      5  C   LIG d   1       0.839  81.064 110.467  0.00  0.00    -0.047 C 
ATOM      6  C   LIG d   1       0.253  81.668 111.763  0.00  0.00     0.091 C 
ENDROOT
BRANCH   1   7
ATOM      7  O   LIG d   1       0.865  82.974 113.744  0.00  0.00    -0.368 OA
BRANCH   7   8
ATOM      8  C   LIG d   1       0.776  82.495 115.109  0.00  0.00     0.119 C 
BRANCH   8   9
ATOM      9  C   LIG d   1      -0.500  83.097 115.728  0.00  0.00     0.028 C 
ATOM     10  C   LIG d   1      -1.382  82.033 116.404  0.00  0.00     0.006 C 
ENDBRANCH   8   9
BRANCH   8  11
ATOM     11  C   LIG d   1       1.931  83.027 115.962  0.00  0.00     0.028 C 
ATOM     12  C   LIG d   1       3.120  82.056 116.027  0.00  0.00     0.006 C 
ENDBRANCH   8  11
ENDBRANCH   7   8
ENDBRANCH   1   7
BRANCH   6  13
ATOM     13  N   LIG d   1      -0.690  80.743 112.444  0.00  0.00    -0.311 N 
ATOM     14  C   LIG d   1      -1.942  81.072 112.756  0.00  0.00     0.210 C 
ATOM     15  C   LIG d   1      -2.739  79.978 113.473  0.00  0.00     0.109 C 
ATOM     16  O   LIG d   1      -2.480  82.155 112.477  0.00  0.00    -0.276 OA
ATOM     17  H   LIG d   1      -0.346  79.833 112.678  0.00  0.00     0.149 HD
ENDBRANCH   6  13
BRANCH   5  18
ATOM     18  N   LIG d   1      -0.182  80.813 109.432  0.00  0.00     0.381 N 
ATOM     19  H   LIG d   1      -1.087  81.051 109.785  0.00  0.00    -0.090 HD
ATOM     20  H   LIG d   1      -0.180  79.834 109.204  0.00  0.00    -0.090 HD
ATOM     21  H   LIG d   1       0.018  81.351 108.618  0.00  0.00    -0.090 HD
ENDBRANCH   5  18
BRANCH   3  22
ATOM     22  C   LIG d   1       4.085  82.787 110.346  0.00  0.00     0.382 C 
ATOM     23  O   LIG d   1       5.042  81.995 110.523  0.00  0.00    -0.241 OA
ATOM     24  O   LIG d   1       4.290  83.883 109.791  0.00  0.00    -0.241 OA
ENDBRANCH   3  22
TORSDOF 7
ENDMDL
MODEL 4
REMARK VINA RESULT:      -4.6      2.084      3.441
REMARK  7 active torsions:
REMARK  status: ('A' for Active; 'I' for Inactive)
REMARK    1  A    between atoms: C_2  and  C_3 
REMARK    2  A    between atoms: C_3  and  O_6 
REMARK    3  A    between atoms: C_3  and  C_4 
REMARK    4  A    between atoms: C_7  and  O_6 
REMARK    5  A    between atoms: C_9  and  C_10 
REMARK    6  A    between atoms: N_15  and  C_14 
REMARK    7  A    between atoms: N_20  and  C_19 
REMARK       I    between atoms: C_22  and  N_20 
ROOT
ATOM      1  C   LIG d   1      -1.313  81.385 112.893  0.00  0.00     0.161 C 
ATOM      2  C   LIG d   1      -2.149  80.271 112.709  0.00  0.00     0.016 C 
ATOM      3  C   LIG d   1      -1.864  79.226 111.800  0.00  0.00     0.038 C 
ATOM      4  C   LIG d   1      -0.641  79.149 111.118  0.00  0.00     0.028 C 
ATOM      5  C   LIG d   1       0.012  80.508 110.892  0.00  0.00    -0.047 C 
ATOM      6  C   LIG d   1       0.079  81.264 112.239  0.00  0.00     0.091 C 
ENDROOT
BRANCH   1   7
ATOM      7  O   LIG d   1      -1.183  81.672 114.299  0.00  0.00    -0.368 OA
BRANCH   7   8
ATOM      8  C   LIG d   1      -1.769  82.917 114.753  0.00  0.00     0.119 C 
BRANCH   8   9
ATOM      9  C   LIG d   1      -0.802  83.537 115.780  0.00  0.00     0.028 C 
ATOM     10  C   LIG d   1       0.566  82.835 115.795  0.00  0.00     0.006 C 
ENDBRANCH   8   9
BRANCH   8  11
ATOM     11  C   LIG d   1      -3.073  82.672 115.519  0.00  0.00     0.028 C 
ATOM     12  C   LIG d   1      -2.888  81.739 116.727  0.00  0.00     0.006 C 
ENDBRANCH   8  11
ENDBRANCH   7   8
ENDBRANCH   1   7
BRANCH   6  13
ATOM     13  N   LIG d   1       0.628  82.637 112.092  0.00  0.00    -0.311 N 
ATOM     14  C   LIG d   1       1.912  82.937 112.282  0.00  0.00     0.210 C 
ATOM     15  C   LIG d   1       2.263  84.417 112.099  0.00  0.00     0.109 C 
ATOM     16  O   LIG d   1       2.798  82.113 112.552  0.00  0.00    -0.276 OA
ATOM     17  H   LIG d   1      -0.016  83.362 111.844  0.00  0.00     0.149 HD
ENDBRANCH   6  13
BRANCH   5  18
ATOM     18  N   LIG d   1       1.340  80.271 110.296  0.00  0.00     0.381 N 
ATOM     19  H   LIG d   1       1.394  79.333 109.950  0.00  0.00    -0.090 HD
ATOM     20  H   LIG d   1       2.041  80.386 111.007  0.00  0.00    -0.090 HD
ATOM     21  H   LIG d   1       1.501  80.916 109.553  0.00  0.00    -0.090 HD
ENDBRANCH   5  18
BRANCH   3  22
ATOM     22  C   LIG d   1      -2.827  78.263 111.537  0.00  0.00     0.382 C 
ATOM     23  O   LIG d   1      -3.439  77.712 112.483  0.00  0.00    -0.241 OA
ATOM     24  O   LIG d   1      -3.060  77.907 110.366  0.00  0.00    -0.241 OA
ENDBRANCH   3  22
TORSDOF 7
ENDMDL
MODEL 5
REMARK VINA RESULT:      -4.5      2.560      4.387
REMARK  7 active torsions:
REMARK  status: ('A' for Active; 'I' for Inactive)
REMARK    1  A    between atoms: C_2  and  C_3 
REMARK    2  A    between atoms: C_3  and  O_6 
REMARK    3  A    between atoms: C_3  and  C_4 
REMARK    4  A    between atoms: C_7  and  O_6 
REMARK    5  A    between atoms: C_9  and  C_10 
REMARK    6  A    between atoms: N_15  and  C_14 
REMARK    7  A    between atoms: N_20  and  C_19 
REMARK       I    between atoms: C_22  and  N_20 
ROOT
ATOM      1  C   LIG d   1      -0.201  81.287 111.643  0.00  0.00     0.161 C 
ATOM      2  C   LIG d   1      -0.812  80.052 111.364  0.00  0.00     0.016 C 
ATOM      3  C   LIG d   1      -1.987  79.602 112.009  0.00  0.00     0.038 C 
ATOM      4  C   LIG d   1      -2.721  80.428 112.874  0.00  0.00     0.028 C 
ATOM      5  C   LIG d   1      -1.870  81.486 113.568  0.00  0.00    -0.047 C 
ATOM      6  C   LIG d   1      -1.049  82.248 112.502  0.00  0.00     0.091 C 
ENDROOT
BRANCH   1   7
ATOM      7  O   LIG d   1       0.189  81.927 110.412  0.00  0.00    -0.368 OA
BRANCH   7   8
ATOM      8  C   LIG d   1       1.597  82.243 110.277  0.00  0.00     0.119 C 
BRANCH   8   9
ATOM      9  C   LIG d   1       1.703  83.557 109.479  0.00  0.00     0.028 C 
ATOM     10  C   LIG d   1       0.507  84.492 109.728  0.00  0.00     0.006 C 
ENDBRANCH   8   9
BRANCH   8  11
ATOM     11  C   LIG d   1       2.324  81.194 109.430  0.00  0.00     0.028 C 
ATOM     12  C   LIG d   1       3.814  81.070 109.786  0.00  0.00     0.006 C 
ENDBRANCH   8  11
ENDBRANCH   7   8
ENDBRANCH   1   7
BRANCH   6  13
ATOM     13  N   LIG d   1      -0.127  83.246 113.104  0.00  0.00    -0.311 N 
ATOM     14  C   LIG d   1       0.841  82.926 113.962  0.00  0.00     0.210 C 
ATOM     15  C   LIG d   1       1.665  84.110 114.477  0.00  0.00     0.109 C 
ATOM     16  O   LIG d   1       1.116  81.770 114.319  0.00  0.00    -0.276 OA
ATOM     17  H   LIG d   1      -0.258  84.204 112.844  0.00  0.00     0.149 HD
ENDBRANCH   6  13
BRANCH   5  18
ATOM     18  N   LIG d   1      -2.781  82.361 114.330  0.00  0.00     0.381 N 
ATOM     19  H   LIG d   1      -2.593  83.319 114.111  0.00  0.00    -0.090 HD
ATOM     20  H   LIG d   1      -2.618  82.224 115.312  0.00  0.00    -0.090 HD
ATOM     21  H   LIG d   1      -3.728  82.142 114.109  0.00  0.00    -0.090 HD
ENDBRANCH   5  18
BRANCH   3  22
ATOM     22  C   LIG d   1      -2.417  78.297 111.821  0.00  0.00     0.382 C 
ATOM     23  O   LIG d   1      -1.800  77.541 111.033  0.00  0.00    -0.241 OA
ATOM     24  O   LIG d   1      -3.440  77.881 112.397  0.00  0.00    -0.241 OA
ENDBRANCH   3  22
TORSDOF 7
ENDMDL
MODEL 6
REMARK VINA RESULT:      -4.5      2.419      6.150
REMARK  7 active torsions:
REMARK  status: ('A' for Active; 'I' for Inactive)
REMARK    1  A    between atoms: C_2  and  C_3 
REMARK    2  A    between atoms: C_3  and  O_6 
REMARK    3  A    between atoms: C_3  and  C_4 
REMARK    4  A    between atoms: C_7  and  O_6 
REMARK    5  A    between atoms: C_9  and  C_10 
REMARK    6  A    between atoms: N_15  and  C_14 
REMARK    7  A    between atoms: N_20  and  C_19 
REMARK       I    between atoms: C_22  and  N_20 
ROOT
ATOM      1  C   LIG d   1       0.090  82.519 111.436  0.00  0.00     0.161 C 
ATOM      2  C   LIG d   1       1.304  82.515 110.730  0.00  0.00     0.016 C 
ATOM      3  C   LIG d   1       2.570  82.558 111.358  0.00  0.00     0.038 C 
ATOM      4  C   LIG d   1       2.711  82.455 112.750  0.00  0.00     0.028 C 
ATOM      5  C   LIG d   1       1.498  82.966 113.521  0.00  0.00    -0.047 C 
ATOM      6  C   LIG d   1       0.225  82.294 112.957  0.00  0.00     0.091 C 
ENDROOT
BRANCH   1   7
ATOM      7  O   LIG d   1      -0.811  81.549 110.866  0.00  0.00    -0.368 OA
BRANCH   7   8
ATOM      8  C   LIG d   1      -0.501  80.159 111.128  0.00  0.00     0.119 C 
BRANCH   8   9
ATOM      9  C   LIG d   1      -0.283  79.468 109.768  0.00  0.00     0.028 C 
ATOM     10  C   LIG d   1       1.207  79.293 109.431  0.00  0.00     0.006 C 
ENDBRANCH   8   9
BRANCH   8  11
ATOM     11  C   LIG d   1      -1.690  79.433 111.765  0.00  0.00     0.028 C 
ATOM     12  C   LIG d   1      -2.230  78.291 110.889  0.00  0.00     0.006 C 
ENDBRANCH   8  11
ENDBRANCH   7   8
ENDBRANCH   1   7
BRANCH   6  13
ATOM     13  N   LIG d   1      -1.015  82.802 113.599  0.00  0.00    -0.311 N 
ATOM     14  C   LIG d   1      -1.629  82.178 114.604  0.00  0.00     0.210 C 
ATOM     15  C   LIG d   1      -2.904  82.861 115.106  0.00  0.00     0.109 C 
ATOM     16  O   LIG d   1      -1.220  81.141 115.147  0.00  0.00    -0.276 OA
ATOM     17  H   LIG d   1      -1.398  83.654 113.241  0.00  0.00     0.149 HD
ENDBRANCH   6  13
BRANCH   5  18
ATOM     18  N   LIG d   1       1.723  82.674 114.949  0.00  0.00     0.381 N 
ATOM     19  H   LIG d   1       1.081  81.969 115.255  0.00  0.00    -0.090 HD
ATOM     20  H   LIG d   1       1.553  83.508 115.483  0.00  0.00    -0.090 HD
ATOM     21  H   LIG d   1       2.659  82.365 115.091  0.00  0.00    -0.090 HD
ENDBRANCH   5  18
BRANCH   3  22
ATOM     22  C   LIG d   1       3.711  82.745 110.592  0.00  0.00     0.382 C 
ATOM     23  O   LIG d   1       4.821  82.339 111.012  0.00  0.00    -0.241 OA
ATOM     24  O   LIG d   1       3.650  83.355 109.508  0.00  0.00    -0.241 OA
ENDBRANCH   3  22
TORSDOF 7
ENDMDL
MODEL 7
REMARK VINA RESULT:      -4.5      3.397      6.490
REMARK  7 active torsions:
REMARK  status: ('A' for Active; 'I' for Inactive)
REMARK    1  A    between atoms: C_2  and  C_3 
REMARK    2  A    between atoms: C_3  and  O_6 
REMARK    3  A    between atoms: C_3  and  C_4 
REMARK    4  A    between atoms: C_7  and  O_6 
REMARK    5  A    between atoms: C_9  and  C_10 
REMARK    6  A    between atoms: N_15  and  C_14 
REMARK    7  A    between atoms: N_20  and  C_19 
REMARK       I    between atoms: C_22  and  N_20 
ROOT
ATOM      1  C   LIG d   1      -2.724  81.460 113.962  0.00  0.00     0.161 C 
ATOM      2  C   LIG d   1      -2.176  81.953 112.766  0.00  0.00     0.016 C 
ATOM      3  C   LIG d   1      -0.986  82.714 112.711  0.00  0.00     0.038 C 
ATOM      4  C   LIG d   1      -0.176  82.906 113.840  0.00  0.00     0.028 C 
ATOM      5  C   LIG d   1      -0.947  82.857 115.154  0.00  0.00    -0.047 C 
ATOM      6  C   LIG d   1      -1.796  81.565 115.190  0.00  0.00     0.091 C 
ENDROOT
BRANCH   1   7
ATOM      7  O   LIG d   1      -3.156  80.098 113.776  0.00  0.00    -0.368 OA
BRANCH   7   8
ATOM      8  C   LIG d   1      -2.194  79.201 113.168  0.00  0.00     0.119 C 
BRANCH   8   9
ATOM      9  C   LIG d   1      -2.896  78.500 111.989  0.00  0.00     0.028 C 
ATOM     10  C   LIG d   1      -1.964  78.310 110.780  0.00  0.00     0.006 C 
ENDBRANCH   8   9
BRANCH   8  11
ATOM     11  C   LIG d   1      -1.796  78.077 114.129  0.00  0.00     0.028 C 
ATOM     12  C   LIG d   1      -2.807  77.882 115.270  0.00  0.00     0.006 C 
ENDBRANCH   8  11
ENDBRANCH   7   8
ENDBRANCH   1   7
BRANCH   6  13
ATOM     13  N   LIG d   1      -2.646  81.479 116.405  0.00  0.00    -0.311 N 
ATOM     14  C   LIG d   1      -2.275  80.847 117.517  0.00  0.00     0.210 C 
ATOM     15  C   LIG d   1      -3.310  80.861 118.646  0.00  0.00     0.109 C 
ATOM     16  O   LIG d   1      -1.173  80.304 117.687  0.00  0.00    -0.276 OA
ATOM     17  H   LIG d   1      -3.545  81.919 116.365  0.00  0.00     0.149 HD
ENDBRANCH   6  13
BRANCH   5  18
ATOM     18  N   LIG d   1       0.036  82.933 116.251  0.00  0.00     0.381 N 
ATOM     19  H   LIG d   1      -0.388  83.348 117.057  0.00  0.00    -0.090 HD
ATOM     20  H   LIG d   1       0.801  83.517 115.962  0.00  0.00    -0.090 HD
ATOM     21  H   LIG d   1       0.370  82.022 116.474  0.00  0.00    -0.090 HD
ENDBRANCH   5  18
BRANCH   3  22
ATOM     22  C   LIG d   1      -0.615  83.326 111.523  0.00  0.00     0.382 C 
ATOM     23  O   LIG d   1      -1.490  83.832 110.779  0.00  0.00    -0.241 OA
ATOM     24  O   LIG d   1       0.577  83.339 111.164  0.00  0.00    -0.241 OA
ENDBRANCH   3  22
TORSDOF 7
ENDMDL
MODEL 8
REMARK VINA RESULT:      -4.5      1.698      4.953
REMARK  7 active torsions:
REMARK  status: ('A' for Active; 'I' for Inactive)
REMARK    1  A    between atoms: C_2  and  C_3 
REMARK    2  A    between atoms: C_3  and  O_6 
REMARK    3  A    between atoms: C_3  and  C_4 
REMARK    4  A    between atoms: C_7  and  O_6 
REMARK    5  A    between atoms: C_9  and  C_10 
REMARK    6  A    between atoms: N_15  and  C_14 
REMARK    7  A    between atoms: N_20  and  C_19 
REMARK       I    between atoms: C_22  and  N_20 
ROOT
ATOM      1  C   LIG d   1       1.674  82.129 112.617  0.00  0.00     0.161 C 
ATOM      2  C   LIG d   1       2.863  82.218 111.875  0.00  0.00     0.016 C 
ATOM      3  C   LIG d   1       3.008  81.693 110.570  0.00  0.00     0.038 C 
ATOM      4  C   LIG d   1       1.918  81.174 109.855  0.00  0.00     0.028 C 
ATOM      5  C   LIG d   1       0.822  80.606 110.750  0.00  0.00    -0.047 C 
ATOM      6  C   LIG d   1       0.442  81.664 111.811  0.00  0.00     0.091 C 
ENDROOT
BRANCH   1   7
ATOM      7  O   LIG d   1       1.404  83.390 113.261  0.00  0.00    -0.368 OA
BRANCH   7   8
ATOM      8  C   LIG d   1       1.274  83.353 114.704  0.00  0.00     0.119 C 
BRANCH   8   9
ATOM      9  C   LIG d   1       2.149  84.484 115.277  0.00  0.00     0.028 C 
ATOM     10  C   LIG d   1       3.632  84.326 114.903  0.00  0.00     0.006 C 
ENDBRANCH   8   9
BRANCH   8  11
ATOM     11  C   LIG d   1       1.853  82.059 115.283  0.00  0.00     0.028 C 
ATOM     12  C   LIG d   1       0.854  81.306 116.176  0.00  0.00     0.006 C 
ENDBRANCH   8  11
ENDBRANCH   7   8
ENDBRANCH   1   7
BRANCH   6  13
ATOM     13  N   LIG d   1      -0.565  81.159 112.780  0.00  0.00    -0.311 N 
ATOM     14  C   LIG d   1      -1.798  81.652 112.879  0.00  0.00     0.210 C 
ATOM     15  C   LIG d   1      -2.670  81.001 113.957  0.00  0.00     0.109 C 
ATOM     16  O   LIG d   1      -2.264  82.544 112.154  0.00  0.00    -0.276 OA
ATOM     17  H   LIG d   1      -0.281  80.415 113.386  0.00  0.00     0.149 HD
ENDBRANCH   6  13
BRANCH   5  18
ATOM     18  N   LIG d   1      -0.309  80.226 109.882  0.00  0.00     0.381 N 
ATOM     19  H   LIG d   1      -1.052  79.851 110.439  0.00  0.00    -0.090 HD
ATOM     20  H   LIG d   1      -0.003  79.514 109.243  0.00  0.00    -0.090 HD
ATOM     21  H   LIG d   1      -0.632  81.021 109.376  0.00  0.00    -0.090 HD
ENDBRANCH   5  18
BRANCH   3  22
ATOM     22  C   LIG d   1       4.263  81.650 109.982  0.00  0.00     0.382 C 
ATOM     23  O   LIG d   1       4.853  80.551 109.846  0.00  0.00    -0.241 OA
ATOM     24  O   LIG d   1       4.831  82.699 109.627  0.00  0.00    -0.241 OA
ENDBRANCH   3  22
TORSDOF 7
ENDMDL
MODEL 9
REMARK VINA RESULT:      -4.5      2.195      3.009
REMARK  7 active torsions:
REMARK  status: ('A' for Active; 'I' for Inactive)
REMARK    1  A    between atoms: C_2  and  C_3 
REMARK    2  A    between atoms: C_3  and  O_6 
REMARK    3  A    between atoms: C_3  and  C_4 
REMARK    4  A    between atoms: C_7  and  O_6 
REMARK    5  A    between atoms: C_9  and  C_10 
REMARK    6  A    between atoms: N_15  and  C_14 
REMARK    7  A    between atoms: N_20  and  C_19 
REMARK       I    between atoms: C_22  and  N_20 
ROOT
ATOM      1  C   LIG d   1      -2.145  81.938 112.658  0.00  0.00     0.161 C 
ATOM      2  C   LIG d   1      -2.698  80.785 113.239  0.00  0.00     0.016 C 
ATOM      3  C   LIG d   1      -2.222  79.479 112.981  0.00  0.00     0.038 C 
ATOM      4  C   LIG d   1      -1.055  79.249 112.236  0.00  0.00     0.028 C 
ATOM      5  C   LIG d   1      -0.761  80.345 111.218  0.00  0.00    -0.047 C 
ATOM      6  C   LIG d   1      -0.803  81.716 111.930  0.00  0.00     0.091 C 
ENDROOT
BRANCH   1   7
ATOM      7  O   LIG d   1      -2.010  82.970 113.655  0.00  0.00    -0.368 OA
BRANCH   7   8
ATOM      8  C   LIG d   1      -1.305  82.600 114.865  0.00  0.00     0.119 C 
BRANCH   8   9
ATOM      9  C   LIG d   1      -2.190  83.006 116.059  0.00  0.00     0.028 C 
ATOM     10  C   LIG d   1      -2.775  81.789 116.796  0.00  0.00     0.006 C 
ENDBRANCH   8   9
BRANCH   8  11
ATOM     11  C   LIG d   1      -0.012  83.405 115.026  0.00  0.00     0.028 C 
ATOM     12  C   LIG d   1       0.013  84.672 114.156  0.00  0.00     0.006 C 
ENDBRANCH   8  11
ENDBRANCH   7   8
ENDBRANCH   1   7
BRANCH   6  13
ATOM     13  N   LIG d   1      -0.608  82.850 110.989  0.00  0.00    -0.311 N 
ATOM     14  C   LIG d   1       0.582  83.386 110.723  0.00  0.00     0.210 C 
ATOM     15  C   LIG d   1       0.557  84.560 109.740  0.00  0.00     0.109 C 
ATOM     16  O   LIG d   1       1.660  82.979 111.183  0.00  0.00    -0.276 OA
ATOM     17  H   LIG d   1      -1.426  83.221 110.547  0.00  0.00     0.149 HD
ENDBRANCH   6  13
BRANCH   5  18
ATOM     18  N   LIG d   1       0.551  80.049 110.610  0.00  0.00     0.381 N 
ATOM     19  H   LIG d   1       1.184  80.802 110.789  0.00  0.00    -0.090 HD
ATOM     20  H   LIG d   1       0.436  79.961 109.616  0.00  0.00    -0.090 HD
ATOM     21  H   LIG d   1       0.916  79.201 110.986  0.00  0.00    -0.090 HD
ENDBRANCH   5  18
BRANCH   3  22
ATOM     22  C   LIG d   1      -2.938  78.383 113.438  0.00  0.00     0.382 C 
ATOM     23  O   LIG d   1      -3.127  78.226 114.668  0.00  0.00    -0.241 OA
ATOM     24  O   LIG d   1      -3.361  77.526 112.638  0.00  0.00    -0.241 OA
ENDBRANCH   3  22
TORSDOF 7
ENDMDL
