MODEL 1
REMARK VINA RESULT:      -5.4      0.000      0.000
REMARK  7 active torsions:
REMARK  status: ('A' for Active; 'I' for Inactive)
REMARK    1  A    between atoms: C_2  and  C_3 
REMARK    2  A    between atoms: C_3  and  O_6 
REMARK    3  A    between atoms: C_3  and  C_4 
REMARK    4  A    between atoms: C_7  and  O_6 
REMARK    5  A    between atoms: C_9  and  C_10 
REMARK    6  A    between atoms: N_15  and  C_14 
REMARK    7  A    between atoms: N_20  and  C_19 
REMARK       I    between atoms: C_22  and  N_20 
ROOT
ATOM      1  C   LIG d   1       0.966  81.127 112.617  0.00  0.00     0.161 C 
ATOM      2  C   LIG d   1       2.103  81.602 111.943  0.00  0.00     0.016 C 
ATOM      3  C   LIG d   1       2.342  81.378 110.567  0.00  0.00     0.038 C 
ATOM      4  C   LIG d   1       1.380  80.789 109.734  0.00  0.00     0.028 C 
ATOM      5  C   LIG d   1       0.436  79.845 110.471  0.00  0.00    -0.047 C 
ATOM      6  C   LIG d   1      -0.148  80.578 111.701  0.00  0.00     0.091 C 
ENDROOT
BRANCH   1   7
ATOM      7  O   LIG d   1       0.443  82.157 113.479  0.00  0.00    -0.368 OA
BRANCH   7   8
ATOM      8  C   LIG d   1       0.595  83.519 113.009  0.00  0.00     0.119 C 
BRANCH   8   9
ATOM      9  C   LIG d   1       0.915  84.398 114.234  0.00  0.00     0.028 C 
ATOM     10  C   LIG d   1       1.610  83.610 115.357  0.00  0.00     0.006 C 
ENDBRANCH   8   9
BRANCH   8  11
ATOM     11  C   LIG d   1      -0.722  84.066 112.450  0.00  0.00     0.028 C 
ATOM     12  C   LIG d   1      -0.718  84.176 110.917  0.00  0.00     0.006 C 
ENDBRANCH   8  11
ENDBRANCH   7   8
ENDBRANCH   1   7
BRANCH   6  13
ATOM     13  N   LIG d   1      -1.017  79.699 112.526  0.00  0.00    -0.311 N 
ATOM     14  C   LIG d   1      -2.206  80.073 112.993  0.00  0.00     0.210 C 
ATOM     15  C   LIG d   1      -2.929  79.021 113.839  0.00  0.00     0.109 C 
ATOM     16  O   LIG d   1      -2.745  81.166 112.761  0.00  0.00    -0.276 OA
ATOM     17  H   LIG d   1      -0.670  78.783 112.736  0.00  0.00     0.149 HD
ENDBRANCH   6  13
BRANCH   5  18
ATOM     18  N   LIG d   1      -0.598  79.410 109.513  0.00  0.00     0.381 N 
ATOM     19  H   LIG d   1      -1.004  80.208 109.068  0.00  0.00    -0.090 HD
ATOM     20  H   LIG d   1      -1.322  78.925 110.014  0.00  0.00    -0.090 HD
ATOM     21  H   LIG d   1      -0.196  78.807 108.829  0.00  0.00    -0.090 HD
ENDBRANCH   5  18
BRANCH   3  22
ATOM     22  C   LIG d   1       3.572  81.710 110.021  0.00  0.00     0.382 C 
ATOM     23  O   LIG d   1       4.442  80.822 109.850  0.00  0.00    -0.241 OA
ATOM     24  O   LIG d   1       3.839  82.893 109.738  0.00  0.00    -0.241 OA
ENDBRANCH   3  22
TORSDOF 7
ENDMDL
MODEL 2
REMARK VINA RESULT:      -4.8      1.061      1.460
REMARK  7 active torsions:
REMARK  status: ('A' for Active; 'I' for Inactive)
REMARK    1  A    between atoms: C_2  and  C_3 
REMARK    2  A    between atoms: C_3  and  O_6 
REMARK    3  A    between atoms: C_3  and  C_4 
REMARK    4  A    between atoms: C_7  and  O_6 
REMARK    5  A    between atoms: C_9  and  C_10 
REMARK    6  A    between atoms: N_15  and  C_14 
REMARK    7  A    between atoms: N_20  and  C_19 
REMARK       I    between atoms: C_22  and  N_20 
ROOT
ATOM      1  C   LIG d   1       1.385  81.301 112.955  0.00  0.00     0.161 C 
ATOM      2  C   LIG d   1       2.652  81.696 112.495  0.00  0.00     0.016 C 
ATOM      3  C   LIG d   1       3.007  81.733 111.127  0.00  0.00     0.038 C 
ATOM      4  C   LIG d   1       2.064  81.521 110.110  0.00  0.00     0.028 C 
ATOM      5  C   LIG d   1       0.904  80.628 110.537  0.00  0.00    -0.047 C 
ATOM      6  C   LIG d   1       0.309  81.173 111.856  0.00  0.00     0.091 C 
ENDROOT
BRANCH   1   7
ATOM      7  O   LIG d   1       0.939  82.200 113.990  0.00  0.00    -0.368 OA
BRANCH   7   8
ATOM      8  C   LIG d   1       1.838  83.286 114.322  0.00  0.00     0.119 C 
BRANCH   8   9
ATOM      9  C   LIG d   1       2.200  83.147 115.813  0.00  0.00     0.028 C 
ATOM     10  C   LIG d   1       1.440  84.149 116.698  0.00  0.00     0.006 C 
ENDBRANCH   8   9
BRANCH   8  11
ATOM     11  C   LIG d   1       1.141  84.644 114.199  0.00  0.00     0.028 C 
ATOM     12  C   LIG d   1      -0.036  84.622 113.211  0.00  0.00     0.006 C 
ENDBRANCH   8  11
ENDBRANCH   7   8
ENDBRANCH   1   7
BRANCH   6  13
ATOM     13  N   LIG d   1      -0.777  80.309 112.388  0.00  0.00    -0.311 N 
ATOM     14  C   LIG d   1      -1.964  80.776 112.769  0.00  0.00     0.210 C 
ATOM     15  C   LIG d   1      -2.933  79.718 113.307  0.00  0.00     0.109 C 
ATOM     16  O   LIG d   1      -2.319  81.962 112.683  0.00  0.00    -0.276 OA
ATOM     17  H   LIG d   1      -0.585  79.330 112.462  0.00  0.00     0.149 HD
ENDBRANCH   6  13
BRANCH   5  18
ATOM     18  N   LIG d   1      -0.070  80.603 109.430  0.00  0.00     0.381 N 
ATOM     19  H   LIG d   1       0.404  80.435 108.565  0.00  0.00    -0.090 HD
ATOM     20  H   LIG d   1      -0.521  81.499 109.374  0.00  0.00    -0.090 HD
ATOM     21  H   LIG d   1      -0.749  79.891 109.589  0.00  0.00    -0.090 HD
ENDBRANCH   5  18
BRANCH   3  22
ATOM     22  C   LIG d   1       4.329  81.946 110.765  0.00  0.00     0.382 C 
ATOM     23  O   LIG d   1       5.137  82.424 111.597  0.00  0.00    -0.241 OA
ATOM     24  O   LIG d   1       4.712  81.708 109.605  0.00  0.00    -0.241 OA
ENDBRANCH   3  22
TORSDOF 7
ENDMDL
MODEL 3
REMARK VINA RESULT:      -4.7      1.950      5.035
REMARK  7 active torsions:
REMARK  status: ('A' for Active; 'I' for Inactive)
REMARK    1  A    between atoms: C_2  and  C_3 
REMARK    2  A    between atoms: C_3  and  O_6 
REMARK    3  A    between atoms: C_3  and  C_4 
REMARK    4  A    between atoms: C_7  and  O_6 
REMARK    5  A    between atoms: C_9  and  C_10 
REMARK    6  A    between atoms: N_15  and  C_14 
REMARK    7  A    between atoms: N_20  and  C_19 
REMARK       I    between atoms: C_22  and  N_20 
ROOT
ATOM      1  C   LIG d   1      -0.237  81.452 112.243  0.00  0.00     0.161 C 
ATOM      2  C   LIG d   1      -1.262  80.609 112.705  0.00  0.00     0.016 C 
ATOM      3  C   LIG d   1      -1.545  79.345 112.137  0.00  0.00     0.038 C 
ATOM      4  C   LIG d   1      -0.719  78.770 111.160  0.00  0.00     0.028 C 
ATOM      5  C   LIG d   1       0.024  79.797 110.313  0.00  0.00    -0.047 C 
ATOM      6  C   LIG d   1       0.744  80.793 111.250  0.00  0.00     0.091 C 
ENDROOT
BRANCH   1   7
ATOM      7  O   LIG d   1       0.480  82.008 113.362  0.00  0.00    -0.368 OA
BRANCH   7   8
ATOM      8  C   LIG d   1       1.599  81.229 113.852  0.00  0.00     0.119 C 
BRANCH   8   9
ATOM      9  C   LIG d   1       1.323  80.901 115.332  0.00  0.00     0.028 C 
ATOM     10  C   LIG d   1       0.753  79.485 115.522  0.00  0.00     0.006 C 
ENDBRANCH   8   9
BRANCH   8  11
ATOM     11  C   LIG d   1       2.891  82.052 113.854  0.00  0.00     0.028 C 
ATOM     12  C   LIG d   1       2.654  83.535 113.528  0.00  0.00     0.006 C 
ENDBRANCH   8  11
ENDBRANCH   7   8
ENDBRANCH   1   7
BRANCH   6  13
ATOM     13  N   LIG d   1       1.427  81.882 110.504  0.00  0.00    -0.311 N 
ATOM     14  C   LIG d   1       2.719  81.853 110.184  0.00  0.00     0.210 C 
ATOM     15  C   LIG d   1       3.227  83.087 109.431  0.00  0.00     0.109 C 
ATOM     16  O   LIG d   1       3.486  80.909 110.425  0.00  0.00    -0.276 OA
ATOM     17  H   LIG d   1       0.872  82.673 110.242  0.00  0.00     0.149 HD
ENDBRANCH   6  13
BRANCH   5  18
ATOM     18  N   LIG d   1       0.949  79.062 109.430  0.00  0.00     0.381 N 
ATOM     19  H   LIG d   1       1.483  78.409 109.968  0.00  0.00    -0.090 HD
ATOM     20  H   LIG d   1       1.584  79.717 109.008  0.00  0.00    -0.090 HD
ATOM     21  H   LIG d   1       0.437  78.582 108.723  0.00  0.00    -0.090 HD
ENDBRANCH   5  18
BRANCH   3  22
ATOM     22  C   LIG d   1      -2.688  78.660 112.520  0.00  0.00     0.382 C 
ATOM     23  O   LIG d   1      -3.389  79.091 113.467  0.00  0.00    -0.241 OA
ATOM     24  O   LIG d   1      -3.004  77.594 111.958  0.00  0.00    -0.241 OA
ENDBRANCH   3  22
TORSDOF 7
ENDMDL
MODEL 4
REMARK VINA RESULT:      -4.5      2.609      5.205
REMARK  7 active torsions:
REMARK  status: ('A' for Active; 'I' for Inactive)
REMARK    1  A    between atoms: C_2  and  C_3 
REMARK    2  A    between atoms: C_3  and  O_6 
REMARK    3  A    between atoms: C_3  and  C_4 
REMARK    4  A    between atoms: C_7  and  O_6 
REMARK    5  A    between atoms: C_9  and  C_10 
REMARK    6  A    between atoms: N_15  and  C_14 
REMARK    7  A    between atoms: N_20  and  C_19 
REMARK       I    between atoms: C_22  and  N_20 
ROOT
ATOM      1  C   LIG d   1       0.044  80.458 112.309  0.00  0.00     0.161 C 
ATOM      2  C   LIG d   1      -1.067  79.674 111.955  0.00  0.00     0.016 C 
ATOM      3  C   LIG d   1      -1.710  78.788 112.849  0.00  0.00     0.038 C 
ATOM      4  C   LIG d   1      -1.379  78.738 114.211  0.00  0.00     0.028 C 
ATOM      5  C   LIG d   1       0.063  79.141 114.499  0.00  0.00    -0.047 C 
ATOM      6  C   LIG d   1       0.350  80.500 113.821  0.00  0.00     0.091 C 
ENDROOT
BRANCH   1   7
ATOM      7  O   LIG d   1      -0.118  81.794 111.793  0.00  0.00    -0.368 OA
BRANCH   7   8
ATOM      8  C   LIG d   1       0.449  82.044 110.484  0.00  0.00     0.119 C 
BRANCH   8   9
ATOM      9  C   LIG d   1       1.897  81.519 110.498  0.00  0.00     0.028 C 
ATOM     10  C   LIG d   1       2.926  82.641 110.716  0.00  0.00     0.006 C 
ENDBRANCH   8   9
BRANCH   8  11
ATOM     11  C   LIG d   1       0.565  83.546 110.204  0.00  0.00     0.028 C 
ATOM     12  C   LIG d   1      -0.646  84.342 110.715  0.00  0.00     0.006 C 
ENDBRANCH   8  11
ENDBRANCH   7   8
ENDBRANCH   1   7
BRANCH   6  13
ATOM     13  N   LIG d   1       1.764  80.927 113.982  0.00  0.00    -0.311 N 
ATOM     14  C   LIG d   1       2.163  81.812 114.894  0.00  0.00     0.210 C 
ATOM     15  C   LIG d   1       3.663  82.127 114.876  0.00  0.00     0.109 C 
ATOM     16  O   LIG d   1       1.424  82.342 115.737  0.00  0.00    -0.276 OA
ATOM     17  H   LIG d   1       2.436  80.523 113.359  0.00  0.00     0.149 HD
ENDBRANCH   6  13
BRANCH   5  18
ATOM     18  N   LIG d   1       0.232  79.178 115.964  0.00  0.00     0.381 N 
ATOM     19  H   LIG d   1       0.750  79.993 116.224  0.00  0.00    -0.090 HD
ATOM     20  H   LIG d   1       0.753  78.368 116.251  0.00  0.00    -0.090 HD
ATOM     21  H   LIG d   1      -0.658  79.185 116.410  0.00  0.00    -0.090 HD
ENDBRANCH   5  18
BRANCH   3  22
ATOM     22  C   LIG d   1      -2.672  77.909 112.373  0.00  0.00     0.382 C 
ATOM     23  O   LIG d   1      -3.440  77.325 113.175  0.00  0.00    -0.241 OA
ATOM     24  O   LIG d   1      -2.752  77.660 111.155  0.00  0.00    -0.241 OA
ENDBRANCH   3  22
TORSDOF 7
ENDMDL
MODEL 5
REMARK VINA RESULT:      -4.4      2.411      4.331
REMARK  7 active torsions:
REMARK  status: ('A' for Active; 'I' for Inactive)
REMARK    1  A    between atoms: C_2  and  C_3 
REMARK    2  A    between atoms: C_3  and  O_6 
REMARK    3  A    between atoms: C_3  and  C_4 
REMARK    4  A    between atoms: C_7  and  O_6 
REMARK    5  A    between atoms: C_9  and  C_10 
REMARK    6  A    between atoms: N_15  and  C_14 
REMARK    7  A    between atoms: N_20  and  C_19 
REMARK       I    between atoms: C_22  and  N_20 
ROOT
ATOM      1  C   LIG d   1       1.676  82.204 111.923  0.00  0.00     0.161 C 
ATOM      2  C   LIG d   1       2.946  82.754 112.165  0.00  0.00     0.016 C 
ATOM      3  C   LIG d   1       3.641  82.599 113.386  0.00  0.00     0.038 C 
ATOM      4  C   LIG d   1       3.176  81.750 114.401  0.00  0.00     0.028 C 
ATOM      5  C   LIG d   1       1.661  81.578 114.400  0.00  0.00    -0.047 C 
ATOM      6  C   LIG d   1       1.202  81.183 112.978  0.00  0.00     0.091 C 
ENDROOT
BRANCH   1   7
ATOM      7  O   LIG d   1       1.639  81.618 110.607  0.00  0.00    -0.368 OA
BRANCH   7   8
ATOM      8  C   LIG d   1       2.673  80.647 110.313  0.00  0.00     0.119 C 
BRANCH   8   9
ATOM      9  C   LIG d   1       3.732  81.347 109.438  0.00  0.00     0.028 C 
ATOM     10  C   LIG d   1       5.165  80.916 109.793  0.00  0.00     0.006 C 
ENDBRANCH   8   9
BRANCH   8  11
ATOM     11  C   LIG d   1       2.133  79.500 109.454  0.00  0.00     0.028 C 
ATOM     12  C   LIG d   1       0.689  79.115 109.815  0.00  0.00     0.006 C 
ENDBRANCH   8  11
ENDBRANCH   7   8
ENDBRANCH   1   7
BRANCH   6  13
ATOM     13  N   LIG d   1      -0.277  81.077 112.869  0.00  0.00    -0.311 N 
ATOM     14  C   LIG d   1      -0.947  79.943 113.064  0.00  0.00     0.210 C 
ATOM     15  C   LIG d   1      -2.464  80.048 112.883  0.00  0.00     0.109 C 
ATOM     16  O   LIG d   1      -0.431  78.866 113.401  0.00  0.00    -0.276 OA
ATOM     17  H   LIG d   1      -0.777  81.910 112.630  0.00  0.00     0.149 HD
ENDBRANCH   6  13
BRANCH   5  18
ATOM     18  N   LIG d   1       1.327  80.564 115.418  0.00  0.00     0.381 N 
ATOM     19  H   LIG d   1       1.085  81.015 116.278  0.00  0.00    -0.090 HD
ATOM     20  H   LIG d   1       2.134  79.988 115.580  0.00  0.00    -0.090 HD
ATOM     21  H   LIG d   1       0.567  80.003 115.103  0.00  0.00    -0.090 HD
ENDBRANCH   5  18
BRANCH   3  22
ATOM     22  C   LIG d   1       4.798  83.329 113.615  0.00  0.00     0.382 C 
ATOM     23  O   LIG d   1       4.750  84.381 114.298  0.00  0.00    -0.241 OA
ATOM     24  O   LIG d   1       5.880  82.974 113.112  0.00  0.00    -0.241 OA
ENDBRANCH   3  22
TORSDOF 7
ENDMDL
MODEL 6
REMARK VINA RESULT:      -4.2      3.204      5.297
REMARK  7 active torsions:
REMARK  status: ('A' for Active; 'I' for Inactive)
REMARK    1  A    between atoms: C_2  and  C_3 
REMARK    2  A    between atoms: C_3  and  O_6 
REMARK    3  A    between atoms: C_3  and  C_4 
REMARK    4  A    between atoms: C_7  and  O_6 
REMARK    5  A    between atoms: C_9  and  C_10 
REMARK    6  A    between atoms: N_15  and  C_14 
REMARK    7  A    between atoms: N_20  and  C_19 
REMARK       I    between atoms: C_22  and  N_20 
ROOT
ATOM      1  C   LIG d   1       3.635  83.769 113.093  0.00  0.00     0.161 C 
ATOM      2  C   LIG d   1       4.704  83.575 113.983  0.00  0.00     0.016 C 
ATOM      3  C   LIG d   1       4.627  82.742 115.123  0.00  0.00     0.038 C 
ATOM      4  C   LIG d   1       3.516  81.922 115.368  0.00  0.00     0.028 C 
ATOM      5  C   LIG d   1       2.220  82.464 114.775  0.00  0.00    -0.047 C 
ATOM      6  C   LIG d   1       2.452  82.796 113.283  0.00  0.00     0.091 C 
ENDROOT
BRANCH   1   7
ATOM      7  O   LIG d   1       4.114  83.716 111.735  0.00  0.00    -0.368 OA
BRANCH   7   8
ATOM      8  C   LIG d   1       4.004  82.434 111.070  0.00  0.00     0.119 C 
BRANCH   8   9
ATOM      9  C   LIG d   1       5.434  81.915 110.826  0.00  0.00     0.028 C 
ATOM     10  C   LIG d   1       5.501  80.897 109.675  0.00  0.00     0.006 C 
ENDBRANCH   8   9
BRANCH   8  11
ATOM     11  C   LIG d   1       3.383  82.580 109.677  0.00  0.00     0.028 C 
ATOM     12  C   LIG d   1       2.779  83.972 109.437  0.00  0.00     0.006 C 
ENDBRANCH   8  11
ENDBRANCH   7   8
ENDBRANCH   1   7
BRANCH   6  13
ATOM     13  N   LIG d   1       1.257  83.411 112.647  0.00  0.00    -0.311 N 
ATOM     14  C   LIG d   1       0.359  82.718 111.950  0.00  0.00     0.210 C 
ATOM     15  C   LIG d   1      -0.785  83.550 111.362  0.00  0.00     0.109 C 
ATOM     16  O   LIG d   1       0.384  81.488 111.790  0.00  0.00    -0.276 OA
ATOM     17  H   LIG d   1       1.143  84.400 112.753  0.00  0.00     0.149 HD
ENDBRANCH   6  13
BRANCH   5  18
ATOM     18  N   LIG d   1       1.173  81.447 114.985  0.00  0.00     0.381 N 
ATOM     19  H   LIG d   1       0.445  81.566 114.310  0.00  0.00    -0.090 HD
ATOM     20  H   LIG d   1       0.778  81.571 115.901  0.00  0.00    -0.090 HD
ATOM     21  H   LIG d   1       1.564  80.534 114.905  0.00  0.00    -0.090 HD
ENDBRANCH   5  18
BRANCH   3  22
ATOM     22  C   LIG d   1       5.655  82.754 116.054  0.00  0.00     0.382 C 
ATOM     23  O   LIG d   1       6.014  81.686 116.605  0.00  0.00    -0.241 OA
ATOM     24  O   LIG d   1       6.197  83.826 116.382  0.00  0.00    -0.241 OA
ENDBRANCH   3  22
TORSDOF 7
ENDMDL
MODEL 7
REMARK VINA RESULT:      -4.0      4.808      7.700
REMARK  7 active torsions:
REMARK  status: ('A' for Active; 'I' for Inactive)
REMARK    1  A    between atoms: C_2  and  C_3 
REMARK    2  A    between atoms: C_3  and  O_6 
REMARK    3  A    between atoms: C_3  and  C_4 
REMARK    4  A    between atoms: C_7  and  O_6 
REMARK    5  A    between atoms: C_9  and  C_10 
REMARK    6  A    between atoms: N_15  and  C_14 
REMARK    7  A    between atoms: N_20  and  C_19 
REMARK       I    between atoms: C_22  and  N_20 
ROOT
ATOM      1  C   LIG d   1      -1.780  77.192 115.977  0.00  0.00     0.161 C 
ATOM      2  C   LIG d   1      -2.217  77.282 114.645  0.00  0.00     0.016 C 
ATOM      3  C   LIG d   1      -1.622  78.137 113.688  0.00  0.00     0.038 C 
ATOM      4  C   LIG d   1      -0.446  78.852 113.961  0.00  0.00     0.028 C 
ATOM      5  C   LIG d   1      -0.266  79.178 115.440  0.00  0.00    -0.047 C 
ATOM      6  C   LIG d   1      -0.430  77.881 116.264  0.00  0.00     0.091 C 
ENDROOT
BRANCH   1   7
ATOM      7  O   LIG d   1      -1.733  75.810 116.383  0.00  0.00    -0.368 OA
BRANCH   7   8
ATOM      8  C   LIG d   1      -0.412  75.241 116.558  0.00  0.00     0.119 C 
BRANCH   8   9
ATOM      9  C   LIG d   1      -0.171  74.263 115.392  0.00  0.00     0.028 C 
ATOM     10  C   LIG d   1       0.741  74.858 114.306  0.00  0.00     0.006 C 
ENDBRANCH   8   9
BRANCH   8  11
ATOM     11  C   LIG d   1      -0.337  74.387 117.827  0.00  0.00     0.028 C 
ATOM     12  C   LIG d   1      -1.425  74.744 118.852  0.00  0.00     0.006 C 
ENDBRANCH   8  11
ENDBRANCH   7   8
ENDBRANCH   1   7
BRANCH   6  13
ATOM     13  N   LIG d   1      -0.352  78.126 117.728  0.00  0.00    -0.311 N 
ATOM     14  C   LIG d   1       0.776  78.022 118.429  0.00  0.00     0.210 C 
ATOM     15  C   LIG d   1       0.632  78.297 119.929  0.00  0.00     0.109 C 
ATOM     16  O   LIG d   1       1.888  77.760 117.946  0.00  0.00    -0.276 OA
ATOM     17  H   LIG d   1      -1.202  78.374 118.195  0.00  0.00     0.149 HD
ENDBRANCH   6  13
BRANCH   5  18
ATOM     18  N   LIG d   1       1.062  79.801 115.600  0.00  0.00     0.381 N 
ATOM     19  H   LIG d   1       0.957  80.780 115.778  0.00  0.00    -0.090 HD
ATOM     20  H   LIG d   1       1.578  79.690 114.745  0.00  0.00    -0.090 HD
ATOM     21  H   LIG d   1       1.553  79.369 116.351  0.00  0.00    -0.090 HD
ENDBRANCH   5  18
BRANCH   3  22
ATOM     22  C   LIG d   1      -2.228  78.313 112.453  0.00  0.00     0.382 C 
ATOM     23  O   LIG d   1      -3.260  77.661 112.163  0.00  0.00    -0.241 OA
ATOM     24  O   LIG d   1      -1.730  79.082 111.609  0.00  0.00    -0.241 OA
ENDBRANCH   3  22
TORSDOF 7
ENDMDL
MODEL 8
REMARK VINA RESULT:      -4.0      2.218      5.140
REMARK  7 active torsions:
REMARK  status: ('A' for Active; 'I' for Inactive)
REMARK    1  A    between atoms: C_2  and  C_3 
REMARK    2  A    between atoms: C_3  and  O_6 
REMARK    3  A    between atoms: C_3  and  C_4 
REMARK    4  A    between atoms: C_7  and  O_6 
REMARK    5  A    between atoms: C_9  and  C_10 
REMARK    6  A    between atoms: N_15  and  C_14 
REMARK    7  A    between atoms: N_20  and  C_19 
REMARK       I    between atoms: C_22  and  N_20 
ROOT
ATOM      1  C   LIG d   1       1.070  81.339 112.986  0.00  0.00     0.161 C 
ATOM      2  C   LIG d   1       0.304  80.362 113.645  0.00  0.00     0.016 C 
ATOM      3  C   LIG d   1      -0.563  79.470 112.973  0.00  0.00     0.038 C 
ATOM      4  C   LIG d   1      -0.610  79.394 111.573  0.00  0.00     0.028 C 
ATOM      5  C   LIG d   1      -0.233  80.701 110.883  0.00  0.00    -0.047 C 
ATOM      6  C   LIG d   1       1.116  81.197 111.450  0.00  0.00     0.091 C 
ENDROOT
BRANCH   1   7
ATOM      7  O   LIG d   1       2.405  81.360 113.528  0.00  0.00    -0.368 OA
BRANCH   7   8
ATOM      8  C   LIG d   1       2.754  82.523 114.319  0.00  0.00     0.119 C 
BRANCH   8   9
ATOM      9  C   LIG d   1       3.938  83.219 113.620  0.00  0.00     0.028 C 
ATOM     10  C   LIG d   1       4.972  82.218 113.079  0.00  0.00     0.006 C 
ENDBRANCH   8   9
BRANCH   8  11
ATOM     11  C   LIG d   1       3.279  82.120 115.700  0.00  0.00     0.028 C 
ATOM     12  C   LIG d   1       3.199  83.264 116.724  0.00  0.00     0.006 C 
ENDBRANCH   8  11
ENDBRANCH   7   8
ENDBRANCH   1   7
BRANCH   6  13
ATOM     13  N   LIG d   1       1.517  82.514 110.889  0.00  0.00    -0.311 N 
ATOM     14  C   LIG d   1       2.628  82.700 110.178  0.00  0.00     0.210 C 
ATOM     15  C   LIG d   1       2.863  84.140 109.711  0.00  0.00     0.109 C 
ATOM     16  O   LIG d   1       3.424  81.803 109.862  0.00  0.00    -0.276 OA
ATOM     17  H   LIG d   1       0.912  83.290 111.071  0.00  0.00     0.149 HD
ENDBRANCH   6  13
BRANCH   5  18
ATOM     18  N   LIG d   1      -0.190  80.442 109.431  0.00  0.00     0.381 N 
ATOM     19  H   LIG d   1      -1.022  80.791 109.000  0.00  0.00    -0.090 HD
ATOM     20  H   LIG d   1      -0.149  79.449 109.279  0.00  0.00    -0.090 HD
ATOM     21  H   LIG d   1       0.610  80.880 109.030  0.00  0.00    -0.090 HD
ENDBRANCH   5  18
BRANCH   3  22
ATOM     22  C   LIG d   1      -1.426  78.669 113.705  0.00  0.00     0.382 C 
ATOM     23  O   LIG d   1      -2.086  79.160 114.652  0.00  0.00    -0.241 OA
ATOM     24  O   LIG d   1      -1.520  77.451 113.459  0.00  0.00    -0.241 OA
ENDBRANCH   3  22
TORSDOF 7
ENDMDL
MODEL 9
REMARK VINA RESULT:      -3.9      4.466      7.099
REMARK  7 active torsions:
REMARK  status: ('A' for Active; 'I' for Inactive)
REMARK    1  A    between atoms: C_2  and  C_3 
REMARK    2  A    between atoms: C_3  and  O_6 
REMARK    3  A    between atoms: C_3  and  C_4 
REMARK    4  A    between atoms: C_7  and  O_6 
REMARK    5  A    between atoms: C_9  and  C_10 
REMARK    6  A    between atoms: N_15  and  C_14 
REMARK    7  A    between atoms: N_20  and  C_19 
REMARK       I    between atoms: C_22  and  N_20 
ROOT
ATOM      1  C   LIG d   1       0.124  78.238 115.057  0.00  0.00     0.161 C 
ATOM      2  C   LIG d   1      -0.462  76.961 115.072  0.00  0.00     0.016 C 
ATOM      3  C   LIG d   1      -0.420  76.099 116.193  0.00  0.00     0.038 C 
ATOM      4  C   LIG d   1       0.082  76.520 117.433  0.00  0.00     0.028 C 
ATOM      5  C   LIG d   1       1.135  77.617 117.320  0.00  0.00    -0.047 C 
ATOM      6  C   LIG d   1       0.579  78.757 116.436  0.00  0.00     0.091 C 
ENDROOT
BRANCH   1   7
ATOM      7  O   LIG d   1      -0.775  79.179 114.438  0.00  0.00    -0.368 OA
BRANCH   7   8
ATOM      8  C   LIG d   1      -0.768  79.210 112.990  0.00  0.00     0.119 C 
BRANCH   8   9
ATOM      9  C   LIG d   1      -0.281  80.607 112.559  0.00  0.00     0.028 C 
ATOM     10  C   LIG d   1       0.380  80.596 111.170  0.00  0.00     0.006 C 
ENDBRANCH   8   9
BRANCH   8  11
ATOM     11  C   LIG d   1      -2.185  79.082 112.423  0.00  0.00     0.028 C 
ATOM     12  C   LIG d   1      -2.321  77.931 111.414  0.00  0.00     0.006 C 
ENDBRANCH   8  11
ENDBRANCH   7   8
ENDBRANCH   1   7
BRANCH   6  13
ATOM     13  N   LIG d   1       1.577  79.833 116.204  0.00  0.00    -0.311 N 
ATOM     14  C   LIG d   1       1.580  80.987 116.871  0.00  0.00     0.210 C 
ATOM     15  C   LIG d   1       2.685  81.966 116.462  0.00  0.00     0.109 C 
ATOM     16  O   LIG d   1       0.793  81.279 117.783  0.00  0.00    -0.276 OA
ATOM     17  H   LIG d   1       2.272  79.667 115.503  0.00  0.00     0.149 HD
ENDBRANCH   6  13
BRANCH   5  18
ATOM     18  N   LIG d   1       1.470  78.057 118.687  0.00  0.00     0.381 N 
ATOM     19  H   LIG d   1       0.740  77.792 119.317  0.00  0.00    -0.090 HD
ATOM     20  H   LIG d   1       1.548  79.058 118.697  0.00  0.00    -0.090 HD
ATOM     21  H   LIG d   1       2.332  77.647 118.976  0.00  0.00    -0.090 HD
ENDBRANCH   5  18
BRANCH   3  22
ATOM     22  C   LIG d   1      -0.850  74.787 116.067  0.00  0.00     0.382 C 
ATOM     23  O   LIG d   1      -0.806  74.217 114.950  0.00  0.00    -0.241 OA
ATOM     24  O   LIG d   1      -1.321  74.180 117.047  0.00  0.00    -0.241 OA
ENDBRANCH   3  22
TORSDOF 7
ENDMDL
