MODEL 1
REMARK VINA RESULT:      -4.9      0.000      0.000
REMARK  7 active torsions:
REMARK  status: ('A' for Active; 'I' for Inactive)
REMARK    1  A    between atoms: C_2  and  C_3 
REMARK    2  A    between atoms: C_3  and  O_6 
REMARK    3  A    between atoms: C_3  and  C_4 
REMARK    4  A    between atoms: C_7  and  O_6 
REMARK    5  A    between atoms: C_9  and  C_10 
REMARK    6  A    between atoms: N_15  and  C_14 
REMARK    7  A    between atoms: N_20  and  C_19 
REMARK       I    between atoms: C_22  and  N_20 
ROOT
ATOM      1  C   LIG d   1       0.524  83.042 112.083  0.00  0.00     0.161 C 
ATOM      2  C   LIG d   1      -0.700  82.585 112.600  0.00  0.00     0.016 C 
ATOM      3  C   LIG d   1      -1.215  81.292 112.351  0.00  0.00     0.038 C 
ATOM      4  C   LIG d   1      -0.465  80.310 111.687  0.00  0.00     0.028 C 
ATOM      5  C   LIG d   1       0.559  80.885 110.714  0.00  0.00    -0.047 C 
ATOM      6  C   LIG d   1       1.407  81.948 111.448  0.00  0.00     0.091 C 
ENDROOT
BRANCH   1   7
ATOM      7  O   LIG d   1       1.255  83.745 113.107  0.00  0.00    -0.368 OA
BRANCH   7   8
ATOM      8  C   LIG d   1       2.476  83.115 113.565  0.00  0.00     0.119 C 
BRANCH   8   9
ATOM      9  C   LIG d   1       2.207  82.555 114.975  0.00  0.00     0.028 C 
ATOM     10  C   LIG d   1       2.251  81.018 115.015  0.00  0.00     0.006 C 
ENDBRANCH   8   9
BRANCH   8  11
ATOM     11  C   LIG d   1       3.600  84.140 113.743  0.00  0.00     0.028 C 
ATOM     12  C   LIG d   1       3.957  84.382 115.218  0.00  0.00     0.006 C 
ENDBRANCH   8  11
ENDBRANCH   7   8
ENDBRANCH   1   7
BRANCH   6  13
ATOM     13  N   LIG d   1       2.378  82.620 110.546  0.00  0.00    -0.311 N 
ATOM     14  C   LIG d   1       3.638  82.216 110.394  0.00  0.00     0.210 C 
ATOM     15  C   LIG d   1       4.476  83.063 109.430  0.00  0.00     0.109 C 
ATOM     16  O   LIG d   1       4.132  81.218 110.940  0.00  0.00    -0.276 OA
ATOM     17  H   LIG d   1       2.052  83.421 110.041  0.00  0.00     0.149 HD
ENDBRANCH   6  13
BRANCH   5  18
ATOM     18  N   LIG d   1       1.362  79.761 110.196  0.00  0.00     0.381 N 
ATOM     19  H   LIG d   1       1.648  79.953 109.257  0.00  0.00    -0.090 HD
ATOM     20  H   LIG d   1       0.794  78.932 110.189  0.00  0.00    -0.090 HD
ATOM     21  H   LIG d   1       2.162  79.619 110.773  0.00  0.00    -0.090 HD
ENDBRANCH   5  18
BRANCH   3  22
ATOM     22  C   LIG d   1      -2.512  80.984 112.734  0.00  0.00     0.382 C 
ATOM     23  O   LIG d   1      -2.832  79.792 112.962  0.00  0.00    -0.241 OA
ATOM     24  O   LIG d   1      -3.377  81.877 112.811  0.00  0.00    -0.241 OA
ENDBRANCH   3  22
TORSDOF 7
ENDMDL
MODEL 2
REMARK VINA RESULT:      -4.5      5.561      7.733
REMARK  7 active torsions:
REMARK  status: ('A' for Active; 'I' for Inactive)
REMARK    1  A    between atoms: C_2  and  C_3 
REMARK    2  A    between atoms: C_3  and  O_6 
REMARK    3  A    between atoms: C_3  and  C_4 
REMARK    4  A    between atoms: C_7  and  O_6 
REMARK    5  A    between atoms: C_9  and  C_10 
REMARK    6  A    between atoms: N_15  and  C_14 
REMARK    7  A    between atoms: N_20  and  C_19 
REMARK       I    between atoms: C_22  and  N_20 
ROOT
ATOM      1  C   LIG d   1      -1.700  77.219 116.050  0.00  0.00     0.161 C 
ATOM      2  C   LIG d   1      -2.243  77.411 114.768  0.00  0.00     0.016 C 
ATOM      3  C   LIG d   1      -1.794  78.410 113.875  0.00  0.00     0.038 C 
ATOM      4  C   LIG d   1      -0.662  79.194 114.146  0.00  0.00     0.028 C 
ATOM      5  C   LIG d   1      -0.396  79.378 115.637  0.00  0.00    -0.047 C 
ATOM      6  C   LIG d   1      -0.392  77.991 116.320  0.00  0.00     0.091 C 
ENDROOT
BRANCH   1   7
ATOM      7  O   LIG d   1      -1.511  75.812 116.295  0.00  0.00    -0.368 OA
BRANCH   7   8
ATOM      8  C   LIG d   1      -2.386  75.213 117.282  0.00  0.00     0.119 C 
BRANCH   8   9
ATOM      9  C   LIG d   1      -3.294  76.330 117.834  0.00  0.00     0.028 C 
ATOM     10  C   LIG d   1      -3.076  76.576 119.336  0.00  0.00     0.006 C 
ENDBRANCH   8   9
BRANCH   8  11
ATOM     11  C   LIG d   1      -1.596  74.700 118.490  0.00  0.00     0.028 C 
ATOM     12  C   LIG d   1      -0.100  74.518 118.189  0.00  0.00     0.006 C 
ENDBRANCH   8  11
ENDBRANCH   7   8
ENDBRANCH   1   7
BRANCH   6  13
ATOM     13  N   LIG d   1      -0.222  78.086 117.794  0.00  0.00    -0.311 N 
ATOM     14  C   LIG d   1       0.960  78.006 118.402  0.00  0.00     0.210 C 
ATOM     15  C   LIG d   1       0.909  78.108 119.930  0.00  0.00     0.109 C 
ATOM     16  O   LIG d   1       2.049  77.891 117.820  0.00  0.00    -0.276 OA
ATOM     17  H   LIG d   1      -1.051  78.211 118.341  0.00  0.00     0.149 HD
ENDBRANCH   6  13
BRANCH   5  18
ATOM     18  N   LIG d   1       0.885  80.095 115.776  0.00  0.00     0.381 N 
ATOM     19  H   LIG d   1       0.891  80.616 116.630  0.00  0.00    -0.090 HD
ATOM     20  H   LIG d   1       0.980  80.741 115.012  0.00  0.00    -0.090 HD
ATOM     21  H   LIG d   1       1.641  79.447 115.768  0.00  0.00    -0.090 HD
ENDBRANCH   5  18
BRANCH   3  22
ATOM     22  C   LIG d   1      -2.504  78.661 112.711  0.00  0.00     0.382 C 
ATOM     23  O   LIG d   1      -2.254  79.686 112.032  0.00  0.00    -0.241 OA
ATOM     24  O   LIG d   1      -3.423  77.899 112.355  0.00  0.00    -0.241 OA
ENDBRANCH   3  22
TORSDOF 7
ENDMDL
MODEL 3
REMARK VINA RESULT:      -4.3      6.110      7.469
REMARK  7 active torsions:
REMARK  status: ('A' for Active; 'I' for Inactive)
REMARK    1  A    between atoms: C_2  and  C_3 
REMARK    2  A    between atoms: C_3  and  O_6 
REMARK    3  A    between atoms: C_3  and  C_4 
REMARK    4  A    between atoms: C_7  and  O_6 
REMARK    5  A    between atoms: C_9  and  C_10 
REMARK    6  A    between atoms: N_15  and  C_14 
REMARK    7  A    between atoms: N_20  and  C_19 
REMARK       I    between atoms: C_22  and  N_20 
ROOT
ATOM      1  C   LIG d   1       0.071  78.323 116.681  0.00  0.00     0.161 C 
ATOM      2  C   LIG d   1      -1.036  78.566 115.851  0.00  0.00     0.016 C 
ATOM      3  C   LIG d   1      -1.751  77.543 115.188  0.00  0.00     0.038 C 
ATOM      4  C   LIG d   1      -1.500  76.185 115.432  0.00  0.00     0.028 C 
ATOM      5  C   LIG d   1      -0.067  75.903 115.872  0.00  0.00    -0.047 C 
ATOM      6  C   LIG d   1       0.291  76.841 117.048  0.00  0.00     0.091 C 
ENDROOT
BRANCH   1   7
ATOM      7  O   LIG d   1      -0.028  79.125 117.875  0.00  0.00    -0.368 OA
BRANCH   7   8
ATOM      8  C   LIG d   1      -1.369  79.376 118.365  0.00  0.00     0.119 C 
BRANCH   8   9
ATOM      9  C   LIG d   1      -1.381  80.791 118.976  0.00  0.00     0.028 C 
ATOM     10  C   LIG d   1      -0.054  81.536 118.756  0.00  0.00     0.006 C 
ENDBRANCH   8   9
BRANCH   8  11
ATOM     11  C   LIG d   1      -1.727  78.433 119.517  0.00  0.00     0.028 C 
ATOM     12  C   LIG d   1      -2.722  77.337 119.103  0.00  0.00     0.006 C 
ENDBRANCH   8  11
ENDBRANCH   7   8
ENDBRANCH   1   7
BRANCH   6  13
ATOM     13  N   LIG d   1       1.703  76.690 117.484  0.00  0.00    -0.311 N 
ATOM     14  C   LIG d   1       2.069  76.576 118.760  0.00  0.00     0.210 C 
ATOM     15  C   LIG d   1       3.578  76.450 118.992  0.00  0.00     0.109 C 
ATOM     16  O   LIG d   1       1.284  76.534 119.719  0.00  0.00    -0.276 OA
ATOM     17  H   LIG d   1       2.403  76.682 116.768  0.00  0.00     0.149 HD
ENDBRANCH   6  13
BRANCH   5  18
ATOM     18  N   LIG d   1       0.019  74.474 116.225  0.00  0.00     0.381 N 
ATOM     19  H   LIG d   1       0.225  74.377 117.199  0.00  0.00    -0.090 HD
ATOM     20  H   LIG d   1       0.767  74.054 115.701  0.00  0.00    -0.090 HD
ATOM     21  H   LIG d   1      -0.841  74.018 116.013  0.00  0.00    -0.090 HD
ENDBRANCH   5  18
BRANCH   3  22
ATOM     22  C   LIG d   1      -2.705  77.875 114.238  0.00  0.00     0.382 C 
ATOM     23  O   LIG d   1      -3.440  76.984 113.748  0.00  0.00    -0.241 OA
ATOM     24  O   LIG d   1      -2.810  79.048 113.832  0.00  0.00    -0.241 OA
ENDBRANCH   3  22
TORSDOF 7
ENDMDL
MODEL 4
REMARK VINA RESULT:      -4.3      5.097      8.060
REMARK  7 active torsions:
REMARK  status: ('A' for Active; 'I' for Inactive)
REMARK    1  A    between atoms: C_2  and  C_3 
REMARK    2  A    between atoms: C_3  and  O_6 
REMARK    3  A    between atoms: C_3  and  C_4 
REMARK    4  A    between atoms: C_7  and  O_6 
REMARK    5  A    between atoms: C_9  and  C_10 
REMARK    6  A    between atoms: N_15  and  C_14 
REMARK    7  A    between atoms: N_20  and  C_19 
REMARK       I    between atoms: C_22  and  N_20 
ROOT
ATOM      1  C   LIG d   1       0.189  78.642 116.475  0.00  0.00     0.161 C 
ATOM      2  C   LIG d   1       1.243  79.569 116.409  0.00  0.00     0.016 C 
ATOM      3  C   LIG d   1       2.496  79.368 117.032  0.00  0.00     0.038 C 
ATOM      4  C   LIG d   1       2.835  78.150 117.640  0.00  0.00     0.028 C 
ATOM      5  C   LIG d   1       1.629  77.380 118.167  0.00  0.00    -0.047 C 
ATOM      6  C   LIG d   1       0.578  77.259 117.040  0.00  0.00     0.091 C 
ENDROOT
BRANCH   1   7
ATOM      7  O   LIG d   1      -0.418  78.499 115.175  0.00  0.00    -0.368 OA
BRANCH   7   8
ATOM      8  C   LIG d   1      -1.630  79.260 114.951  0.00  0.00     0.119 C 
BRANCH   8   9
ATOM      9  C   LIG d   1      -2.812  78.405 115.447  0.00  0.00     0.028 C 
ATOM     10  C   LIG d   1      -3.440  78.962 116.736  0.00  0.00     0.006 C 
ENDBRANCH   8   9
BRANCH   8  11
ATOM     11  C   LIG d   1      -1.884  79.475 113.456  0.00  0.00     0.028 C 
ATOM     12  C   LIG d   1      -2.477  80.859 113.146  0.00  0.00     0.006 C 
ENDBRANCH   8  11
ENDBRANCH   7   8
ENDBRANCH   1   7
BRANCH   6  13
ATOM     13  N   LIG d   1      -0.669  76.593 117.496  0.00  0.00    -0.311 N 
ATOM     14  C   LIG d   1      -1.049  75.385 117.081  0.00  0.00     0.210 C 
ATOM     15  C   LIG d   1      -2.379  74.892 117.660  0.00  0.00     0.109 C 
ATOM     16  O   LIG d   1      -0.396  74.663 116.313  0.00  0.00    -0.276 OA
ATOM     17  H   LIG d   1      -1.244  77.095 118.144  0.00  0.00     0.149 HD
ENDBRANCH   6  13
BRANCH   5  18
ATOM     18  N   LIG d   1       2.111  76.072 118.650  0.00  0.00     0.381 N 
ATOM     19  H   LIG d   1       2.750  75.681 117.987  0.00  0.00    -0.090 HD
ATOM     20  H   LIG d   1       1.328  75.449 118.739  0.00  0.00    -0.090 HD
ATOM     21  H   LIG d   1       2.561  76.179 119.533  0.00  0.00    -0.090 HD
ENDBRANCH   5  18
BRANCH   3  22
ATOM     22  C   LIG d   1       3.412  80.407 117.085  0.00  0.00     0.382 C 
ATOM     23  O   LIG d   1       3.213  81.379 117.853  0.00  0.00    -0.241 OA
ATOM     24  O   LIG d   1       4.412  80.407 116.342  0.00  0.00    -0.241 OA
ENDBRANCH   3  22
TORSDOF 7
ENDMDL
MODEL 5
REMARK VINA RESULT:      -4.3      5.691      7.568
REMARK  7 active torsions:
REMARK  status: ('A' for Active; 'I' for Inactive)
REMARK    1  A    between atoms: C_2  and  C_3 
REMARK    2  A    between atoms: C_3  and  O_6 
REMARK    3  A    between atoms: C_3  and  C_4 
REMARK    4  A    between atoms: C_7  and  O_6 
REMARK    5  A    between atoms: C_9  and  C_10 
REMARK    6  A    between atoms: N_15  and  C_14 
REMARK    7  A    between atoms: N_20  and  C_19 
REMARK       I    between atoms: C_22  and  N_20 
ROOT
ATOM      1  C   LIG d   1      -1.324  77.800 117.640  0.00  0.00     0.161 C 
ATOM      2  C   LIG d   1      -2.120  77.124 116.700  0.00  0.00     0.016 C 
ATOM      3  C   LIG d   1      -1.999  77.308 115.303  0.00  0.00     0.038 C 
ATOM      4  C   LIG d   1      -0.964  78.072 114.742  0.00  0.00     0.028 C 
ATOM      5  C   LIG d   1      -0.453  79.171 115.668  0.00  0.00    -0.047 C 
ATOM      6  C   LIG d   1      -0.116  78.553 117.044  0.00  0.00     0.091 C 
ENDROOT
BRANCH   1   7
ATOM      7  O   LIG d   1      -0.887  76.881 118.661  0.00  0.00    -0.368 OA
BRANCH   7   8
ATOM      8  C   LIG d   1       0.311  76.121 118.364  0.00  0.00     0.119 C 
BRANCH   8   9
ATOM      9  C   LIG d   1      -0.070  74.628 118.386  0.00  0.00     0.028 C 
ATOM     10  C   LIG d   1      -1.392  74.371 119.128  0.00  0.00     0.006 C 
ENDBRANCH   8   9
BRANCH   8  11
ATOM     11  C   LIG d   1       1.363  76.288 119.464  0.00  0.00     0.028 C 
ATOM     12  C   LIG d   1       2.128  74.988 119.759  0.00  0.00     0.006 C 
ENDBRANCH   8  11
ENDBRANCH   7   8
ENDBRANCH   1   7
BRANCH   6  13
ATOM     13  N   LIG d   1       0.311  79.574 118.035  0.00  0.00    -0.311 N 
ATOM     14  C   LIG d   1       1.587  79.866 118.283  0.00  0.00     0.210 C 
ATOM     15  C   LIG d   1       1.808  80.936 119.357  0.00  0.00     0.109 C 
ATOM     16  O   LIG d   1       2.555  79.364 117.692  0.00  0.00    -0.276 OA
ATOM     17  H   LIG d   1      -0.411  80.053 118.537  0.00  0.00     0.149 HD
ENDBRANCH   6  13
BRANCH   5  18
ATOM     18  N   LIG d   1       0.711  79.798 115.014  0.00  0.00     0.381 N 
ATOM     19  H   LIG d   1       0.454  80.693 114.650  0.00  0.00    -0.090 HD
ATOM     20  H   LIG d   1       1.005  79.218 114.248  0.00  0.00    -0.090 HD
ATOM     21  H   LIG d   1       1.456  79.899 115.669  0.00  0.00    -0.090 HD
ENDBRANCH   5  18
BRANCH   3  22
ATOM     22  C   LIG d   1      -2.945  76.755 114.453  0.00  0.00     0.382 C 
ATOM     23  O   LIG d   1      -3.340  77.399 113.451  0.00  0.00    -0.241 OA
ATOM     24  O   LIG d   1      -3.440  75.639 114.699  0.00  0.00    -0.241 OA
ENDBRANCH   3  22
TORSDOF 7
ENDMDL
MODEL 6
REMARK VINA RESULT:      -4.3      5.973      7.919
REMARK  7 active torsions:
REMARK  status: ('A' for Active; 'I' for Inactive)
REMARK    1  A    between atoms: C_2  and  C_3 
REMARK    2  A    between atoms: C_3  and  O_6 
REMARK    3  A    between atoms: C_3  and  C_4 
REMARK    4  A    between atoms: C_7  and  O_6 
REMARK    5  A    between atoms: C_9  and  C_10 
REMARK    6  A    between atoms: N_15  and  C_14 
REMARK    7  A    between atoms: N_20  and  C_19 
REMARK       I    between atoms: C_22  and  N_20 
ROOT
ATOM      1  C   LIG d   1       0.081  77.556 116.693  0.00  0.00     0.161 C 
ATOM      2  C   LIG d   1      -0.613  78.135 115.617  0.00  0.00     0.016 C 
ATOM      3  C   LIG d   1      -1.776  77.568 115.047  0.00  0.00     0.038 C 
ATOM      4  C   LIG d   1      -2.414  76.456 115.615  0.00  0.00     0.028 C 
ATOM      5  C   LIG d   1      -1.469  75.547 116.393  0.00  0.00    -0.047 C 
ATOM      6  C   LIG d   1      -0.663  76.403 117.397  0.00  0.00     0.091 C 
ENDROOT
BRANCH   1   7
ATOM      7  O   LIG d   1       0.443  78.575 117.646  0.00  0.00    -0.368 OA
BRANCH   7   8
ATOM      8  C   LIG d   1      -0.394  79.758 117.662  0.00  0.00     0.119 C 
BRANCH   8   9
ATOM      9  C   LIG d   1       0.502  80.954 118.040  0.00  0.00     0.028 C 
ATOM     10  C   LIG d   1      -0.202  81.937 118.990  0.00  0.00     0.006 C 
ENDBRANCH   8   9
BRANCH   8  11
ATOM     11  C   LIG d   1      -1.451  79.678 118.767  0.00  0.00     0.028 C 
ATOM     12  C   LIG d   1      -2.860  79.392 118.224  0.00  0.00     0.006 C 
ENDBRANCH   8  11
ENDBRANCH   7   8
ENDBRANCH   1   7
BRANCH   6  13
ATOM     13  N   LIG d   1       0.345  75.604 118.141  0.00  0.00    -0.311 N 
ATOM     14  C   LIG d   1       0.109  75.045 119.326  0.00  0.00     0.210 C 
ATOM     15  C   LIG d   1       1.292  74.281 119.929  0.00  0.00     0.109 C 
ATOM     16  O   LIG d   1      -0.979  75.081 119.921  0.00  0.00    -0.276 OA
ATOM     17  H   LIG d   1       1.246  75.497 117.716  0.00  0.00     0.149 HD
ENDBRANCH   6  13
BRANCH   5  18
ATOM     18  N   LIG d   1      -2.287  74.507 117.046  0.00  0.00     0.381 N 
ATOM     19  H   LIG d   1      -1.693  73.856 117.519  0.00  0.00    -0.090 HD
ATOM     20  H   LIG d   1      -2.803  74.010 116.341  0.00  0.00    -0.090 HD
ATOM     21  H   LIG d   1      -2.917  74.926 117.695  0.00  0.00    -0.090 HD
ENDBRANCH   5  18
BRANCH   3  22
ATOM     22  C   LIG d   1      -2.289  78.093 113.870  0.00  0.00     0.382 C 
ATOM     23  O   LIG d   1      -3.202  77.486 113.259  0.00  0.00    -0.241 OA
ATOM     24  O   LIG d   1      -1.821  79.141 113.388  0.00  0.00    -0.241 OA
ENDBRANCH   3  22
TORSDOF 7
ENDMDL
MODEL 7
REMARK VINA RESULT:      -4.2      5.558      6.754
REMARK  7 active torsions:
REMARK  status: ('A' for Active; 'I' for Inactive)
REMARK    1  A    between atoms: C_2  and  C_3 
REMARK    2  A    between atoms: C_3  and  O_6 
REMARK    3  A    between atoms: C_3  and  C_4 
REMARK    4  A    between atoms: C_7  and  O_6 
REMARK    5  A    between atoms: C_9  and  C_10 
REMARK    6  A    between atoms: N_15  and  C_14 
REMARK    7  A    between atoms: N_20  and  C_19 
REMARK       I    between atoms: C_22  and  N_20 
ROOT
ATOM      1  C   LIG d   1       0.268  78.371 116.471  0.00  0.00     0.161 C 
ATOM      2  C   LIG d   1      -0.863  78.583 115.665  0.00  0.00     0.016 C 
ATOM      3  C   LIG d   1      -1.700  77.538 115.210  0.00  0.00     0.038 C 
ATOM      4  C   LIG d   1      -1.549  76.218 115.658  0.00  0.00     0.028 C 
ATOM      5  C   LIG d   1      -0.120  75.878 116.069  0.00  0.00    -0.047 C 
ATOM      6  C   LIG d   1       0.385  76.950 117.061  0.00  0.00     0.091 C 
ENDROOT
BRANCH   1   7
ATOM      7  O   LIG d   1       0.309  79.356 117.523  0.00  0.00    -0.368 OA
BRANCH   7   8
ATOM      8  C   LIG d   1       1.078  80.552 117.247  0.00  0.00     0.119 C 
BRANCH   8   9
ATOM      9  C   LIG d   1       2.436  80.107 116.670  0.00  0.00     0.028 C 
ATOM     10  C   LIG d   1       3.553  80.115 117.727  0.00  0.00     0.006 C 
ENDBRANCH   8   9
BRANCH   8  11
ATOM     11  C   LIG d   1       1.413  81.309 118.535  0.00  0.00     0.028 C 
ATOM     12  C   LIG d   1       0.384  82.401 118.870  0.00  0.00     0.006 C 
ENDBRANCH   8  11
ENDBRANCH   7   8
ENDBRANCH   1   7
BRANCH   6  13
ATOM     13  N   LIG d   1       1.804  76.740 117.449  0.00  0.00    -0.311 N 
ATOM     14  C   LIG d   1       2.223  76.716 118.713  0.00  0.00     0.210 C 
ATOM     15  C   LIG d   1       3.729  76.505 118.892  0.00  0.00     0.109 C 
ATOM     16  O   LIG d   1       1.484  76.816 119.705  0.00  0.00    -0.276 OA
ATOM     17  H   LIG d   1       2.466  76.619 116.708  0.00  0.00     0.149 HD
ENDBRANCH   6  13
BRANCH   5  18
ATOM     18  N   LIG d   1      -0.133  74.519 116.644  0.00  0.00     0.381 N 
ATOM     19  H   LIG d   1       0.805  74.193 116.764  0.00  0.00    -0.090 HD
ATOM     20  H   LIG d   1      -0.603  73.901 116.006  0.00  0.00    -0.090 HD
ATOM     21  H   LIG d   1      -0.605  74.524 117.521  0.00  0.00    -0.090 HD
ENDBRANCH   5  18
BRANCH   3  22
ATOM     22  C   LIG d   1      -2.679  77.805 114.264  0.00  0.00     0.382 C 
ATOM     23  O   LIG d   1      -2.832  78.973 113.832  0.00  0.00    -0.241 OA
ATOM     24  O   LIG d   1      -3.440  76.901 113.870  0.00  0.00    -0.241 OA
ENDBRANCH   3  22
TORSDOF 7
ENDMDL
MODEL 8
REMARK VINA RESULT:      -4.2      5.723      8.646
REMARK  7 active torsions:
REMARK  status: ('A' for Active; 'I' for Inactive)
REMARK    1  A    between atoms: C_2  and  C_3 
REMARK    2  A    between atoms: C_3  and  O_6 
REMARK    3  A    between atoms: C_3  and  C_4 
REMARK    4  A    between atoms: C_7  and  O_6 
REMARK    5  A    between atoms: C_9  and  C_10 
REMARK    6  A    between atoms: N_15  and  C_14 
REMARK    7  A    between atoms: N_20  and  C_19 
REMARK       I    between atoms: C_22  and  N_20 
ROOT
ATOM      1  C   LIG d   1      -0.091  78.270 117.481  0.00  0.00     0.161 C 
ATOM      2  C   LIG d   1       0.652  79.297 116.876  0.00  0.00     0.016 C 
ATOM      3  C   LIG d   1       2.065  79.312 116.830  0.00  0.00     0.038 C 
ATOM      4  C   LIG d   1       2.832  78.218 117.257  0.00  0.00     0.028 C 
ATOM      5  C   LIG d   1       2.148  77.381 118.333  0.00  0.00    -0.047 C 
ATOM      6  C   LIG d   1       0.725  77.014 117.854  0.00  0.00     0.091 C 
ENDROOT
BRANCH   1   7
ATOM      7  O   LIG d   1      -1.205  77.912 116.640  0.00  0.00    -0.368 OA
BRANCH   7   8
ATOM      8  C   LIG d   1      -0.895  77.095 115.484  0.00  0.00     0.119 C 
BRANCH   8   9
ATOM      9  C   LIG d   1      -1.163  77.948 114.229  0.00  0.00     0.028 C 
ATOM     10  C   LIG d   1      -2.200  79.055 114.482  0.00  0.00     0.006 C 
ENDBRANCH   8   9
BRANCH   8  11
ATOM     11  C   LIG d   1      -1.847  75.901 115.374  0.00  0.00     0.028 C 
ATOM     12  C   LIG d   1      -2.978  75.942 116.414  0.00  0.00     0.006 C 
ENDBRANCH   8  11
ENDBRANCH   7   8
ENDBRANCH   1   7
BRANCH   6  13
ATOM     13  N   LIG d   1      -0.044  76.267 118.882  0.00  0.00    -0.311 N 
ATOM     14  C   LIG d   1      -0.368  74.980 118.764  0.00  0.00     0.210 C 
ATOM     15  C   LIG d   1      -1.181  74.408 119.930  0.00  0.00     0.109 C 
ATOM     16  O   LIG d   1      -0.031  74.250 117.820  0.00  0.00    -0.276 OA
ATOM     17  H   LIG d   1      -0.331  76.775 119.696  0.00  0.00     0.149 HD
ENDBRANCH   6  13
BRANCH   5  18
ATOM     18  N   LIG d   1       2.995  76.200 118.585  0.00  0.00     0.381 N 
ATOM     19  H   LIG d   1       3.694  76.126 117.873  0.00  0.00    -0.090 HD
ATOM     20  H   LIG d   1       2.422  75.376 118.551  0.00  0.00    -0.090 HD
ATOM     21  H   LIG d   1       3.429  76.276 119.479  0.00  0.00    -0.090 HD
ENDBRANCH   5  18
BRANCH   3  22
ATOM     22  C   LIG d   1       2.727  80.448 116.389  0.00  0.00     0.382 C 
ATOM     23  O   LIG d   1       3.957  80.403 116.147  0.00  0.00    -0.241 OA
ATOM     24  O   LIG d   1       2.118  81.529 116.274  0.00  0.00    -0.241 OA
ENDBRANCH   3  22
TORSDOF 7
ENDMDL
MODEL 9
REMARK VINA RESULT:      -4.1      5.240      7.274
REMARK  7 active torsions:
REMARK  status: ('A' for Active; 'I' for Inactive)
REMARK    1  A    between atoms: C_2  and  C_3 
REMARK    2  A    between atoms: C_3  and  O_6 
REMARK    3  A    between atoms: C_3  and  C_4 
REMARK    4  A    between atoms: C_7  and  O_6 
REMARK    5  A    between atoms: C_9  and  C_10 
REMARK    6  A    between atoms: N_15  and  C_14 
REMARK    7  A    between atoms: N_20  and  C_19 
REMARK       I    between atoms: C_22  and  N_20 
ROOT
ATOM      1  C   LIG d   1      -0.560  77.781 115.875  0.00  0.00     0.161 C 
ATOM      2  C   LIG d   1      -1.035  78.427 114.722  0.00  0.00     0.016 C 
ATOM      3  C   LIG d   1      -2.216  78.043 114.046  0.00  0.00     0.038 C 
ATOM      4  C   LIG d   1      -3.089  77.077 114.568  0.00  0.00     0.028 C 
ATOM      5  C   LIG d   1      -2.394  76.052 115.458  0.00  0.00    -0.047 C 
ATOM      6  C   LIG d   1      -1.556  76.797 116.522  0.00  0.00     0.091 C 
ENDROOT
BRANCH   1   7
ATOM      7  O   LIG d   1      -0.124  78.760 116.839  0.00  0.00    -0.368 OA
BRANCH   7   8
ATOM      8  C   LIG d   1       1.308  78.883 117.020  0.00  0.00     0.119 C 
BRANCH   8   9
ATOM      9  C   LIG d   1       1.631  78.445 118.462  0.00  0.00     0.028 C 
ATOM     10  C   LIG d   1       2.465  77.153 118.509  0.00  0.00     0.006 C 
ENDBRANCH   8   9
BRANCH   8  11
ATOM     11  C   LIG d   1       1.757  80.344 116.931  0.00  0.00     0.028 C 
ATOM     12  C   LIG d   1       2.935  80.547 115.965  0.00  0.00     0.006 C 
ENDBRANCH   8  11
ENDBRANCH   7   8
ENDBRANCH   1   7
BRANCH   6  13
ATOM     13  N   LIG d   1      -0.777  75.868 117.382  0.00  0.00    -0.311 N 
ATOM     14  C   LIG d   1      -1.233  75.380 118.535  0.00  0.00     0.210 C 
ATOM     15  C   LIG d   1      -0.261  74.455 119.275  0.00  0.00     0.109 C 
ATOM     16  O   LIG d   1      -2.362  75.600 118.999  0.00  0.00    -0.276 OA
ATOM     17  H   LIG d   1       0.137  75.612 117.066  0.00  0.00     0.149 HD
ENDBRANCH   6  13
BRANCH   5  18
ATOM     18  N   LIG d   1      -3.438  75.190 116.044  0.00  0.00     0.381 N 
ATOM     19  H   LIG d   1      -3.909  75.679 116.778  0.00  0.00    -0.090 HD
ATOM     20  H   LIG d   1      -3.004  74.374 116.437  0.00  0.00    -0.090 HD
ATOM     21  H   LIG d   1      -4.092  74.921 115.342  0.00  0.00    -0.090 HD
ENDBRANCH   5  18
BRANCH   3  22
ATOM     22  C   LIG d   1      -2.514  78.602 112.812  0.00  0.00     0.382 C 
ATOM     23  O   LIG d   1      -2.339  77.935 111.764  0.00  0.00    -0.241 OA
ATOM     24  O   LIG d   1      -2.914  79.779 112.731  0.00  0.00    -0.241 OA
ENDBRANCH   3  22
TORSDOF 7
ENDMDL
