MODEL 1
REMARK VINA RESULT:      -4.4      0.000      0.000
REMARK  7 active torsions:
REMARK  status: ('A' for Active; 'I' for Inactive)
REMARK    1  A    between atoms: C_2  and  C_3 
REMARK    2  A    between atoms: C_3  and  O_6 
REMARK    3  A    between atoms: C_3  and  C_4 
REMARK    4  A    between atoms: C_7  and  O_6 
REMARK    5  A    between atoms: C_9  and  C_10 
REMARK    6  A    between atoms: N_15  and  C_14 
REMARK    7  A    between atoms: N_20  and  C_19 
REMARK       I    between atoms: C_22  and  N_20 
ROOT
ATOM      1  C   LIG d   1       0.838  81.351 113.474  0.00  0.00     0.161 C 
ATOM      2  C   LIG d   1      -0.162  80.372 113.605  0.00  0.00     0.016 C 
ATOM      3  C   LIG d   1      -0.914  79.877 112.515  0.00  0.00     0.038 C 
ATOM      4  C   LIG d   1      -0.610  80.219 111.189  0.00  0.00     0.028 C 
ATOM      5  C   LIG d   1       0.056  81.584 111.053  0.00  0.00    -0.047 C 
ATOM      6  C   LIG d   1       1.259  81.654 112.021  0.00  0.00     0.091 C 
ENDROOT
BRANCH   1   7
ATOM      7  O   LIG d   1       1.987  80.983 114.262  0.00  0.00    -0.368 OA
BRANCH   7   8
ATOM      8  C   LIG d   1       1.904  81.264 115.681  0.00  0.00     0.119 C 
BRANCH   8   9
ATOM      9  C   LIG d   1       2.376  82.716 115.893  0.00  0.00     0.028 C 
ATOM     10  C   LIG d   1       1.658  83.400 117.069  0.00  0.00     0.006 C 
ENDBRANCH   8   9
BRANCH   8  11
ATOM     11  C   LIG d   1       2.883  80.399 116.479  0.00  0.00     0.028 C 
ATOM     12  C   LIG d   1       2.194  79.231 117.202  0.00  0.00     0.006 C 
ENDBRANCH   8  11
ENDBRANCH   7   8
ENDBRANCH   1   7
BRANCH   6  13
ATOM     13  N   LIG d   1       1.916  82.987 112.013  0.00  0.00    -0.311 N 
ATOM     14  C   LIG d   1       3.041  83.246 111.347  0.00  0.00     0.210 C 
ATOM     15  C   LIG d   1       3.561  84.680 111.489  0.00  0.00     0.109 C 
ATOM     16  O   LIG d   1       3.639  82.432 110.627  0.00  0.00    -0.276 OA
ATOM     17  H   LIG d   1       1.481  83.714 112.546  0.00  0.00     0.149 HD
ENDBRANCH   6  13
BRANCH   5  18
ATOM     18  N   LIG d   1       0.441  81.753 109.639  0.00  0.00     0.381 N 
ATOM     19  H   LIG d   1       0.320  80.889 109.149  0.00  0.00    -0.090 HD
ATOM     20  H   LIG d   1       1.412  82.007 109.595  0.00  0.00    -0.090 HD
ATOM     21  H   LIG d   1      -0.115  82.464 109.217  0.00  0.00    -0.090 HD
ENDBRANCH   5  18
BRANCH   3  22
ATOM     22  C   LIG d   1      -2.008  79.059 112.750  0.00  0.00     0.382 C 
ATOM     23  O   LIG d   1      -3.166  79.477 112.507  0.00  0.00    -0.241 OA
ATOM     24  O   LIG d   1      -1.856  77.926 113.245  0.00  0.00    -0.241 OA
ENDBRANCH   3  22
TORSDOF 7
ENDMDL
MODEL 2
REMARK VINA RESULT:      -4.3      2.008      4.798
REMARK  7 active torsions:
REMARK  status: ('A' for Active; 'I' for Inactive)
REMARK    1  A    between atoms: C_2  and  C_3 
REMARK    2  A    between atoms: C_3  and  O_6 
REMARK    3  A    between atoms: C_3  and  C_4 
REMARK    4  A    between atoms: C_7  and  O_6 
REMARK    5  A    between atoms: C_9  and  C_10 
REMARK    6  A    between atoms: N_15  and  C_14 
REMARK    7  A    between atoms: N_20  and  C_19 
REMARK       I    between atoms: C_22  and  N_20 
ROOT
ATOM      1  C   LIG d   1       0.998  80.734 113.842  0.00  0.00     0.161 C 
ATOM      2  C   LIG d   1       1.652  81.646 112.996  0.00  0.00     0.016 C 
ATOM      3  C   LIG d   1       1.207  81.951 111.689  0.00  0.00     0.038 C 
ATOM      4  C   LIG d   1      -0.015  81.475 111.191  0.00  0.00     0.028 C 
ATOM      5  C   LIG d   1      -0.451  80.155 111.819  0.00  0.00    -0.047 C 
ATOM      6  C   LIG d   1      -0.398  80.289 113.358  0.00  0.00     0.091 C 
ENDROOT
BRANCH   1   7
ATOM      7  O   LIG d   1       0.917  81.276 115.175  0.00  0.00    -0.368 OA
BRANCH   7   8
ATOM      8  C   LIG d   1       1.780  80.665 116.165  0.00  0.00     0.119 C 
BRANCH   8   9
ATOM      9  C   LIG d   1       0.876  79.962 117.197  0.00  0.00     0.028 C 
ATOM     10  C   LIG d   1      -0.480  80.668 117.366  0.00  0.00     0.006 C 
ENDBRANCH   8   9
BRANCH   8  11
ATOM     11  C   LIG d   1       2.555  81.721 116.958  0.00  0.00     0.028 C 
ATOM     12  C   LIG d   1       2.429  83.129 116.355  0.00  0.00     0.006 C 
ENDBRANCH   8  11
ENDBRANCH   7   8
ENDBRANCH   1   7
BRANCH   6  13
ATOM     13  N   LIG d   1      -0.729  79.016 114.050  0.00  0.00    -0.311 N 
ATOM     14  C   LIG d   1      -1.945  78.728 114.511  0.00  0.00     0.210 C 
ATOM     15  C   LIG d   1      -2.065  77.370 115.210  0.00  0.00     0.109 C 
ATOM     16  O   LIG d   1      -2.942  79.453 114.380  0.00  0.00    -0.276 OA
ATOM     17  H   LIG d   1       0.014  78.357 114.172  0.00  0.00     0.149 HD
ENDBRANCH   6  13
BRANCH   5  18
ATOM     18  N   LIG d   1      -1.802  79.846 111.312  0.00  0.00     0.381 N 
ATOM     19  H   LIG d   1      -2.114  80.581 110.710  0.00  0.00    -0.090 HD
ATOM     20  H   LIG d   1      -2.435  79.785 112.090  0.00  0.00    -0.090 HD
ATOM     21  H   LIG d   1      -1.790  78.982 110.816  0.00  0.00    -0.090 HD
ENDBRANCH   5  18
BRANCH   3  22
ATOM     22  C   LIG d   1       2.010  82.709 110.850  0.00  0.00     0.382 C 
ATOM     23  O   LIG d   1       1.499  83.328 109.885  0.00  0.00    -0.241 OA
ATOM     24  O   LIG d   1       3.243  82.747 111.019  0.00  0.00    -0.241 OA
ENDBRANCH   3  22
TORSDOF 7
ENDMDL
MODEL 3
REMARK VINA RESULT:      -4.2      3.739      6.157
REMARK  7 active torsions:
REMARK  status: ('A' for Active; 'I' for Inactive)
REMARK    1  A    between atoms: C_2  and  C_3 
REMARK    2  A    between atoms: C_3  and  O_6 
REMARK    3  A    between atoms: C_3  and  C_4 
REMARK    4  A    between atoms: C_7  and  O_6 
REMARK    5  A    between atoms: C_9  and  C_10 
REMARK    6  A    between atoms: N_15  and  C_14 
REMARK    7  A    between atoms: N_20  and  C_19 
REMARK       I    between atoms: C_22  and  N_20 
ROOT
ATOM      1  C   LIG d   1      -1.923  78.876 116.283  0.00  0.00     0.161 C 
ATOM      2  C   LIG d   1      -2.590  79.218 115.095  0.00  0.00     0.016 C 
ATOM      3  C   LIG d   1      -1.965  79.885 114.016  0.00  0.00     0.038 C 
ATOM      4  C   LIG d   1      -0.582  80.122 113.991  0.00  0.00     0.028 C 
ATOM      5  C   LIG d   1       0.036  80.246 115.380  0.00  0.00    -0.047 C 
ATOM      6  C   LIG d   1      -0.388  79.026 116.229  0.00  0.00     0.091 C 
ENDROOT
BRANCH   1   7
ATOM      7  O   LIG d   1      -2.282  77.536 116.675  0.00  0.00    -0.368 OA
BRANCH   7   8
ATOM      8  C   LIG d   1      -2.163  76.518 115.651  0.00  0.00     0.119 C 
BRANCH   8   9
ATOM      9  C   LIG d   1      -3.408  75.616 115.749  0.00  0.00     0.028 C 
ATOM     10  C   LIG d   1      -3.440  74.799 117.051  0.00  0.00     0.006 C 
ENDBRANCH   8   9
BRANCH   8  11
ATOM     11  C   LIG d   1      -0.971  75.595 115.919  0.00  0.00     0.028 C 
ATOM     12  C   LIG d   1      -0.136  75.319 114.658  0.00  0.00     0.006 C 
ENDBRANCH   8  11
ENDBRANCH   7   8
ENDBRANCH   1   7
BRANCH   6  13
ATOM     13  N   LIG d   1       0.104  79.111 117.629  0.00  0.00    -0.311 N 
ATOM     14  C   LIG d   1       1.228  78.530 118.047  0.00  0.00     0.210 C 
ATOM     15  C   LIG d   1       1.542  78.726 119.534  0.00  0.00     0.109 C 
ATOM     16  O   LIG d   1       2.010  77.899 117.321  0.00  0.00    -0.276 OA
ATOM     17  H   LIG d   1      -0.453  79.631 118.278  0.00  0.00     0.149 HD
ENDBRANCH   6  13
BRANCH   5  18
ATOM     18  N   LIG d   1       1.497  80.353 115.210  0.00  0.00     0.381 N 
ATOM     19  H   LIG d   1       1.870  79.470 114.922  0.00  0.00    -0.090 HD
ATOM     20  H   LIG d   1       1.910  80.597 116.093  0.00  0.00    -0.090 HD
ATOM     21  H   LIG d   1       1.711  81.050 114.531  0.00  0.00    -0.090 HD
ENDBRANCH   5  18
BRANCH   3  22
ATOM     22  C   LIG d   1      -2.733  80.359 112.963  0.00  0.00     0.382 C 
ATOM     23  O   LIG d   1      -3.163  79.563 112.093  0.00  0.00    -0.241 OA
ATOM     24  O   LIG d   1      -2.964  81.577 112.848  0.00  0.00    -0.241 OA
ENDBRANCH   3  22
TORSDOF 7
ENDMDL
MODEL 4
REMARK VINA RESULT:      -4.1      5.313      6.941
REMARK  7 active torsions:
REMARK  status: ('A' for Active; 'I' for Inactive)
REMARK    1  A    between atoms: C_2  and  C_3 
REMARK    2  A    between atoms: C_3  and  O_6 
REMARK    3  A    between atoms: C_3  and  C_4 
REMARK    4  A    between atoms: C_7  and  O_6 
REMARK    5  A    between atoms: C_9  and  C_10 
REMARK    6  A    between atoms: N_15  and  C_14 
REMARK    7  A    between atoms: N_20  and  C_19 
REMARK       I    between atoms: C_22  and  N_20 
ROOT
ATOM      1  C   LIG d   1      -0.265  78.018 116.818  0.00  0.00     0.161 C 
ATOM      2  C   LIG d   1      -1.095  78.382 115.745  0.00  0.00     0.016 C 
ATOM      3  C   LIG d   1      -1.837  77.449 114.984  0.00  0.00     0.038 C 
ATOM      4  C   LIG d   1      -1.916  76.095 115.343  0.00  0.00     0.028 C 
ATOM      5  C   LIG d   1      -0.696  75.600 116.113  0.00  0.00    -0.047 C 
ATOM      6  C   LIG d   1      -0.425  76.559 117.294  0.00  0.00     0.091 C 
ENDROOT
BRANCH   1   7
ATOM      7  O   LIG d   1      -0.461  78.929 117.918  0.00  0.00    -0.368 OA
BRANCH   7   8
ATOM      8  C   LIG d   1      -1.168  80.156 117.611  0.00  0.00     0.119 C 
BRANCH   8   9
ATOM      9  C   LIG d   1      -0.218  81.328 117.922  0.00  0.00     0.028 C 
ATOM     10  C   LIG d   1      -0.855  82.368 118.859  0.00  0.00     0.006 C 
ENDBRANCH   8   9
BRANCH   8  11
ATOM     11  C   LIG d   1      -2.371  80.352 118.538  0.00  0.00     0.028 C 
ATOM     12  C   LIG d   1      -2.680  79.108 119.385  0.00  0.00     0.006 C 
ENDBRANCH   8  11
ENDBRANCH   7   8
ENDBRANCH   1   7
BRANCH   6  13
ATOM     13  N   LIG d   1       0.802  76.196 118.050  0.00  0.00    -0.311 N 
ATOM     14  C   LIG d   1       0.787  75.465 119.163  0.00  0.00     0.210 C 
ATOM     15  C   LIG d   1       2.162  75.222 119.796  0.00  0.00     0.109 C 
ATOM     16  O   LIG d   1      -0.230  74.966 119.669  0.00  0.00    -0.276 OA
ATOM     17  H   LIG d   1       1.674  76.532 117.693  0.00  0.00     0.149 HD
ENDBRANCH   6  13
BRANCH   5  18
ATOM     18  N   LIG d   1      -0.971  74.216 116.543  0.00  0.00     0.381 N 
ATOM     19  H   LIG d   1      -0.187  73.857 117.049  0.00  0.00    -0.090 HD
ATOM     20  H   LIG d   1      -1.110  73.645 115.728  0.00  0.00    -0.090 HD
ATOM     21  H   LIG d   1      -1.785  74.193 117.116  0.00  0.00    -0.090 HD
ENDBRANCH   5  18
BRANCH   3  22
ATOM     22  C   LIG d   1      -2.477  77.861 113.825  0.00  0.00     0.382 C 
ATOM     23  O   LIG d   1      -2.564  77.083 112.845  0.00  0.00    -0.241 OA
ATOM     24  O   LIG d   1      -2.931  79.017 113.732  0.00  0.00    -0.241 OA
ENDBRANCH   3  22
TORSDOF 7
ENDMDL
MODEL 5
REMARK VINA RESULT:      -4.0      3.188      5.510
REMARK  7 active torsions:
REMARK  status: ('A' for Active; 'I' for Inactive)
REMARK    1  A    between atoms: C_2  and  C_3 
REMARK    2  A    between atoms: C_3  and  O_6 
REMARK    3  A    between atoms: C_3  and  C_4 
REMARK    4  A    between atoms: C_7  and  O_6 
REMARK    5  A    between atoms: C_9  and  C_10 
REMARK    6  A    between atoms: N_15  and  C_14 
REMARK    7  A    between atoms: N_20  and  C_19 
REMARK       I    between atoms: C_22  and  N_20 
ROOT
ATOM      1  C   LIG d   1      -0.910  79.535 114.714  0.00  0.00     0.161 C 
ATOM      2  C   LIG d   1      -0.150  80.320 113.830  0.00  0.00     0.016 C 
ATOM      3  C   LIG d   1      -0.408  80.400 112.442  0.00  0.00     0.038 C 
ATOM      4  C   LIG d   1      -1.545  79.815 111.865  0.00  0.00     0.028 C 
ATOM      5  C   LIG d   1      -2.056  78.599 112.630  0.00  0.00    -0.047 C 
ATOM      6  C   LIG d   1      -2.220  78.978 114.120  0.00  0.00     0.091 C 
ENDROOT
BRANCH   1   7
ATOM      7  O   LIG d   1      -1.182  80.279 115.918  0.00  0.00    -0.368 OA
BRANCH   7   8
ATOM      8  C   LIG d   1      -0.168  80.211 116.951  0.00  0.00     0.119 C 
BRANCH   8   9
ATOM      9  C   LIG d   1       0.105  78.721 117.234  0.00  0.00     0.028 C 
ATOM     10  C   LIG d   1      -0.915  78.112 118.210  0.00  0.00     0.006 C 
ENDBRANCH   8   9
BRANCH   8  11
ATOM     11  C   LIG d   1      -0.682  80.787 118.274  0.00  0.00     0.028 C 
ATOM     12  C   LIG d   1      -0.331  82.272 118.454  0.00  0.00     0.006 C 
ENDBRANCH   8  11
ENDBRANCH   7   8
ENDBRANCH   1   7
BRANCH   6  13
ATOM     13  N   LIG d   1      -2.637  77.821 114.956  0.00  0.00    -0.311 N 
ATOM     14  C   LIG d   1      -2.028  76.637 114.924  0.00  0.00     0.210 C 
ATOM     15  C   LIG d   1      -2.630  75.576 115.851  0.00  0.00     0.109 C 
ATOM     16  O   LIG d   1      -1.027  76.374 114.241  0.00  0.00    -0.276 OA
ATOM     17  H   LIG d   1      -3.421  77.956 115.563  0.00  0.00     0.149 HD
ENDBRANCH   6  13
BRANCH   5  18
ATOM     18  N   LIG d   1      -3.319  78.174 111.999  0.00  0.00     0.381 N 
ATOM     19  H   LIG d   1      -3.920  78.965 111.876  0.00  0.00    -0.090 HD
ATOM     20  H   LIG d   1      -3.781  77.518 112.605  0.00  0.00    -0.090 HD
ATOM     21  H   LIG d   1      -3.134  77.749 111.117  0.00  0.00    -0.090 HD
ENDBRANCH   5  18
BRANCH   3  22
ATOM     22  C   LIG d   1       0.499  81.039 111.611  0.00  0.00     0.382 C 
ATOM     23  O   LIG d   1       1.709  81.105 111.936  0.00  0.00    -0.241 OA
ATOM     24  O   LIG d   1       0.115  81.589 110.561  0.00  0.00    -0.241 OA
ENDBRANCH   3  22
TORSDOF 7
ENDMDL
MODEL 6
REMARK VINA RESULT:      -4.0      3.264      4.992
REMARK  7 active torsions:
REMARK  status: ('A' for Active; 'I' for Inactive)
REMARK    1  A    between atoms: C_2  and  C_3 
REMARK    2  A    between atoms: C_3  and  O_6 
REMARK    3  A    between atoms: C_3  and  C_4 
REMARK    4  A    between atoms: C_7  and  O_6 
REMARK    5  A    between atoms: C_9  and  C_10 
REMARK    6  A    between atoms: N_15  and  C_14 
REMARK    7  A    between atoms: N_20  and  C_19 
REMARK       I    between atoms: C_22  and  N_20 
ROOT
ATOM      1  C   LIG d   1      -1.260  78.839 116.762  0.00  0.00     0.161 C 
ATOM      2  C   LIG d   1      -2.040  77.889 116.082  0.00  0.00     0.016 C 
ATOM      3  C   LIG d   1      -2.094  77.791 114.672  0.00  0.00     0.038 C 
ATOM      4  C   LIG d   1      -1.248  78.545 113.844  0.00  0.00     0.028 C 
ATOM      5  C   LIG d   1      -0.813  79.867 114.466  0.00  0.00    -0.047 C 
ATOM      6  C   LIG d   1      -0.246  79.595 115.878  0.00  0.00     0.091 C 
ENDROOT
BRANCH   1   7
ATOM      7  O   LIG d   1      -0.588  78.213 117.873  0.00  0.00    -0.368 OA
BRANCH   7   8
ATOM      8  C   LIG d   1      -0.073  76.880 117.638  0.00  0.00     0.119 C 
BRANCH   8   9
ATOM      9  C   LIG d   1      -0.570  75.982 118.788  0.00  0.00     0.028 C 
ATOM     10  C   LIG d   1      -1.625  74.964 118.323  0.00  0.00     0.006 C 
ENDBRANCH   8   9
BRANCH   8  11
ATOM     11  C   LIG d   1       1.455  76.848 117.730  0.00  0.00     0.028 C 
ATOM     12  C   LIG d   1       2.025  78.000 118.574  0.00  0.00     0.006 C 
ENDBRANCH   8  11
ENDBRANCH   7   8
ENDBRANCH   1   7
BRANCH   6  13
ATOM     13  N   LIG d   1       0.125  80.846 116.590  0.00  0.00    -0.311 N 
ATOM     14  C   LIG d   1       1.360  81.344 116.600  0.00  0.00     0.210 C 
ATOM     15  C   LIG d   1       1.531  82.632 117.412  0.00  0.00     0.109 C 
ATOM     16  O   LIG d   1       2.323  80.860 115.987  0.00  0.00    -0.276 OA
ATOM     17  H   LIG d   1      -0.602  81.321 117.088  0.00  0.00     0.149 HD
ENDBRANCH   6  13
BRANCH   5  18
ATOM     18  N   LIG d   1       0.172  80.484 113.557  0.00  0.00     0.381 N 
ATOM     19  H   LIG d   1      -0.242  81.266 113.090  0.00  0.00    -0.090 HD
ATOM     20  H   LIG d   1       0.442  79.809 112.864  0.00  0.00    -0.090 HD
ATOM     21  H   LIG d   1       0.971  80.781 114.072  0.00  0.00    -0.090 HD
ENDBRANCH   5  18
BRANCH   3  22
ATOM     22  C   LIG d   1      -3.030  76.960 114.076  0.00  0.00     0.382 C 
ATOM     23  O   LIG d   1      -3.437  75.939 114.680  0.00  0.00    -0.241 OA
ATOM     24  O   LIG d   1      -3.440  77.195 112.923  0.00  0.00    -0.241 OA
ENDBRANCH   3  22
TORSDOF 7
ENDMDL
MODEL 7
REMARK VINA RESULT:      -3.9      3.730      5.402
REMARK  7 active torsions:
REMARK  status: ('A' for Active; 'I' for Inactive)
REMARK    1  A    between atoms: C_2  and  C_3 
REMARK    2  A    between atoms: C_3  and  O_6 
REMARK    3  A    between atoms: C_3  and  C_4 
REMARK    4  A    between atoms: C_7  and  O_6 
REMARK    5  A    between atoms: C_9  and  C_10 
REMARK    6  A    between atoms: N_15  and  C_14 
REMARK    7  A    between atoms: N_20  and  C_19 
REMARK       I    between atoms: C_22  and  N_20 
ROOT
ATOM      1  C   LIG d   1      -1.030  79.611 116.735  0.00  0.00     0.161 C 
ATOM      2  C   LIG d   1      -0.493  78.961 117.859  0.00  0.00     0.016 C 
ATOM      3  C   LIG d   1      -0.057  77.616 117.846  0.00  0.00     0.038 C 
ATOM      4  C   LIG d   1       0.012  76.871 116.659  0.00  0.00     0.028 C 
ATOM      5  C   LIG d   1      -0.990  77.321 115.602  0.00  0.00    -0.047 C 
ATOM      6  C   LIG d   1      -0.859  78.849 115.405  0.00  0.00     0.091 C 
ENDROOT
BRANCH   1   7
ATOM      7  O   LIG d   1      -0.477  80.938 116.627  0.00  0.00    -0.368 OA
BRANCH   7   8
ATOM      8  C   LIG d   1       0.751  81.178 117.359  0.00  0.00     0.119 C 
BRANCH   8   9
ATOM      9  C   LIG d   1       0.643  82.577 117.996  0.00  0.00     0.028 C 
ATOM     10  C   LIG d   1      -0.630  82.740 118.843  0.00  0.00     0.006 C 
ENDBRANCH   8   9
BRANCH   8  11
ATOM     11  C   LIG d   1       1.956  81.252 116.417  0.00  0.00     0.028 C 
ATOM     12  C   LIG d   1       2.926  80.074 116.596  0.00  0.00     0.006 C 
ENDBRANCH   8  11
ENDBRANCH   7   8
ENDBRANCH   1   7
BRANCH   6  13
ATOM     13  N   LIG d   1      -1.862  79.385 114.447  0.00  0.00    -0.311 N 
ATOM     14  C   LIG d   1      -1.550  80.187 113.431  0.00  0.00     0.210 C 
ATOM     15  C   LIG d   1      -2.738  80.641 112.577  0.00  0.00     0.109 C 
ATOM     16  O   LIG d   1      -0.398  80.540 113.137  0.00  0.00    -0.276 OA
ATOM     17  H   LIG d   1      -2.817  79.123 114.593  0.00  0.00     0.149 HD
ENDBRANCH   6  13
BRANCH   5  18
ATOM     18  N   LIG d   1      -0.716  76.554 114.372  0.00  0.00     0.381 N 
ATOM     19  H   LIG d   1       0.271  76.440 114.257  0.00  0.00    -0.090 HD
ATOM     20  H   LIG d   1      -1.068  77.067 113.584  0.00  0.00    -0.090 HD
ATOM     21  H   LIG d   1      -1.157  75.662 114.422  0.00  0.00    -0.090 HD
ENDBRANCH   5  18
BRANCH   3  22
ATOM     22  C   LIG d   1       0.278  76.991 119.037  0.00  0.00     0.382 C 
ATOM     23  O   LIG d   1       1.357  77.275 119.612  0.00  0.00    -0.241 OA
ATOM     24  O   LIG d   1      -0.463  76.115 119.521  0.00  0.00    -0.241 OA
ENDBRANCH   3  22
TORSDOF 7
ENDMDL
MODEL 8
REMARK VINA RESULT:      -3.8      3.776      5.913
REMARK  7 active torsions:
REMARK  status: ('A' for Active; 'I' for Inactive)
REMARK    1  A    between atoms: C_2  and  C_3 
REMARK    2  A    between atoms: C_3  and  O_6 
REMARK    3  A    between atoms: C_3  and  C_4 
REMARK    4  A    between atoms: C_7  and  O_6 
REMARK    5  A    between atoms: C_9  and  C_10 
REMARK    6  A    between atoms: N_15  and  C_14 
REMARK    7  A    between atoms: N_20  and  C_19 
REMARK       I    between atoms: C_22  and  N_20 
ROOT
ATOM      1  C   LIG d   1      -0.893  79.226 115.291  0.00  0.00     0.161 C 
ATOM      2  C   LIG d   1      -0.896  80.176 114.256  0.00  0.00     0.016 C 
ATOM      3  C   LIG d   1      -1.657  80.035 113.073  0.00  0.00     0.038 C 
ATOM      4  C   LIG d   1      -2.589  78.999 112.910  0.00  0.00     0.028 C 
ATOM      5  C   LIG d   1      -2.248  77.746 113.710  0.00  0.00    -0.047 C 
ATOM      6  C   LIG d   1      -1.988  78.145 115.180  0.00  0.00     0.091 C 
ENDROOT
BRANCH   1   7
ATOM      7  O   LIG d   1      -0.975  79.893 116.566  0.00  0.00    -0.368 OA
BRANCH   7   8
ATOM      8  C   LIG d   1       0.288  80.240 117.186  0.00  0.00     0.119 C 
BRANCH   8   9
ATOM      9  C   LIG d   1       0.603  79.155 118.235  0.00  0.00     0.028 C 
ATOM     10  C   LIG d   1       1.660  78.152 117.742  0.00  0.00     0.006 C 
ENDBRANCH   8   9
BRANCH   8  11
ATOM     11  C   LIG d   1       0.181  81.548 117.976  0.00  0.00     0.028 C 
ATOM     12  C   LIG d   1       1.252  82.575 117.576  0.00  0.00     0.006 C 
ENDBRANCH   8  11
ENDBRANCH   7   8
ENDBRANCH   1   7
BRANCH   6  13
ATOM     13  N   LIG d   1      -1.566  76.990 116.015  0.00  0.00    -0.311 N 
ATOM     14  C   LIG d   1      -2.196  76.621 117.129  0.00  0.00     0.210 C 
ATOM     15  C   LIG d   1      -1.584  75.415 117.849  0.00  0.00     0.109 C 
ATOM     16  O   LIG d   1      -3.222  77.159 117.572  0.00  0.00    -0.276 OA
ATOM     17  H   LIG d   1      -0.760  76.478 115.711  0.00  0.00     0.149 HD
ENDBRANCH   6  13
BRANCH   5  18
ATOM     18  N   LIG d   1      -3.370  76.801 113.557  0.00  0.00     0.381 N 
ATOM     19  H   LIG d   1      -3.892  76.754 114.409  0.00  0.00    -0.090 HD
ATOM     20  H   LIG d   1      -3.001  75.887 113.362  0.00  0.00    -0.090 HD
ATOM     21  H   LIG d   1      -3.963  77.093 112.812  0.00  0.00    -0.090 HD
ENDBRANCH   5  18
BRANCH   3  22
ATOM     22  C   LIG d   1      -1.459  80.915 112.020  0.00  0.00     0.382 C 
ATOM     23  O   LIG d   1      -1.969  82.061 112.056  0.00  0.00    -0.241 OA
ATOM     24  O   LIG d   1      -0.815  80.562 111.014  0.00  0.00    -0.241 OA
ENDBRANCH   3  22
TORSDOF 7
ENDMDL
MODEL 9
REMARK VINA RESULT:      -3.8      4.201      7.423
REMARK  7 active torsions:
REMARK  status: ('A' for Active; 'I' for Inactive)
REMARK    1  A    between atoms: C_2  and  C_3 
REMARK    2  A    between atoms: C_3  and  O_6 
REMARK    3  A    between atoms: C_3  and  C_4 
REMARK    4  A    between atoms: C_7  and  O_6 
REMARK    5  A    between atoms: C_9  and  C_10 
REMARK    6  A    between atoms: N_15  and  C_14 
REMARK    7  A    between atoms: N_20  and  C_19 
REMARK       I    between atoms: C_22  and  N_20 
ROOT
ATOM      1  C   LIG d   1      -0.928  78.893 116.813  0.00  0.00     0.161 C 
ATOM      2  C   LIG d   1      -0.173  80.048 116.554  0.00  0.00     0.016 C 
ATOM      3  C   LIG d   1       1.240  80.077 116.584  0.00  0.00     0.038 C 
ATOM      4  C   LIG d   1       2.003  78.908 116.728  0.00  0.00     0.028 C 
ATOM      5  C   LIG d   1       1.281  77.805 117.494  0.00  0.00    -0.047 C 
ATOM      6  C   LIG d   1      -0.112  77.584 116.863  0.00  0.00     0.091 C 
ENDROOT
BRANCH   1   7
ATOM      7  O   LIG d   1      -1.996  78.781 115.851  0.00  0.00    -0.368 OA
BRANCH   7   8
ATOM      8  C   LIG d   1      -1.608  78.846 114.457  0.00  0.00     0.119 C 
BRANCH   8   9
ATOM      9  C   LIG d   1      -2.401  79.997 113.809  0.00  0.00     0.028 C 
ATOM     10  C   LIG d   1      -2.428  79.900 112.274  0.00  0.00     0.006 C 
ENDBRANCH   8   9
BRANCH   8  11
ATOM     11  C   LIG d   1      -2.033  77.584 113.701  0.00  0.00     0.028 C 
ATOM     12  C   LIG d   1      -3.239  76.881 114.344  0.00  0.00     0.006 C 
ENDBRANCH   8  11
ENDBRANCH   7   8
ENDBRANCH   1   7
BRANCH   6  13
ATOM     13  N   LIG d   1      -0.918  76.579 117.604  0.00  0.00    -0.311 N 
ATOM     14  C   LIG d   1      -1.241  75.386 117.107  0.00  0.00     0.210 C 
ATOM     15  C   LIG d   1      -2.094  74.511 118.030  0.00  0.00     0.109 C 
ATOM     16  O   LIG d   1      -0.874  74.958 116.003  0.00  0.00    -0.276 OA
ATOM     17  H   LIG d   1      -1.231  76.832 118.521  0.00  0.00     0.149 HD
ENDBRANCH   6  13
BRANCH   5  18
ATOM     18  N   LIG d   1       2.133  76.601 117.451  0.00  0.00     0.381 N 
ATOM     19  H   LIG d   1       1.976  76.106 116.596  0.00  0.00    -0.090 HD
ATOM     20  H   LIG d   1       1.884  75.999 118.216  0.00  0.00    -0.090 HD
ATOM     21  H   LIG d   1       3.092  76.860 117.522  0.00  0.00    -0.090 HD
ENDBRANCH   5  18
BRANCH   3  22
ATOM     22  C   LIG d   1       1.905  81.292 116.508  0.00  0.00     0.382 C 
ATOM     23  O   LIG d   1       3.142  81.318 116.302  0.00  0.00    -0.241 OA
ATOM     24  O   LIG d   1       1.290  82.360 116.689  0.00  0.00    -0.241 OA
ENDBRANCH   3  22
TORSDOF 7
ENDMDL
