MODEL 1
REMARK VINA RESULT:      -4.1      0.000      0.000
REMARK  7 active torsions:
REMARK  status: ('A' for Active; 'I' for Inactive)
REMARK    1  A    between atoms: C_2  and  C_3 
REMARK    2  A    between atoms: C_3  and  O_6 
REMARK    3  A    between atoms: C_3  and  C_4 
REMARK    4  A    between atoms: C_7  and  O_6 
REMARK    5  A    between atoms: C_9  and  C_10 
REMARK    6  A    between atoms: N_15  and  C_14 
REMARK    7  A    between atoms: N_20  and  C_19 
REMARK       I    between atoms: C_22  and  N_20 
ROOT
ATOM      1  C   LIG d   1      -0.262  78.231 116.485  0.00  0.00     0.161 C 
ATOM      2  C   LIG d   1      -1.179  78.608 115.490  0.00  0.00     0.016 C 
ATOM      3  C   LIG d   1      -1.815  77.686 114.628  0.00  0.00     0.038 C 
ATOM      4  C   LIG d   1      -1.692  76.299 114.805  0.00  0.00     0.028 C 
ATOM      5  C   LIG d   1      -0.385  75.888 115.473  0.00  0.00    -0.047 C 
ATOM      6  C   LIG d   1      -0.200  76.715 116.766  0.00  0.00     0.091 C 
ENDROOT
BRANCH   1   7
ATOM      7  O   LIG d   1      -0.536  78.955 117.701  0.00  0.00    -0.368 OA
BRANCH   7   8
ATOM      8  C   LIG d   1       0.114  80.243 117.836  0.00  0.00     0.119 C 
BRANCH   8   9
ATOM      9  C   LIG d   1       1.626  79.985 117.987  0.00  0.00     0.028 C 
ATOM     10  C   LIG d   1       1.996  79.464 119.386  0.00  0.00     0.006 C 
ENDBRANCH   8   9
BRANCH   8  11
ATOM     11  C   LIG d   1      -0.308  80.947 119.129  0.00  0.00     0.028 C 
ATOM     12  C   LIG d   1      -0.152  82.474 119.054  0.00  0.00     0.006 C 
ENDBRANCH   8  11
ENDBRANCH   7   8
ENDBRANCH   1   7
BRANCH   6  13
ATOM     13  N   LIG d   1       1.096  76.435 117.438  0.00  0.00    -0.311 N 
ATOM     14  C   LIG d   1       1.190  75.883 118.646  0.00  0.00     0.210 C 
ATOM     15  C   LIG d   1       2.621  75.699 119.163  0.00  0.00     0.109 C 
ATOM     16  O   LIG d   1       0.227  75.498 119.326  0.00  0.00    -0.276 OA
ATOM     17  H   LIG d   1       1.929  76.686 116.944  0.00  0.00     0.149 HD
ENDBRANCH   6  13
BRANCH   5  18
ATOM     18  N   LIG d   1      -0.449  74.435 115.720  0.00  0.00     0.381 N 
ATOM     19  H   LIG d   1      -0.663  74.264 116.683  0.00  0.00    -0.090 HD
ATOM     20  H   LIG d   1       0.449  74.031 115.521  0.00  0.00    -0.090 HD
ATOM     21  H   LIG d   1      -1.144  74.021 115.139  0.00  0.00    -0.090 HD
ENDBRANCH   5  18
BRANCH   3  22
ATOM     22  C   LIG d   1      -2.554  78.149 113.550  0.00  0.00     0.382 C 
ATOM     23  O   LIG d   1      -3.064  79.295 113.586  0.00  0.00    -0.241 OA
ATOM     24  O   LIG d   1      -2.755  77.419 112.561  0.00  0.00    -0.241 OA
ENDBRANCH   3  22
TORSDOF 7
ENDMDL
MODEL 2
REMARK VINA RESULT:      -4.0      0.676      1.631
REMARK  7 active torsions:
REMARK  status: ('A' for Active; 'I' for Inactive)
REMARK    1  A    between atoms: C_2  and  C_3 
REMARK    2  A    between atoms: C_3  and  O_6 
REMARK    3  A    between atoms: C_3  and  C_4 
REMARK    4  A    between atoms: C_7  and  O_6 
REMARK    5  A    between atoms: C_9  and  C_10 
REMARK    6  A    between atoms: N_15  and  C_14 
REMARK    7  A    between atoms: N_20  and  C_19 
REMARK       I    between atoms: C_22  and  N_20 
ROOT
ATOM      1  C   LIG d   1      -0.539  78.499 116.358  0.00  0.00     0.161 C 
ATOM      2  C   LIG d   1      -1.453  78.909 115.374  0.00  0.00     0.016 C 
ATOM      3  C   LIG d   1      -1.955  78.047 114.371  0.00  0.00     0.038 C 
ATOM      4  C   LIG d   1      -1.689  76.670 114.376  0.00  0.00     0.028 C 
ATOM      5  C   LIG d   1      -0.370  76.310 115.051  0.00  0.00    -0.047 C 
ATOM      6  C   LIG d   1      -0.324  76.974 116.447  0.00  0.00     0.091 C 
ENDROOT
BRANCH   1   7
ATOM      7  O   LIG d   1      -0.934  79.024 117.641  0.00  0.00    -0.368 OA
BRANCH   7   8
ATOM      8  C   LIG d   1       0.075  79.775 118.361  0.00  0.00     0.119 C 
BRANCH   8   9
ATOM      9  C   LIG d   1      -0.639  80.928 119.091  0.00  0.00     0.028 C 
ATOM     10  C   LIG d   1       0.079  82.275 118.905  0.00  0.00     0.006 C 
ENDBRANCH   8   9
BRANCH   8  11
ATOM     11  C   LIG d   1       1.058  80.450 117.400  0.00  0.00     0.028 C 
ATOM     12  C   LIG d   1       2.506  79.975 117.597  0.00  0.00     0.006 C 
ENDBRANCH   8  11
ENDBRANCH   7   8
ENDBRANCH   1   7
BRANCH   6  13
ATOM     13  N   LIG d   1       0.969  76.741 117.142  0.00  0.00    -0.311 N 
ATOM     14  C   LIG d   1       1.061  76.217 118.363  0.00  0.00     0.210 C 
ATOM     15  C   LIG d   1       2.488  76.082 118.903  0.00  0.00     0.109 C 
ATOM     16  O   LIG d   1       0.098  75.822 119.037  0.00  0.00    -0.276 OA
ATOM     17  H   LIG d   1       1.803  77.004 116.654  0.00  0.00     0.149 HD
ENDBRANCH   6  13
BRANCH   5  18
ATOM     18  N   LIG d   1      -0.286  74.838 115.108  0.00  0.00     0.381 N 
ATOM     19  H   LIG d   1      -0.823  74.498 115.880  0.00  0.00    -0.090 HD
ATOM     20  H   LIG d   1       0.673  74.573 115.250  0.00  0.00    -0.090 HD
ATOM     21  H   LIG d   1      -0.625  74.444 114.258  0.00  0.00    -0.090 HD
ENDBRANCH   5  18
BRANCH   3  22
ATOM     22  C   LIG d   1      -2.699  78.571 113.325  0.00  0.00     0.382 C 
ATOM     23  O   LIG d   1      -2.813  77.929 112.253  0.00  0.00    -0.241 OA
ATOM     24  O   LIG d   1      -3.222  79.697 113.423  0.00  0.00    -0.241 OA
ENDBRANCH   3  22
TORSDOF 7
ENDMDL
MODEL 3
REMARK VINA RESULT:      -3.9      1.388      1.505
REMARK  7 active torsions:
REMARK  status: ('A' for Active; 'I' for Inactive)
REMARK    1  A    between atoms: C_2  and  C_3 
REMARK    2  A    between atoms: C_3  and  O_6 
REMARK    3  A    between atoms: C_3  and  C_4 
REMARK    4  A    between atoms: C_7  and  O_6 
REMARK    5  A    between atoms: C_9  and  C_10 
REMARK    6  A    between atoms: N_15  and  C_14 
REMARK    7  A    between atoms: N_20  and  C_19 
REMARK       I    between atoms: C_22  and  N_20 
ROOT
ATOM      1  C   LIG d   1      -0.855  78.199 116.122  0.00  0.00     0.161 C 
ATOM      2  C   LIG d   1      -1.365  78.953 115.052  0.00  0.00     0.016 C 
ATOM      3  C   LIG d   1      -2.283  78.441 114.107  0.00  0.00     0.038 C 
ATOM      4  C   LIG d   1      -2.873  77.178 114.256  0.00  0.00     0.028 C 
ATOM      5  C   LIG d   1      -2.010  76.194 115.038  0.00  0.00    -0.047 C 
ATOM      6  C   LIG d   1      -1.573  76.855 116.365  0.00  0.00     0.091 C 
ENDROOT
BRANCH   1   7
ATOM      7  O   LIG d   1      -0.859  78.993 117.325  0.00  0.00    -0.368 OA
BRANCH   7   8
ATOM      8  C   LIG d   1       0.283  79.865 117.517  0.00  0.00     0.119 C 
BRANCH   8   9
ATOM      9  C   LIG d   1       1.466  78.985 117.965  0.00  0.00     0.028 C 
ATOM     10  C   LIG d   1       1.274  78.421 119.383  0.00  0.00     0.006 C 
ENDBRANCH   8   9
BRANCH   8  11
ATOM     11  C   LIG d   1       0.048  80.846 118.668  0.00  0.00     0.028 C 
ATOM     12  C   LIG d   1       0.697  82.218 118.424  0.00  0.00     0.006 C 
ENDBRANCH   8  11
ENDBRANCH   7   8
ENDBRANCH   1   7
BRANCH   6  13
ATOM     13  N   LIG d   1      -0.656  75.991 117.154  0.00  0.00    -0.311 N 
ATOM     14  C   LIG d   1      -0.899  75.616 118.408  0.00  0.00     0.210 C 
ATOM     15  C   LIG d   1       0.187  74.742 119.044  0.00  0.00     0.109 C 
ATOM     16  O   LIG d   1      -1.926  75.898 119.044  0.00  0.00    -0.276 OA
ATOM     17  H   LIG d   1       0.187  75.691 116.704  0.00  0.00     0.149 HD
ENDBRANCH   6  13
BRANCH   5  18
ATOM     18  N   LIG d   1      -2.802  74.966 115.237  0.00  0.00     0.381 N 
ATOM     19  H   LIG d   1      -3.510  74.902 114.533  0.00  0.00    -0.090 HD
ATOM     20  H   LIG d   1      -3.253  75.011 116.134  0.00  0.00    -0.090 HD
ATOM     21  H   LIG d   1      -2.209  74.167 115.195  0.00  0.00    -0.090 HD
ENDBRANCH   5  18
BRANCH   3  22
ATOM     22  C   LIG d   1      -2.588  79.182 112.975  0.00  0.00     0.382 C 
ATOM     23  O   LIG d   1      -3.440  80.101 113.038  0.00  0.00    -0.241 OA
ATOM     24  O   LIG d   1      -2.055  78.913 111.881  0.00  0.00    -0.241 OA
ENDBRANCH   3  22
TORSDOF 7
ENDMDL
MODEL 4
REMARK VINA RESULT:      -3.9      1.567      2.572
REMARK  7 active torsions:
REMARK  status: ('A' for Active; 'I' for Inactive)
REMARK    1  A    between atoms: C_2  and  C_3 
REMARK    2  A    between atoms: C_3  and  O_6 
REMARK    3  A    between atoms: C_3  and  C_4 
REMARK    4  A    between atoms: C_7  and  O_6 
REMARK    5  A    between atoms: C_9  and  C_10 
REMARK    6  A    between atoms: N_15  and  C_14 
REMARK    7  A    between atoms: N_20  and  C_19 
REMARK       I    between atoms: C_22  and  N_20 
ROOT
ATOM      1  C   LIG d   1      -0.619  78.214 116.579  0.00  0.00     0.161 C 
ATOM      2  C   LIG d   1      -1.476  78.581 115.528  0.00  0.00     0.016 C 
ATOM      3  C   LIG d   1      -1.892  77.688 114.514  0.00  0.00     0.038 C 
ATOM      4  C   LIG d   1      -1.599  76.317 114.568  0.00  0.00     0.028 C 
ATOM      5  C   LIG d   1      -0.320  76.001 115.336  0.00  0.00    -0.047 C 
ATOM      6  C   LIG d   1      -0.379  76.696 116.716  0.00  0.00     0.091 C 
ENDROOT
BRANCH   1   7
ATOM      7  O   LIG d   1      -1.109  78.758 117.821  0.00  0.00    -0.368 OA
BRANCH   7   8
ATOM      8  C   LIG d   1      -2.447  78.361 118.207  0.00  0.00     0.119 C 
BRANCH   8   9
ATOM      9  C   LIG d   1      -3.109  79.571 118.894  0.00  0.00     0.028 C 
ATOM     10  C   LIG d   1      -2.115  80.377 119.747  0.00  0.00     0.006 C 
ENDBRANCH   8   9
BRANCH   8  11
ATOM     11  C   LIG d   1      -2.417  77.258 119.269  0.00  0.00     0.028 C 
ATOM     12  C   LIG d   1      -3.201  76.004 118.849  0.00  0.00     0.006 C 
ENDBRANCH   8  11
ENDBRANCH   7   8
ENDBRANCH   1   7
BRANCH   6  13
ATOM     13  N   LIG d   1       0.870  76.507 117.499  0.00  0.00    -0.311 N 
ATOM     14  C   LIG d   1       1.011  75.578 118.443  0.00  0.00     0.210 C 
ATOM     15  C   LIG d   1       2.373  75.568 119.143  0.00  0.00     0.109 C 
ATOM     16  O   LIG d   1       0.147  74.741 118.745  0.00  0.00    -0.276 OA
ATOM     17  H   LIG d   1       1.633  77.124 117.297  0.00  0.00     0.149 HD
ENDBRANCH   6  13
BRANCH   5  18
ATOM     18  N   LIG d   1      -0.209  74.533 115.432  0.00  0.00     0.381 N 
ATOM     19  H   LIG d   1      -0.986  74.167 115.944  0.00  0.00    -0.090 HD
ATOM     20  H   LIG d   1       0.633  74.303 115.930  0.00  0.00    -0.090 HD
ATOM     21  H   LIG d   1      -0.184  74.133 114.520  0.00  0.00    -0.090 HD
ENDBRANCH   5  18
BRANCH   3  22
ATOM     22  C   LIG d   1      -2.578  78.172 113.410  0.00  0.00     0.382 C 
ATOM     23  O   LIG d   1      -2.597  77.510 112.345  0.00  0.00    -0.241 OA
ATOM     24  O   LIG d   1      -3.139  79.283 113.453  0.00  0.00    -0.241 OA
ENDBRANCH   3  22
TORSDOF 7
ENDMDL
MODEL 5
REMARK VINA RESULT:      -3.9      2.891      4.902
REMARK  7 active torsions:
REMARK  status: ('A' for Active; 'I' for Inactive)
REMARK    1  A    between atoms: C_2  and  C_3 
REMARK    2  A    between atoms: C_3  and  O_6 
REMARK    3  A    between atoms: C_3  and  C_4 
REMARK    4  A    between atoms: C_7  and  O_6 
REMARK    5  A    between atoms: C_9  and  C_10 
REMARK    6  A    between atoms: N_15  and  C_14 
REMARK    7  A    between atoms: N_20  and  C_19 
REMARK       I    between atoms: C_22  and  N_20 
ROOT
ATOM      1  C   LIG d   1      -1.277  79.017 115.266  0.00  0.00     0.161 C 
ATOM      2  C   LIG d   1      -1.504  77.757 115.846  0.00  0.00     0.016 C 
ATOM      3  C   LIG d   1      -1.670  76.572 115.092  0.00  0.00     0.038 C 
ATOM      4  C   LIG d   1      -1.468  76.542 113.704  0.00  0.00     0.028 C 
ATOM      5  C   LIG d   1      -1.736  77.880 113.024  0.00  0.00    -0.047 C 
ATOM      6  C   LIG d   1      -0.944  78.984 113.760  0.00  0.00     0.091 C 
ENDROOT
BRANCH   1   7
ATOM      7  O   LIG d   1      -0.244  79.710 115.993  0.00  0.00    -0.368 OA
BRANCH   7   8
ATOM      8  C   LIG d   1      -0.013  79.265 117.352  0.00  0.00     0.119 C 
BRANCH   8   9
ATOM      9  C   LIG d   1      -0.317  80.453 118.286  0.00  0.00     0.028 C 
ATOM     10  C   LIG d   1      -1.435  80.136 119.294  0.00  0.00     0.006 C 
ENDBRANCH   8   9
BRANCH   8  11
ATOM     11  C   LIG d   1       1.464  78.933 117.586  0.00  0.00     0.028 C 
ATOM     12  C   LIG d   1       1.739  77.421 117.603  0.00  0.00     0.006 C 
ENDBRANCH   8  11
ENDBRANCH   7   8
ENDBRANCH   1   7
BRANCH   6  13
ATOM     13  N   LIG d   1      -1.215  80.338 113.210  0.00  0.00    -0.311 N 
ATOM     14  C   LIG d   1      -0.510  80.882 112.219  0.00  0.00     0.210 C 
ATOM     15  C   LIG d   1      -0.943  82.296 111.818  0.00  0.00     0.109 C 
ATOM     16  O   LIG d   1       0.412  80.316 111.614  0.00  0.00    -0.276 OA
ATOM     17  H   LIG d   1      -1.966  80.856 113.622  0.00  0.00     0.149 HD
ENDBRANCH   6  13
BRANCH   5  18
ATOM     18  N   LIG d   1      -1.355  77.742 111.605  0.00  0.00     0.381 N 
ATOM     19  H   LIG d   1      -0.780  76.933 111.486  0.00  0.00    -0.090 HD
ATOM     20  H   LIG d   1      -0.824  78.550 111.332  0.00  0.00    -0.090 HD
ATOM     21  H   LIG d   1      -2.171  77.665 111.039  0.00  0.00    -0.090 HD
ENDBRANCH   5  18
BRANCH   3  22
ATOM     22  C   LIG d   1      -2.081  75.408 115.724  0.00  0.00     0.382 C 
ATOM     23  O   LIG d   1      -2.027  75.321 116.975  0.00  0.00    -0.241 OA
ATOM     24  O   LIG d   1      -2.462  74.428 115.057  0.00  0.00    -0.241 OA
ENDBRANCH   3  22
TORSDOF 7
ENDMDL
MODEL 6
REMARK VINA RESULT:      -3.9      2.429      4.742
REMARK  7 active torsions:
REMARK  status: ('A' for Active; 'I' for Inactive)
REMARK    1  A    between atoms: C_2  and  C_3 
REMARK    2  A    between atoms: C_3  and  O_6 
REMARK    3  A    between atoms: C_3  and  C_4 
REMARK    4  A    between atoms: C_7  and  O_6 
REMARK    5  A    between atoms: C_9  and  C_10 
REMARK    6  A    between atoms: N_15  and  C_14 
REMARK    7  A    between atoms: N_20  and  C_19 
REMARK       I    between atoms: C_22  and  N_20 
ROOT
ATOM      1  C   LIG d   1      -0.787  78.272 115.309  0.00  0.00     0.161 C 
ATOM      2  C   LIG d   1      -1.701  77.217 115.150  0.00  0.00     0.016 C 
ATOM      3  C   LIG d   1      -2.136  76.398 116.217  0.00  0.00     0.038 C 
ATOM      4  C   LIG d   1      -1.800  76.677 117.551  0.00  0.00     0.028 C 
ATOM      5  C   LIG d   1      -0.479  77.423 117.699  0.00  0.00    -0.047 C 
ATOM      6  C   LIG d   1      -0.495  78.661 116.773  0.00  0.00     0.091 C 
ENDROOT
BRANCH   1   7
ATOM      7  O   LIG d   1      -1.234  79.422 114.565  0.00  0.00    -0.368 OA
BRANCH   7   8
ATOM      8  C   LIG d   1      -1.364  79.244 113.133  0.00  0.00     0.119 C 
BRANCH   8   9
ATOM      9  C   LIG d   1      -0.401  80.236 112.453  0.00  0.00     0.028 C 
ATOM     10  C   LIG d   1      -0.020  79.801 111.028  0.00  0.00     0.006 C 
ENDBRANCH   8   9
BRANCH   8  11
ATOM     11  C   LIG d   1      -2.762  79.639 112.647  0.00  0.00     0.028 C 
ATOM     12  C   LIG d   1      -3.048  81.140 112.810  0.00  0.00     0.006 C 
ENDBRANCH   8  11
ENDBRANCH   7   8
ENDBRANCH   1   7
BRANCH   6  13
ATOM     13  N   LIG d   1       0.794  79.401 116.794  0.00  0.00    -0.311 N 
ATOM     14  C   LIG d   1       1.006  80.482 117.542  0.00  0.00     0.210 C 
ATOM     15  C   LIG d   1       2.398  81.104 117.399  0.00  0.00     0.109 C 
ATOM     16  O   LIG d   1       0.184  80.966 118.335  0.00  0.00    -0.276 OA
ATOM     17  H   LIG d   1       1.526  79.058 116.204  0.00  0.00     0.149 HD
ENDBRANCH   6  13
BRANCH   5  18
ATOM     18  N   LIG d   1      -0.320  77.769 119.124  0.00  0.00     0.381 N 
ATOM     19  H   LIG d   1      -1.149  78.220 119.458  0.00  0.00    -0.090 HD
ATOM     20  H   LIG d   1       0.448  78.410 119.220  0.00  0.00    -0.090 HD
ATOM     21  H   LIG d   1      -0.144  76.946 119.657  0.00  0.00    -0.090 HD
ENDBRANCH   5  18
BRANCH   3  22
ATOM     22  C   LIG d   1      -2.886  75.262 115.950  0.00  0.00     0.382 C 
ATOM     23  O   LIG d   1      -3.228  75.000 114.772  0.00  0.00    -0.241 OA
ATOM     24  O   LIG d   1      -3.261  74.521 116.878  0.00  0.00    -0.241 OA
ENDBRANCH   3  22
TORSDOF 7
ENDMDL
MODEL 7
REMARK VINA RESULT:      -3.8      2.501      4.338
REMARK  7 active torsions:
REMARK  status: ('A' for Active; 'I' for Inactive)
REMARK    1  A    between atoms: C_2  and  C_3 
REMARK    2  A    between atoms: C_3  and  O_6 
REMARK    3  A    between atoms: C_3  and  C_4 
REMARK    4  A    between atoms: C_7  and  O_6 
REMARK    5  A    between atoms: C_9  and  C_10 
REMARK    6  A    between atoms: N_15  and  C_14 
REMARK    7  A    between atoms: N_20  and  C_19 
REMARK       I    between atoms: C_22  and  N_20 
ROOT
ATOM      1  C   LIG d   1      -0.177  77.306 118.249  0.00  0.00     0.161 C 
ATOM      2  C   LIG d   1      -0.490  76.093 117.614  0.00  0.00     0.016 C 
ATOM      3  C   LIG d   1      -0.780  75.989 116.234  0.00  0.00     0.038 C 
ATOM      4  C   LIG d   1      -0.628  77.077 115.361  0.00  0.00     0.028 C 
ATOM      5  C   LIG d   1      -0.804  78.430 116.042  0.00  0.00    -0.047 C 
ATOM      6  C   LIG d   1       0.103  78.484 117.292  0.00  0.00     0.091 C 
ENDROOT
BRANCH   1   7
ATOM      7  O   LIG d   1       0.935  77.114 119.146  0.00  0.00    -0.368 OA
BRANCH   7   8
ATOM      8  C   LIG d   1       2.204  76.788 118.529  0.00  0.00     0.119 C 
BRANCH   8   9
ATOM      9  C   LIG d   1       2.745  75.523 119.223  0.00  0.00     0.028 C 
ATOM     10  C   LIG d   1       4.279  75.429 119.159  0.00  0.00     0.006 C 
ENDBRANCH   8   9
BRANCH   8  11
ATOM     11  C   LIG d   1       3.249  77.875 118.795  0.00  0.00     0.028 C 
ATOM     12  C   LIG d   1       3.785  78.516 117.505  0.00  0.00     0.006 C 
ENDBRANCH   8  11
ENDBRANCH   7   8
ENDBRANCH   1   7
BRANCH   6  13
ATOM     13  N   LIG d   1      -0.070  79.741 118.065  0.00  0.00    -0.311 N 
ATOM     14  C   LIG d   1       0.618  80.854 117.818  0.00  0.00     0.210 C 
ATOM     15  C   LIG d   1       0.299  82.031 118.745  0.00  0.00     0.109 C 
ATOM     16  O   LIG d   1       1.439  80.989 116.898  0.00  0.00    -0.276 OA
ATOM     17  H   LIG d   1      -0.739  79.731 118.809  0.00  0.00     0.149 HD
ENDBRANCH   6  13
BRANCH   5  18
ATOM     18  N   LIG d   1      -0.483  79.473 115.049  0.00  0.00     0.381 N 
ATOM     19  H   LIG d   1      -1.300  79.698 114.518  0.00  0.00    -0.090 HD
ATOM     20  H   LIG d   1       0.216  79.119 114.420  0.00  0.00    -0.090 HD
ATOM     21  H   LIG d   1      -0.143  80.289 115.510  0.00  0.00    -0.090 HD
ENDBRANCH   5  18
BRANCH   3  22
ATOM     22  C   LIG d   1      -1.267  74.796 115.721  0.00  0.00     0.382 C 
ATOM     23  O   LIG d   1      -2.178  74.180 116.325  0.00  0.00    -0.241 OA
ATOM     24  O   LIG d   1      -0.776  74.306 114.687  0.00  0.00    -0.241 OA
ENDBRANCH   3  22
TORSDOF 7
ENDMDL
MODEL 8
REMARK VINA RESULT:      -3.5      1.846      4.814
REMARK  7 active torsions:
REMARK  status: ('A' for Active; 'I' for Inactive)
REMARK    1  A    between atoms: C_2  and  C_3 
REMARK    2  A    between atoms: C_3  and  O_6 
REMARK    3  A    between atoms: C_3  and  C_4 
REMARK    4  A    between atoms: C_7  and  O_6 
REMARK    5  A    between atoms: C_9  and  C_10 
REMARK    6  A    between atoms: N_15  and  C_14 
REMARK    7  A    between atoms: N_20  and  C_19 
REMARK       I    between atoms: C_22  and  N_20 
ROOT
ATOM      1  C   LIG d   1      -0.806  78.967 116.745  0.00  0.00     0.161 C 
ATOM      2  C   LIG d   1      -0.306  77.986 117.617  0.00  0.00     0.016 C 
ATOM      3  C   LIG d   1      -0.111  76.637 117.240  0.00  0.00     0.038 C 
ATOM      4  C   LIG d   1      -0.261  76.209 115.913  0.00  0.00     0.028 C 
ATOM      5  C   LIG d   1      -1.247  77.052 115.112  0.00  0.00    -0.047 C 
ATOM      6  C   LIG d   1      -0.870  78.544 115.263  0.00  0.00     0.091 C 
ENDROOT
BRANCH   1   7
ATOM      7  O   LIG d   1      -0.041  80.181 116.886  0.00  0.00    -0.368 OA
BRANCH   7   8
ATOM      8  C   LIG d   1       0.658  80.351 118.144  0.00  0.00     0.119 C 
BRANCH   8   9
ATOM      9  C   LIG d   1       0.031  81.562 118.862  0.00  0.00     0.028 C 
ATOM     10  C   LIG d   1      -1.224  81.183 119.666  0.00  0.00     0.006 C 
ENDBRANCH   8   9
BRANCH   8  11
ATOM     11  C   LIG d   1       2.125  80.728 117.919  0.00  0.00     0.028 C 
ATOM     12  C   LIG d   1       3.024  79.505 117.677  0.00  0.00     0.006 C 
ENDBRANCH   8  11
ENDBRANCH   7   8
ENDBRANCH   1   7
BRANCH   6  13
ATOM     13  N   LIG d   1      -1.834  79.444 114.579  0.00  0.00    -0.311 N 
ATOM     14  C   LIG d   1      -1.718  79.810 113.304  0.00  0.00     0.210 C 
ATOM     15  C   LIG d   1      -2.810  80.760 112.801  0.00  0.00     0.109 C 
ATOM     16  O   LIG d   1      -0.833  79.412 112.532  0.00  0.00    -0.276 OA
ATOM     17  H   LIG d   1      -2.601  79.789 115.123  0.00  0.00     0.149 HD
ENDBRANCH   6  13
BRANCH   5  18
ATOM     18  N   LIG d   1      -1.203  76.583 113.714  0.00  0.00     0.381 N 
ATOM     19  H   LIG d   1      -0.353  76.886 113.282  0.00  0.00    -0.090 HD
ATOM     20  H   LIG d   1      -1.974  76.986 113.211  0.00  0.00    -0.090 HD
ATOM     21  H   LIG d   1      -1.262  75.589 113.686  0.00  0.00    -0.090 HD
ENDBRANCH   5  18
BRANCH   3  22
ATOM     22  C   LIG d   1       0.201  75.692 118.206  0.00  0.00     0.382 C 
ATOM     23  O   LIG d   1       0.797  76.039 119.254  0.00  0.00    -0.241 OA
ATOM     24  O   LIG d   1      -0.067  74.489 118.023  0.00  0.00    -0.241 OA
ENDBRANCH   3  22
TORSDOF 7
ENDMDL
MODEL 9
REMARK VINA RESULT:      -3.1      2.940      4.774
REMARK  7 active torsions:
REMARK  status: ('A' for Active; 'I' for Inactive)
REMARK    1  A    between atoms: C_2  and  C_3 
REMARK    2  A    between atoms: C_3  and  O_6 
REMARK    3  A    between atoms: C_3  and  C_4 
REMARK    4  A    between atoms: C_7  and  O_6 
REMARK    5  A    between atoms: C_9  and  C_10 
REMARK    6  A    between atoms: N_15  and  C_14 
REMARK    7  A    between atoms: N_20  and  C_19 
REMARK       I    between atoms: C_22  and  N_20 
ROOT
ATOM      1  C   LIG d   1       0.245  78.060 117.136  0.00  0.00     0.161 C 
ATOM      2  C   LIG d   1       0.693  79.364 117.406  0.00  0.00     0.016 C 
ATOM      3  C   LIG d   1      -0.012  80.275 118.226  0.00  0.00     0.038 C 
ATOM      4  C   LIG d   1      -1.144  79.890 118.959  0.00  0.00     0.028 C 
ATOM      5  C   LIG d   1      -1.914  78.737 118.323  0.00  0.00    -0.047 C 
ATOM      6  C   LIG d   1      -0.931  77.585 118.016  0.00  0.00     0.091 C 
ENDROOT
BRANCH   1   7
ATOM      7  O   LIG d   1       1.347  77.136 117.230  0.00  0.00    -0.368 OA
BRANCH   7   8
ATOM      8  C   LIG d   1       2.420  77.513 118.128  0.00  0.00     0.119 C 
BRANCH   8   9
ATOM      9  C   LIG d   1       3.750  77.246 117.397  0.00  0.00     0.028 C 
ATOM     10  C   LIG d   1       4.505  78.543 117.061  0.00  0.00     0.006 C 
ENDBRANCH   8   9
BRANCH   8  11
ATOM     11  C   LIG d   1       2.451  76.614 119.367  0.00  0.00     0.028 C 
ATOM     12  C   LIG d   1       1.684  75.297 119.168  0.00  0.00     0.006 C 
ENDBRANCH   8  11
ENDBRANCH   7   8
ENDBRANCH   1   7
BRANCH   6  13
ATOM     13  N   LIG d   1      -1.587  76.451 117.315  0.00  0.00    -0.311 N 
ATOM     14  C   LIG d   1      -2.077  75.385 117.945  0.00  0.00     0.210 C 
ATOM     15  C   LIG d   1      -2.695  74.321 117.032  0.00  0.00     0.109 C 
ATOM     16  O   LIG d   1      -2.088  75.234 119.176  0.00  0.00    -0.276 OA
ATOM     17  H   LIG d   1      -1.649  76.506 116.317  0.00  0.00     0.149 HD
ENDBRANCH   6  13
BRANCH   5  18
ATOM     18  N   LIG d   1      -2.987  78.348 119.258  0.00  0.00     0.381 N 
ATOM     19  H   LIG d   1      -3.815  78.118 118.746  0.00  0.00    -0.090 HD
ATOM     20  H   LIG d   1      -3.193  79.127 119.859  0.00  0.00    -0.090 HD
ATOM     21  H   LIG d   1      -2.697  77.566 119.803  0.00  0.00    -0.090 HD
ENDBRANCH   5  18
BRANCH   3  22
ATOM     22  C   LIG d   1       0.393  81.600 118.287  0.00  0.00     0.382 C 
ATOM     23  O   LIG d   1      -0.151  82.385 119.101  0.00  0.00    -0.241 OA
ATOM     24  O   LIG d   1       1.264  82.031 117.509  0.00  0.00    -0.241 OA
ENDBRANCH   3  22
TORSDOF 7
ENDMDL
