MODEL 1
REMARK VINA RESULT:      -4.8      0.000      0.000
REMARK  7 active torsions:
REMARK  status: ('A' for Active; 'I' for Inactive)
REMARK    1  A    between atoms: C_2  and  C_3 
REMARK    2  A    between atoms: C_3  and  O_6 
REMARK    3  A    between atoms: C_3  and  C_4 
REMARK    4  A    between atoms: C_7  and  O_6 
REMARK    5  A    between atoms: C_9  and  C_10 
REMARK    6  A    between atoms: N_15  and  C_14 
REMARK    7  A    between atoms: N_20  and  C_19 
REMARK       I    between atoms: C_22  and  N_20 
ROOT
ATOM      1  C   LIG d   1      -1.675  78.692 114.746  0.00  0.00     0.161 C 
ATOM      2  C   LIG d   1      -2.002  79.885 114.079  0.00  0.00     0.016 C 
ATOM      3  C   LIG d   1      -2.291  79.949 112.697  0.00  0.00     0.038 C 
ATOM      4  C   LIG d   1      -2.422  78.794 111.912  0.00  0.00     0.028 C 
ATOM      5  C   LIG d   1      -1.607  77.614 112.430  0.00  0.00    -0.047 C 
ATOM      6  C   LIG d   1      -1.922  77.406 113.929  0.00  0.00     0.091 C 
ENDROOT
BRANCH   1   7
ATOM      7  O   LIG d   1      -2.376  78.628 116.004  0.00  0.00    -0.368 OA
BRANCH   7   8
ATOM      8  C   LIG d   1      -1.561  78.764 117.195  0.00  0.00     0.119 C 
BRANCH   8   9
ATOM      9  C   LIG d   1      -1.981  80.070 117.896  0.00  0.00     0.028 C 
ATOM     10  C   LIG d   1      -0.831  81.088 117.981  0.00  0.00     0.006 C 
ENDBRANCH   8   9
BRANCH   8  11
ATOM     11  C   LIG d   1      -0.083  78.952 116.840  0.00  0.00     0.028 C 
ATOM     12  C   LIG d   1       0.805  77.811 117.362  0.00  0.00     0.006 C 
ENDBRANCH   8  11
ENDBRANCH   7   8
ENDBRANCH   1   7
BRANCH   6  13
ATOM     13  N   LIG d   1      -1.104  76.324 114.536  0.00  0.00    -0.311 N 
ATOM     14  C   LIG d   1      -1.628  75.235 115.096  0.00  0.00     0.210 C 
ATOM     15  C   LIG d   1      -0.607  74.254 115.680  0.00  0.00     0.109 C 
ATOM     16  O   LIG d   1      -2.839  74.974 115.136  0.00  0.00    -0.276 OA
ATOM     17  H   LIG d   1      -0.109  76.440 114.519  0.00  0.00     0.149 HD
ENDBRANCH   6  13
BRANCH   5  18
ATOM     18  N   LIG d   1      -1.943  76.442 111.601  0.00  0.00     0.381 N 
ATOM     19  H   LIG d   1      -1.953  75.617 112.168  0.00  0.00    -0.090 HD
ATOM     20  H   LIG d   1      -1.237  76.330 110.894  0.00  0.00    -0.090 HD
ATOM     21  H   LIG d   1      -2.834  76.570 111.173  0.00  0.00    -0.090 HD
ENDBRANCH   5  18
BRANCH   3  22
ATOM     22  C   LIG d   1      -2.413  81.184 112.077  0.00  0.00     0.382 C 
ATOM     23  O   LIG d   1      -1.467  81.636 111.388  0.00  0.00    -0.241 OA
ATOM     24  O   LIG d   1      -3.439  81.871 112.235  0.00  0.00    -0.241 OA
ENDBRANCH   3  22
TORSDOF 7
ENDMDL
MODEL 2
REMARK VINA RESULT:      -4.7      0.843      1.685
REMARK  7 active torsions:
REMARK  status: ('A' for Active; 'I' for Inactive)
REMARK    1  A    between atoms: C_2  and  C_3 
REMARK    2  A    between atoms: C_3  and  O_6 
REMARK    3  A    between atoms: C_3  and  C_4 
REMARK    4  A    between atoms: C_7  and  O_6 
REMARK    5  A    between atoms: C_9  and  C_10 
REMARK    6  A    between atoms: N_15  and  C_14 
REMARK    7  A    between atoms: N_20  and  C_19 
REMARK       I    between atoms: C_22  and  N_20 
ROOT
ATOM      1  C   LIG d   1      -1.834  78.536 114.681  0.00  0.00     0.161 C 
ATOM      2  C   LIG d   1      -2.142  79.749 114.042  0.00  0.00     0.016 C 
ATOM      3  C   LIG d   1      -2.356  79.862 112.649  0.00  0.00     0.038 C 
ATOM      4  C   LIG d   1      -2.426  78.735 111.816  0.00  0.00     0.028 C 
ATOM      5  C   LIG d   1      -1.622  77.548 112.334  0.00  0.00    -0.047 C 
ATOM      6  C   LIG d   1      -2.015  77.279 113.805  0.00  0.00     0.091 C 
ENDROOT
BRANCH   1   7
ATOM      7  O   LIG d   1      -2.601  78.416 115.895  0.00  0.00    -0.368 OA
BRANCH   7   8
ATOM      8  C   LIG d   1      -1.856  78.525 117.133  0.00  0.00     0.119 C 
BRANCH   8   9
ATOM      9  C   LIG d   1      -2.595  77.686 118.194  0.00  0.00     0.028 C 
ATOM     10  C   LIG d   1      -1.778  76.464 118.648  0.00  0.00     0.006 C 
ENDBRANCH   8   9
BRANCH   8  11
ATOM     11  C   LIG d   1      -1.873  79.960 117.668  0.00  0.00     0.028 C 
ATOM     12  C   LIG d   1      -3.064  80.236 118.599  0.00  0.00     0.006 C 
ENDBRANCH   8  11
ENDBRANCH   7   8
ENDBRANCH   1   7
BRANCH   6  13
ATOM     13  N   LIG d   1      -1.214  76.186 114.416  0.00  0.00    -0.311 N 
ATOM     14  C   LIG d   1      -1.749  75.192 115.122  0.00  0.00     0.210 C 
ATOM     15  C   LIG d   1      -0.743  74.181 115.680  0.00  0.00     0.109 C 
ATOM     16  O   LIG d   1      -2.965  75.034 115.313  0.00  0.00    -0.276 OA
ATOM     17  H   LIG d   1      -0.222  76.219 114.284  0.00  0.00     0.149 HD
ENDBRANCH   6  13
BRANCH   5  18
ATOM     18  N   LIG d   1      -1.893  76.403 111.445  0.00  0.00     0.381 N 
ATOM     19  H   LIG d   1      -2.119  76.732 110.528  0.00  0.00    -0.090 HD
ATOM     20  H   LIG d   1      -2.684  75.895 111.801  0.00  0.00    -0.090 HD
ATOM     21  H   LIG d   1      -1.097  75.806 111.404  0.00  0.00    -0.090 HD
ENDBRANCH   5  18
BRANCH   3  22
ATOM     22  C   LIG d   1      -2.464  81.117 112.069  0.00  0.00     0.382 C 
ATOM     23  O   LIG d   1      -1.552  81.541 111.319  0.00  0.00    -0.241 OA
ATOM     24  O   LIG d   1      -3.440  81.848 112.323  0.00  0.00    -0.241 OA
ENDBRANCH   3  22
TORSDOF 7
ENDMDL
MODEL 3
REMARK VINA RESULT:      -4.5      1.892      4.644
REMARK  7 active torsions:
REMARK  status: ('A' for Active; 'I' for Inactive)
REMARK    1  A    between atoms: C_2  and  C_3 
REMARK    2  A    between atoms: C_3  and  O_6 
REMARK    3  A    between atoms: C_3  and  C_4 
REMARK    4  A    between atoms: C_7  and  O_6 
REMARK    5  A    between atoms: C_9  and  C_10 
REMARK    6  A    between atoms: N_15  and  C_14 
REMARK    7  A    between atoms: N_20  and  C_19 
REMARK       I    between atoms: C_22  and  N_20 
ROOT
ATOM      1  C   LIG d   1      -1.500  79.584 114.721  0.00  0.00     0.161 C 
ATOM      2  C   LIG d   1      -1.796  78.343 115.309  0.00  0.00     0.016 C 
ATOM      3  C   LIG d   1      -2.109  77.183 114.564  0.00  0.00     0.038 C 
ATOM      4  C   LIG d   1      -1.998  77.148 113.166  0.00  0.00     0.028 C 
ATOM      5  C   LIG d   1      -2.193  78.510 112.508  0.00  0.00    -0.047 C 
ATOM      6  C   LIG d   1      -1.266  79.537 113.197  0.00  0.00     0.091 C 
ENDROOT
BRANCH   1   7
ATOM      7  O   LIG d   1      -0.369  80.181 115.384  0.00  0.00    -0.368 OA
BRANCH   7   8
ATOM      8  C   LIG d   1      -0.127  79.750 116.746  0.00  0.00     0.119 C 
BRANCH   8   9
ATOM      9  C   LIG d   1      -0.443  80.941 117.672  0.00  0.00     0.028 C 
ATOM     10  C   LIG d   1      -1.784  80.774 118.406  0.00  0.00     0.006 C 
ENDBRANCH   8   9
BRANCH   8  11
ATOM     11  C   LIG d   1       1.354  79.438 116.978  0.00  0.00     0.028 C 
ATOM     12  C   LIG d   1       2.288  80.319 116.132  0.00  0.00     0.006 C 
ENDBRANCH   8  11
ENDBRANCH   7   8
ENDBRANCH   1   7
BRANCH   6  13
ATOM     13  N   LIG d   1      -1.455  80.914 112.671  0.00  0.00    -0.311 N 
ATOM     14  C   LIG d   1      -0.730  81.426 111.677  0.00  0.00     0.210 C 
ATOM     15  C   LIG d   1      -1.075  82.871 111.302  0.00  0.00     0.109 C 
ATOM     16  O   LIG d   1       0.144  80.809 111.050  0.00  0.00    -0.276 OA
ATOM     17  H   LIG d   1      -2.165  81.474 113.102  0.00  0.00     0.149 HD
ENDBRANCH   6  13
BRANCH   5  18
ATOM     18  N   LIG d   1      -1.915  78.354 111.068  0.00  0.00     0.381 N 
ATOM     19  H   LIG d   1      -2.225  77.455 110.759  0.00  0.00    -0.090 HD
ATOM     20  H   LIG d   1      -0.923  78.414 110.920  0.00  0.00    -0.090 HD
ATOM     21  H   LIG d   1      -2.379  79.069 110.552  0.00  0.00    -0.090 HD
ENDBRANCH   5  18
BRANCH   3  22
ATOM     22  C   LIG d   1      -2.576  76.052 115.215  0.00  0.00     0.382 C 
ATOM     23  O   LIG d   1      -2.096  75.726 116.328  0.00  0.00    -0.241 OA
ATOM     24  O   LIG d   1      -3.440  75.328 114.685  0.00  0.00    -0.241 OA
ENDBRANCH   3  22
TORSDOF 7
ENDMDL
MODEL 4
REMARK VINA RESULT:      -4.1      3.869      5.526
REMARK  7 active torsions:
REMARK  status: ('A' for Active; 'I' for Inactive)
REMARK    1  A    between atoms: C_2  and  C_3 
REMARK    2  A    between atoms: C_3  and  O_6 
REMARK    3  A    between atoms: C_3  and  C_4 
REMARK    4  A    between atoms: C_7  and  O_6 
REMARK    5  A    between atoms: C_9  and  C_10 
REMARK    6  A    between atoms: N_15  and  C_14 
REMARK    7  A    between atoms: N_20  and  C_19 
REMARK       I    between atoms: C_22  and  N_20 
ROOT
ATOM      1  C   LIG d   1       0.776  81.104 113.305  0.00  0.00     0.161 C 
ATOM      2  C   LIG d   1      -0.326  80.333 113.711  0.00  0.00     0.016 C 
ATOM      3  C   LIG d   1      -1.306  79.843 112.817  0.00  0.00     0.038 C 
ATOM      4  C   LIG d   1      -1.167  79.965 111.427  0.00  0.00     0.028 C 
ATOM      5  C   LIG d   1      -0.334  81.170 111.004  0.00  0.00    -0.047 C 
ATOM      6  C   LIG d   1       1.003  81.152 111.779  0.00  0.00     0.091 C 
ENDROOT
BRANCH   1   7
ATOM      7  O   LIG d   1       1.967  80.645 113.974  0.00  0.00    -0.368 OA
BRANCH   7   8
ATOM      8  C   LIG d   1       1.987  80.800 115.415  0.00  0.00     0.119 C 
BRANCH   8   9
ATOM      9  C   LIG d   1       2.531  82.209 115.722  0.00  0.00     0.028 C 
ATOM     10  C   LIG d   1       1.966  82.783 117.032  0.00  0.00     0.006 C 
ENDBRANCH   8   9
BRANCH   8  11
ATOM     11  C   LIG d   1       2.981  79.832 116.065  0.00  0.00     0.028 C 
ATOM     12  C   LIG d   1       2.338  78.963 117.158  0.00  0.00     0.006 C 
ENDBRANCH   8  11
ENDBRANCH   7   8
ENDBRANCH   1   7
BRANCH   6  13
ATOM     13  N   LIG d   1       1.843  82.343 111.488  0.00  0.00    -0.311 N 
ATOM     14  C   LIG d   1       2.767  82.372 110.528  0.00  0.00     0.210 C 
ATOM     15  C   LIG d   1       3.534  83.692 110.409  0.00  0.00     0.109 C 
ATOM     16  O   LIG d   1       3.001  81.440 109.744  0.00  0.00    -0.276 OA
ATOM     17  H   LIG d   1       1.698  83.154 112.056  0.00  0.00     0.149 HD
ENDBRANCH   6  13
BRANCH   5  18
ATOM     18  N   LIG d   1      -0.156  81.098 109.542  0.00  0.00     0.381 N 
ATOM     19  H   LIG d   1      -1.017  80.831 109.108  0.00  0.00    -0.090 HD
ATOM     20  H   LIG d   1       0.533  80.396 109.332  0.00  0.00    -0.090 HD
ATOM     21  H   LIG d   1       0.142  81.981 109.190  0.00  0.00    -0.090 HD
ENDBRANCH   5  18
BRANCH   3  22
ATOM     22  C   LIG d   1      -2.460  79.258 113.316  0.00  0.00     0.382 C 
ATOM     23  O   LIG d   1      -3.058  78.382 112.646  0.00  0.00    -0.241 OA
ATOM     24  O   LIG d   1      -2.935  79.627 114.407  0.00  0.00    -0.241 OA
ENDBRANCH   3  22
TORSDOF 7
ENDMDL
MODEL 5
REMARK VINA RESULT:      -4.0      2.732      5.423
REMARK  7 active torsions:
REMARK  status: ('A' for Active; 'I' for Inactive)
REMARK    1  A    between atoms: C_2  and  C_3 
REMARK    2  A    between atoms: C_3  and  O_6 
REMARK    3  A    between atoms: C_3  and  C_4 
REMARK    4  A    between atoms: C_7  and  O_6 
REMARK    5  A    between atoms: C_9  and  C_10 
REMARK    6  A    between atoms: N_15  and  C_14 
REMARK    7  A    between atoms: N_20  and  C_19 
REMARK       I    between atoms: C_22  and  N_20 
ROOT
ATOM      1  C   LIG d   1      -0.740  79.953 113.112  0.00  0.00     0.161 C 
ATOM      2  C   LIG d   1      -1.596  79.186 112.304  0.00  0.00     0.016 C 
ATOM      3  C   LIG d   1      -2.385  78.122 112.798  0.00  0.00     0.038 C 
ATOM      4  C   LIG d   1      -2.486  77.848 114.170  0.00  0.00     0.028 C 
ATOM      5  C   LIG d   1      -1.254  78.269 114.964  0.00  0.00    -0.047 C 
ATOM      6  C   LIG d   1      -0.921  79.741 114.630  0.00  0.00     0.091 C 
ENDROOT
BRANCH   1   7
ATOM      7  O   LIG d   1      -0.877  81.349 112.781  0.00  0.00    -0.368 OA
BRANCH   7   8
ATOM      8  C   LIG d   1      -0.364  81.751 111.487  0.00  0.00     0.119 C 
BRANCH   8   9
ATOM      9  C   LIG d   1       1.164  81.902 111.621  0.00  0.00     0.028 C 
ATOM     10  C   LIG d   1       1.932  80.880 110.766  0.00  0.00     0.006 C 
ENDBRANCH   8   9
BRANCH   8  11
ATOM     11  C   LIG d   1      -0.875  83.139 111.091  0.00  0.00     0.028 C 
ATOM     12  C   LIG d   1       0.221  84.216 111.146  0.00  0.00     0.006 C 
ENDBRANCH   8  11
ENDBRANCH   7   8
ENDBRANCH   1   7
BRANCH   6  13
ATOM     13  N   LIG d   1       0.321  80.208 115.300  0.00  0.00    -0.311 N 
ATOM     14  C   LIG d   1       0.338  80.751 116.516  0.00  0.00     0.210 C 
ATOM     15  C   LIG d   1       1.721  81.182 117.013  0.00  0.00     0.109 C 
ATOM     16  O   LIG d   1      -0.657  80.888 117.244  0.00  0.00    -0.276 OA
ATOM     17  H   LIG d   1       1.178  80.106 114.794  0.00  0.00     0.149 HD
ENDBRANCH   6  13
BRANCH   5  18
ATOM     18  N   LIG d   1      -1.550  78.054 116.393  0.00  0.00     0.381 N 
ATOM     19  H   LIG d   1      -1.077  77.234 116.717  0.00  0.00    -0.090 HD
ATOM     20  H   LIG d   1      -2.539  77.911 116.503  0.00  0.00    -0.090 HD
ATOM     21  H   LIG d   1      -1.260  78.845 116.924  0.00  0.00    -0.090 HD
ENDBRANCH   5  18
BRANCH   3  22
ATOM     22  C   LIG d   1      -3.053  77.293 111.910  0.00  0.00     0.382 C 
ATOM     23  O   LIG d   1      -3.433  76.155 112.279  0.00  0.00    -0.241 OA
ATOM     24  O   LIG d   1      -3.242  77.650 110.732  0.00  0.00    -0.241 OA
ENDBRANCH   3  22
TORSDOF 7
ENDMDL
MODEL 6
REMARK VINA RESULT:      -3.8      3.695      6.114
REMARK  7 active torsions:
REMARK  status: ('A' for Active; 'I' for Inactive)
REMARK    1  A    between atoms: C_2  and  C_3 
REMARK    2  A    between atoms: C_3  and  O_6 
REMARK    3  A    between atoms: C_3  and  C_4 
REMARK    4  A    between atoms: C_7  and  O_6 
REMARK    5  A    between atoms: C_9  and  C_10 
REMARK    6  A    between atoms: N_15  and  C_14 
REMARK    7  A    between atoms: N_20  and  C_19 
REMARK       I    between atoms: C_22  and  N_20 
ROOT
ATOM      1  C   LIG d   1       1.094  80.868 113.210  0.00  0.00     0.161 C 
ATOM      2  C   LIG d   1       0.041  80.503 112.354  0.00  0.00     0.016 C 
ATOM      3  C   LIG d   1      -1.166  79.925 112.808  0.00  0.00     0.038 C 
ATOM      4  C   LIG d   1      -1.466  79.811 114.174  0.00  0.00     0.028 C 
ATOM      5  C   LIG d   1      -0.228  79.700 115.059  0.00  0.00    -0.047 C 
ATOM      6  C   LIG d   1       0.741  80.854 114.712  0.00  0.00     0.091 C 
ENDROOT
BRANCH   1   7
ATOM      7  O   LIG d   1       1.609  82.159 112.828  0.00  0.00    -0.368 OA
BRANCH   7   8
ATOM      8  C   LIG d   1       1.304  82.594 111.480  0.00  0.00     0.119 C 
BRANCH   8   9
ATOM      9  C   LIG d   1       2.641  82.904 110.780  0.00  0.00     0.028 C 
ATOM     10  C   LIG d   1       3.174  81.707 109.976  0.00  0.00     0.006 C 
ENDBRANCH   8   9
BRANCH   8  11
ATOM     11  C   LIG d   1       0.531  83.916 111.483  0.00  0.00     0.028 C 
ATOM     12  C   LIG d   1      -0.795  83.833 110.710  0.00  0.00     0.006 C 
ENDBRANCH   8  11
ENDBRANCH   7   8
ENDBRANCH   1   7
BRANCH   6  13
ATOM     13  N   LIG d   1       2.015  80.771 115.473  0.00  0.00    -0.311 N 
ATOM     14  C   LIG d   1       2.258  81.479 116.575  0.00  0.00     0.210 C 
ATOM     15  C   LIG d   1       3.642  81.259 117.192  0.00  0.00     0.109 C 
ATOM     16  O   LIG d   1       1.446  82.243 117.118  0.00  0.00    -0.276 OA
ATOM     17  H   LIG d   1       2.718  80.152 115.120  0.00  0.00     0.149 HD
ENDBRANCH   6  13
BRANCH   5  18
ATOM     18  N   LIG d   1      -0.680  79.727 116.462  0.00  0.00     0.381 N 
ATOM     19  H   LIG d   1      -0.683  80.669 116.799  0.00  0.00    -0.090 HD
ATOM     20  H   LIG d   1      -0.037  79.195 117.021  0.00  0.00    -0.090 HD
ATOM     21  H   LIG d   1      -1.594  79.338 116.534  0.00  0.00    -0.090 HD
ENDBRANCH   5  18
BRANCH   3  22
ATOM     22  C   LIG d   1      -2.073  79.417 111.891  0.00  0.00     0.382 C 
ATOM     23  O   LIG d   1      -3.238  79.127 112.255  0.00  0.00    -0.241 OA
ATOM     24  O   LIG d   1      -1.727  79.203 110.713  0.00  0.00    -0.241 OA
ENDBRANCH   3  22
TORSDOF 7
ENDMDL
MODEL 7
REMARK VINA RESULT:      -3.7      2.124      5.104
REMARK  7 active torsions:
REMARK  status: ('A' for Active; 'I' for Inactive)
REMARK    1  A    between atoms: C_2  and  C_3 
REMARK    2  A    between atoms: C_3  and  O_6 
REMARK    3  A    between atoms: C_3  and  C_4 
REMARK    4  A    between atoms: C_7  and  O_6 
REMARK    5  A    between atoms: C_9  and  C_10 
REMARK    6  A    between atoms: N_15  and  C_14 
REMARK    7  A    between atoms: N_20  and  C_19 
REMARK       I    between atoms: C_22  and  N_20 
ROOT
ATOM      1  C   LIG d   1      -2.930  78.232 116.532  0.00  0.00     0.161 C 
ATOM      2  C   LIG d   1      -2.844  77.352 117.624  0.00  0.00     0.016 C 
ATOM      3  C   LIG d   1      -2.153  76.119 117.576  0.00  0.00     0.038 C 
ATOM      4  C   LIG d   1      -1.368  75.751 116.473  0.00  0.00     0.028 C 
ATOM      5  C   LIG d   1      -1.837  76.373 115.162  0.00  0.00    -0.047 C 
ATOM      6  C   LIG d   1      -1.988  77.899 115.357  0.00  0.00     0.091 C 
ENDROOT
BRANCH   1   7
ATOM      7  O   LIG d   1      -2.716  79.586 116.978  0.00  0.00    -0.368 OA
BRANCH   7   8
ATOM      8  C   LIG d   1      -1.766  79.758 118.059  0.00  0.00     0.119 C 
BRANCH   8   9
ATOM      9  C   LIG d   1      -2.318  80.856 118.989  0.00  0.00     0.028 C 
ATOM     10  C   LIG d   1      -1.542  82.178 118.860  0.00  0.00     0.006 C 
ENDBRANCH   8   9
BRANCH   8  11
ATOM     11  C   LIG d   1      -0.428  80.297 117.544  0.00  0.00     0.028 C 
ATOM     12  C   LIG d   1       0.689  79.242 117.573  0.00  0.00     0.006 C 
ENDBRANCH   8  11
ENDBRANCH   7   8
ENDBRANCH   1   7
BRANCH   6  13
ATOM     13  N   LIG d   1      -2.523  78.574 114.146  0.00  0.00    -0.311 N 
ATOM     14  C   LIG d   1      -1.983  79.672 113.620  0.00  0.00     0.210 C 
ATOM     15  C   LIG d   1      -2.704  80.218 112.383  0.00  0.00     0.109 C 
ATOM     16  O   LIG d   1      -0.958  80.228 114.041  0.00  0.00    -0.276 OA
ATOM     17  H   LIG d   1      -3.336  78.172 113.721  0.00  0.00     0.149 HD
ENDBRANCH   6  13
BRANCH   5  18
ATOM     18  N   LIG d   1      -0.852  76.017 114.123  0.00  0.00     0.381 N 
ATOM     19  H   LIG d   1      -1.321  75.628 113.330  0.00  0.00    -0.090 HD
ATOM     20  H   LIG d   1      -0.227  75.323 114.492  0.00  0.00    -0.090 HD
ATOM     21  H   LIG d   1      -0.337  76.826 113.850  0.00  0.00    -0.090 HD
ENDBRANCH   5  18
BRANCH   3  22
ATOM     22  C   LIG d   1      -2.275  75.222 118.626  0.00  0.00     0.382 C 
ATOM     23  O   LIG d   1      -1.313  75.040 119.411  0.00  0.00    -0.241 OA
ATOM     24  O   LIG d   1      -3.320  74.560 118.773  0.00  0.00    -0.241 OA
ENDBRANCH   3  22
TORSDOF 7
ENDMDL
MODEL 8
REMARK VINA RESULT:      -3.7      1.850      2.422
REMARK  7 active torsions:
REMARK  status: ('A' for Active; 'I' for Inactive)
REMARK    1  A    between atoms: C_2  and  C_3 
REMARK    2  A    between atoms: C_3  and  O_6 
REMARK    3  A    between atoms: C_3  and  C_4 
REMARK    4  A    between atoms: C_7  and  O_6 
REMARK    5  A    between atoms: C_9  and  C_10 
REMARK    6  A    between atoms: N_15  and  C_14 
REMARK    7  A    between atoms: N_20  and  C_19 
REMARK       I    between atoms: C_22  and  N_20 
ROOT
ATOM      1  C   LIG d   1      -0.866  79.129 115.652  0.00  0.00     0.161 C 
ATOM      2  C   LIG d   1      -1.397  79.795 114.535  0.00  0.00     0.016 C 
ATOM      3  C   LIG d   1      -2.200  79.160 113.560  0.00  0.00     0.038 C 
ATOM      4  C   LIG d   1      -2.654  77.843 113.717  0.00  0.00     0.028 C 
ATOM      5  C   LIG d   1      -1.731  76.981 114.572  0.00  0.00    -0.047 C 
ATOM      6  C   LIG d   1      -1.442  77.720 115.899  0.00  0.00     0.091 C 
ENDROOT
BRANCH   1   7
ATOM      7  O   LIG d   1      -1.022  79.948 116.828  0.00  0.00    -0.368 OA
BRANCH   7   8
ATOM      8  C   LIG d   1       0.202  80.402 117.456  0.00  0.00     0.119 C 
BRANCH   8   9
ATOM      9  C   LIG d   1      -0.055  81.822 117.997  0.00  0.00     0.028 C 
ATOM     10  C   LIG d   1      -1.405  81.938 118.724  0.00  0.00     0.006 C 
ENDBRANCH   8   9
BRANCH   8  11
ATOM     11  C   LIG d   1       1.329  80.556 116.431  0.00  0.00     0.028 C 
ATOM     12  C   LIG d   1       2.443  81.502 116.908  0.00  0.00     0.006 C 
ENDBRANCH   8  11
ENDBRANCH   7   8
ENDBRANCH   1   7
BRANCH   6  13
ATOM     13  N   LIG d   1      -0.479  76.984 116.759  0.00  0.00    -0.311 N 
ATOM     14  C   LIG d   1      -0.850  76.127 117.709  0.00  0.00     0.210 C 
ATOM     15  C   LIG d   1       0.302  75.492 118.493  0.00  0.00     0.109 C 
ATOM     16  O   LIG d   1      -2.023  75.809 117.955  0.00  0.00    -0.276 OA
ATOM     17  H   LIG d   1       0.495  77.159 116.606  0.00  0.00     0.149 HD
ENDBRANCH   6  13
BRANCH   5  18
ATOM     18  N   LIG d   1      -2.392  75.677 114.767  0.00  0.00     0.381 N 
ATOM     19  H   LIG d   1      -2.237  75.356 115.702  0.00  0.00    -0.090 HD
ATOM     20  H   LIG d   1      -1.988  75.010 114.133  0.00  0.00    -0.090 HD
ATOM     21  H   LIG d   1      -3.369  75.761 114.594  0.00  0.00    -0.090 HD
ENDBRANCH   5  18
BRANCH   3  22
ATOM     22  C   LIG d   1      -2.523  79.834 112.392  0.00  0.00     0.382 C 
ATOM     23  O   LIG d   1      -3.440  80.691 112.395  0.00  0.00    -0.241 OA
ATOM     24  O   LIG d   1      -1.941  79.563 111.324  0.00  0.00    -0.241 OA
ENDBRANCH   3  22
TORSDOF 7
ENDMDL
MODEL 9
REMARK VINA RESULT:      -3.6      2.188      4.640
REMARK  7 active torsions:
REMARK  status: ('A' for Active; 'I' for Inactive)
REMARK    1  A    between atoms: C_2  and  C_3 
REMARK    2  A    between atoms: C_3  and  O_6 
REMARK    3  A    between atoms: C_3  and  C_4 
REMARK    4  A    between atoms: C_7  and  O_6 
REMARK    5  A    between atoms: C_9  and  C_10 
REMARK    6  A    between atoms: N_15  and  C_14 
REMARK    7  A    between atoms: N_20  and  C_19 
REMARK       I    between atoms: C_22  and  N_20 
ROOT
ATOM      1  C   LIG d   1      -1.780  78.687 116.351  0.00  0.00     0.161 C 
ATOM      2  C   LIG d   1      -0.921  79.782 116.545  0.00  0.00     0.016 C 
ATOM      3  C   LIG d   1       0.431  79.650 116.939  0.00  0.00     0.038 C 
ATOM      4  C   LIG d   1       1.061  78.399 117.018  0.00  0.00     0.028 C 
ATOM      5  C   LIG d   1       0.100  77.255 117.322  0.00  0.00    -0.047 C 
ATOM      6  C   LIG d   1      -1.080  77.312 116.325  0.00  0.00     0.091 C 
ENDROOT
BRANCH   1   7
ATOM      7  O   LIG d   1      -2.552  78.880 115.149  0.00  0.00    -0.368 OA
BRANCH   7   8
ATOM      8  C   LIG d   1      -1.916  78.474 113.912  0.00  0.00     0.119 C 
BRANCH   8   9
ATOM      9  C   LIG d   1      -1.513  79.756 113.157  0.00  0.00     0.028 C 
ATOM     10  C   LIG d   1      -2.730  80.533 112.629  0.00  0.00     0.006 C 
ENDBRANCH   8   9
BRANCH   8  11
ATOM     11  C   LIG d   1      -2.902  77.753 112.988  0.00  0.00     0.028 C 
ATOM     12  C   LIG d   1      -2.207  76.805 111.998  0.00  0.00     0.006 C 
ENDBRANCH   8  11
ENDBRANCH   7   8
ENDBRANCH   1   7
BRANCH   6  13
ATOM     13  N   LIG d   1      -2.110  76.278 116.605  0.00  0.00    -0.311 N 
ATOM     14  C   LIG d   1      -2.311  75.215 115.829  0.00  0.00     0.210 C 
ATOM     15  C   LIG d   1      -3.437  74.283 116.288  0.00  0.00     0.109 C 
ATOM     16  O   LIG d   1      -1.644  74.938 114.821  0.00  0.00    -0.276 OA
ATOM     17  H   LIG d   1      -2.676  76.408 117.421  0.00  0.00     0.149 HD
ENDBRANCH   6  13
BRANCH   5  18
ATOM     18  N   LIG d   1       0.865  75.996 117.240  0.00  0.00     0.381 N 
ATOM     19  H   LIG d   1       0.316  75.242 117.602  0.00  0.00    -0.090 HD
ATOM     20  H   LIG d   1       1.693  76.082 117.802  0.00  0.00    -0.090 HD
ATOM     21  H   LIG d   1       1.115  75.810 116.294  0.00  0.00    -0.090 HD
ENDBRANCH   5  18
BRANCH   3  22
ATOM     22  C   LIG d   1       1.156  80.776 117.296  0.00  0.00     0.382 C 
ATOM     23  O   LIG d   1       2.340  80.660 117.693  0.00  0.00    -0.241 OA
ATOM     24  O   LIG d   1       0.626  81.903 117.268  0.00  0.00    -0.241 OA
ENDBRANCH   3  22
TORSDOF 7
ENDMDL
