MODEL 1
REMARK VINA RESULT:      -5.3      0.000      0.000
REMARK  7 active torsions:
REMARK  status: ('A' for Active; 'I' for Inactive)
REMARK    1  A    between atoms: C_2  and  C_3 
REMARK    2  A    between atoms: C_3  and  O_6 
REMARK    3  A    between atoms: C_3  and  C_4 
REMARK    4  A    between atoms: C_7  and  O_6 
REMARK    5  A    between atoms: C_9  and  C_10 
REMARK    6  A    between atoms: N_15  and  C_14 
REMARK    7  A    between atoms: N_20  and  C_19 
REMARK       I    between atoms: C_22  and  N_20 
ROOT
ATOM      1  C   LIG d   1       0.396  80.988 111.845  0.00  0.00     0.161 C 
ATOM      2  C   LIG d   1      -0.346  79.890 111.377  0.00  0.00     0.016 C 
ATOM      3  C   LIG d   1      -1.555  79.459 111.969  0.00  0.00     0.038 C 
ATOM      4  C   LIG d   1      -2.187  80.193 112.984  0.00  0.00     0.028 C 
ATOM      5  C   LIG d   1      -1.220  81.022 113.824  0.00  0.00    -0.047 C 
ATOM      6  C   LIG d   1      -0.334  81.868 112.881  0.00  0.00     0.091 C 
ENDROOT
BRANCH   1   7
ATOM      7  O   LIG d   1       0.839  81.788 110.731  0.00  0.00    -0.368 OA
BRANCH   7   8
ATOM      8  C   LIG d   1       2.273  81.940 110.586  0.00  0.00     0.119 C 
BRANCH   8   9
ATOM      9  C   LIG d   1       2.545  83.399 110.173  0.00  0.00     0.028 C 
ATOM     10  C   LIG d   1       3.821  83.964 110.820  0.00  0.00     0.006 C 
ENDBRANCH   8   9
BRANCH   8  11
ATOM     11  C   LIG d   1       2.810  81.086 109.433  0.00  0.00     0.028 C 
ATOM     12  C   LIG d   1       3.411  79.754 109.909  0.00  0.00     0.006 C 
ENDBRANCH   8  11
ENDBRANCH   7   8
ENDBRANCH   1   7
BRANCH   6  13
ATOM     13  N   LIG d   1       0.696  82.645 113.617  0.00  0.00    -0.311 N 
ATOM     14  C   LIG d   1       0.892  83.951 113.445  0.00  0.00     0.210 C 
ATOM     15  C   LIG d   1       2.019  84.553 114.289  0.00  0.00     0.109 C 
ATOM     16  O   LIG d   1       0.217  84.674 112.697  0.00  0.00    -0.276 OA
ATOM     17  H   LIG d   1       1.269  82.142 114.267  0.00  0.00     0.149 HD
ENDBRANCH   6  13
BRANCH   5  18
ATOM     18  N   LIG d   1      -2.024  81.840 114.751  0.00  0.00     0.381 N 
ATOM     19  H   LIG d   1      -2.729  82.335 114.242  0.00  0.00    -0.090 HD
ATOM     20  H   LIG d   1      -1.424  82.513 115.194  0.00  0.00    -0.090 HD
ATOM     21  H   LIG d   1      -2.448  81.258 115.439  0.00  0.00    -0.090 HD
ENDBRANCH   5  18
BRANCH   3  22
ATOM     22  C   LIG d   1      -2.125  78.259 111.573  0.00  0.00     0.382 C 
ATOM     23  O   LIG d   1      -3.039  77.742 112.259  0.00  0.00    -0.241 OA
ATOM     24  O   LIG d   1      -1.705  77.664 110.562  0.00  0.00    -0.241 OA
ENDBRANCH   3  22
TORSDOF 7
ENDMDL
MODEL 2
REMARK VINA RESULT:      -5.2      2.009      4.104
REMARK  7 active torsions:
REMARK  status: ('A' for Active; 'I' for Inactive)
REMARK    1  A    between atoms: C_2  and  C_3 
REMARK    2  A    between atoms: C_3  and  O_6 
REMARK    3  A    between atoms: C_3  and  C_4 
REMARK    4  A    between atoms: C_7  and  O_6 
REMARK    5  A    between atoms: C_9  and  C_10 
REMARK    6  A    between atoms: N_15  and  C_14 
REMARK    7  A    between atoms: N_20  and  C_19 
REMARK       I    between atoms: C_22  and  N_20 
ROOT
ATOM      1  C   LIG d   1      -1.179  82.118 112.445  0.00  0.00     0.161 C 
ATOM      2  C   LIG d   1      -1.933  81.002 112.844  0.00  0.00     0.016 C 
ATOM      3  C   LIG d   1      -1.693  79.691 112.371  0.00  0.00     0.038 C 
ATOM      4  C   LIG d   1      -0.579  79.381 111.578  0.00  0.00     0.028 C 
ATOM      5  C   LIG d   1      -0.084  80.558 110.743  0.00  0.00    -0.047 C 
ATOM      6  C   LIG d   1       0.110  81.782 111.666  0.00  0.00     0.091 C 
ENDROOT
BRANCH   1   7
ATOM      7  O   LIG d   1      -0.873  82.936 113.591  0.00  0.00    -0.368 OA
BRANCH   7   8
ATOM      8  C   LIG d   1       0.015  82.350 114.574  0.00  0.00     0.119 C 
BRANCH   8   9
ATOM      9  C   LIG d   1      -0.765  82.243 115.899  0.00  0.00     0.028 C 
ATOM     10  C   LIG d   1       0.147  82.372 117.130  0.00  0.00     0.006 C 
ENDBRANCH   8   9
BRANCH   8  11
ATOM     11  C   LIG d   1       1.200  83.272 114.875  0.00  0.00     0.028 C 
ATOM     12  C   LIG d   1       1.081  84.640 114.184  0.00  0.00     0.006 C 
ENDBRANCH   8  11
ENDBRANCH   7   8
ENDBRANCH   1   7
BRANCH   6  13
ATOM     13  N   LIG d   1       0.513  83.000 110.916  0.00  0.00    -0.311 N 
ATOM     14  C   LIG d   1       1.779  83.383 110.765  0.00  0.00     0.210 C 
ATOM     15  C   LIG d   1       1.973  84.680 109.973  0.00  0.00     0.109 C 
ATOM     16  O   LIG d   1       2.763  82.755 111.185  0.00  0.00    -0.276 OA
ATOM     17  H   LIG d   1      -0.220  83.552 110.515  0.00  0.00     0.149 HD
ENDBRANCH   6  13
BRANCH   5  18
ATOM     18  N   LIG d   1       1.160  80.136 110.072  0.00  0.00     0.381 N 
ATOM     19  H   LIG d   1       1.367  80.761 109.318  0.00  0.00    -0.090 HD
ATOM     20  H   LIG d   1       1.028  79.215 109.691  0.00  0.00    -0.090 HD
ATOM     21  H   LIG d   1       1.914  80.129 110.724  0.00  0.00    -0.090 HD
ENDBRANCH   5  18
BRANCH   3  22
ATOM     22  C   LIG d   1      -2.598  78.680 112.660  0.00  0.00     0.382 C 
ATOM     23  O   LIG d   1      -3.010  78.525 113.835  0.00  0.00    -0.241 OA
ATOM     24  O   LIG d   1      -2.972  77.894 111.769  0.00  0.00    -0.241 OA
ENDBRANCH   3  22
TORSDOF 7
ENDMDL
MODEL 3
REMARK VINA RESULT:      -5.1      0.985      1.889
REMARK  7 active torsions:
REMARK  status: ('A' for Active; 'I' for Inactive)
REMARK    1  A    between atoms: C_2  and  C_3 
REMARK    2  A    between atoms: C_3  and  O_6 
REMARK    3  A    between atoms: C_3  and  C_4 
REMARK    4  A    between atoms: C_7  and  O_6 
REMARK    5  A    between atoms: C_9  and  C_10 
REMARK    6  A    between atoms: N_15  and  C_14 
REMARK    7  A    between atoms: N_20  and  C_19 
REMARK       I    between atoms: C_22  and  N_20 
ROOT
ATOM      1  C   LIG d   1      -0.061  81.308 111.415  0.00  0.00     0.161 C 
ATOM      2  C   LIG d   1      -0.572  80.019 111.188  0.00  0.00     0.016 C 
ATOM      3  C   LIG d   1      -1.648  79.468 111.922  0.00  0.00     0.038 C 
ATOM      4  C   LIG d   1      -2.389  80.231 112.837  0.00  0.00     0.028 C 
ATOM      5  C   LIG d   1      -1.592  81.372 113.460  0.00  0.00    -0.047 C 
ATOM      6  C   LIG d   1      -0.929  82.195 112.332  0.00  0.00     0.091 C 
ENDROOT
BRANCH   1   7
ATOM      7  O   LIG d   1       0.174  81.969 110.156  0.00  0.00    -0.368 OA
BRANCH   7   8
ATOM      8  C   LIG d   1       1.562  82.154 109.782  0.00  0.00     0.119 C 
BRANCH   8   9
ATOM      9  C   LIG d   1       2.410  81.243 110.690  0.00  0.00     0.028 C 
ATOM     10  C   LIG d   1       3.064  80.086 109.915  0.00  0.00     0.006 C 
ENDBRANCH   8   9
BRANCH   8  11
ATOM     11  C   LIG d   1       2.035  83.579 110.082  0.00  0.00     0.028 C 
ATOM     12  C   LIG d   1       3.508  83.639 110.516  0.00  0.00     0.006 C 
ENDBRANCH   8  11
ENDBRANCH   7   8
ENDBRANCH   1   7
BRANCH   6  13
ATOM     13  N   LIG d   1      -0.061  83.281 112.859  0.00  0.00    -0.311 N 
ATOM     14  C   LIG d   1       0.969  83.066 113.675  0.00  0.00     0.210 C 
ATOM     15  C   LIG d   1       1.719  84.327 114.115  0.00  0.00     0.109 C 
ATOM     16  O   LIG d   1       1.353  81.948 114.050  0.00  0.00    -0.276 OA
ATOM     17  H   LIG d   1      -0.282  84.217 112.580  0.00  0.00     0.149 HD
ENDBRANCH   6  13
BRANCH   5  18
ATOM     18  N   LIG d   1      -2.521  82.165 114.286  0.00  0.00     0.381 N 
ATOM     19  H   LIG d   1      -2.860  82.946 113.759  0.00  0.00    -0.090 HD
ATOM     20  H   LIG d   1      -2.026  82.516 115.087  0.00  0.00    -0.090 HD
ATOM     21  H   LIG d   1      -3.285  81.598 114.581  0.00  0.00    -0.090 HD
ENDBRANCH   5  18
BRANCH   3  22
ATOM     22  C   LIG d   1      -1.966  78.127 111.772  0.00  0.00     0.382 C 
ATOM     23  O   LIG d   1      -1.486  77.472 110.815  0.00  0.00    -0.241 OA
ATOM     24  O   LIG d   1      -2.762  77.575 112.555  0.00  0.00    -0.241 OA
ENDBRANCH   3  22
TORSDOF 7
ENDMDL
MODEL 4
REMARK VINA RESULT:      -4.9      2.495      5.935
REMARK  7 active torsions:
REMARK  status: ('A' for Active; 'I' for Inactive)
REMARK    1  A    between atoms: C_2  and  C_3 
REMARK    2  A    between atoms: C_3  and  O_6 
REMARK    3  A    between atoms: C_3  and  C_4 
REMARK    4  A    between atoms: C_7  and  O_6 
REMARK    5  A    between atoms: C_9  and  C_10 
REMARK    6  A    between atoms: N_15  and  C_14 
REMARK    7  A    between atoms: N_20  and  C_19 
REMARK       I    between atoms: C_22  and  N_20 
ROOT
ATOM      1  C   LIG d   1      -0.657  81.362 112.574  0.00  0.00     0.161 C 
ATOM      2  C   LIG d   1      -0.225  82.431 111.772  0.00  0.00     0.016 C 
ATOM      3  C   LIG d   1       0.316  82.263 110.477  0.00  0.00     0.038 C 
ATOM      4  C   LIG d   1       0.321  81.018 109.831  0.00  0.00     0.028 C 
ATOM      5  C   LIG d   1       0.360  79.836 110.795  0.00  0.00    -0.047 C 
ATOM      6  C   LIG d   1      -0.762  80.007 111.844  0.00  0.00     0.091 C 
ENDROOT
BRANCH   1   7
ATOM      7  O   LIG d   1      -1.914  81.695 113.196  0.00  0.00    -0.368 OA
BRANCH   7   8
ATOM      8  C   LIG d   1      -1.851  82.094 114.587  0.00  0.00     0.119 C 
BRANCH   8   9
ATOM      9  C   LIG d   1      -0.485  81.641 115.138  0.00  0.00     0.028 C 
ATOM     10  C   LIG d   1       0.345  82.813 115.687  0.00  0.00     0.006 C 
ENDBRANCH   8   9
BRANCH   8  11
ATOM     11  C   LIG d   1      -2.894  81.352 115.428  0.00  0.00     0.028 C 
ATOM     12  C   LIG d   1      -2.742  81.615 116.935  0.00  0.00     0.006 C 
ENDBRANCH   8  11
ENDBRANCH   7   8
ENDBRANCH   1   7
BRANCH   6  13
ATOM     13  N   LIG d   1      -0.741  78.937 112.876  0.00  0.00    -0.311 N 
ATOM     14  C   LIG d   1      -1.674  77.991 112.970  0.00  0.00     0.210 C 
ATOM     15  C   LIG d   1      -1.473  76.997 114.118  0.00  0.00     0.109 C 
ATOM     16  O   LIG d   1      -2.631  77.862 112.192  0.00  0.00    -0.276 OA
ATOM     17  H   LIG d   1       0.017  78.948 113.529  0.00  0.00     0.149 HD
ENDBRANCH   6  13
BRANCH   5  18
ATOM     18  N   LIG d   1       0.222  78.604 109.996  0.00  0.00     0.381 N 
ATOM     19  H   LIG d   1       0.739  78.694 109.144  0.00  0.00    -0.090 HD
ATOM     20  H   LIG d   1      -0.747  78.473 109.765  0.00  0.00    -0.090 HD
ATOM     21  H   LIG d   1       0.557  77.822 110.515  0.00  0.00    -0.090 HD
ENDBRANCH   5  18
BRANCH   3  22
ATOM     22  C   LIG d   1       0.895  83.343 109.829  0.00  0.00     0.382 C 
ATOM     23  O   LIG d   1       0.218  84.374 109.600  0.00  0.00    -0.241 OA
ATOM     24  O   LIG d   1       2.074  83.282 109.430  0.00  0.00    -0.241 OA
ENDBRANCH   3  22
TORSDOF 7
ENDMDL
MODEL 5
REMARK VINA RESULT:      -4.9      2.811      6.505
REMARK  7 active torsions:
REMARK  status: ('A' for Active; 'I' for Inactive)
REMARK    1  A    between atoms: C_2  and  C_3 
REMARK    2  A    between atoms: C_3  and  O_6 
REMARK    3  A    between atoms: C_3  and  C_4 
REMARK    4  A    between atoms: C_7  and  O_6 
REMARK    5  A    between atoms: C_9  and  C_10 
REMARK    6  A    between atoms: N_15  and  C_14 
REMARK    7  A    between atoms: N_20  and  C_19 
REMARK       I    between atoms: C_22  and  N_20 
ROOT
ATOM      1  C   LIG d   1      -1.626  80.816 113.932  0.00  0.00     0.161 C 
ATOM      2  C   LIG d   1      -1.530  82.123 113.424  0.00  0.00     0.016 C 
ATOM      3  C   LIG d   1      -0.945  82.431 112.175  0.00  0.00     0.038 C 
ATOM      4  C   LIG d   1      -0.549  81.430 111.275  0.00  0.00     0.028 C 
ATOM      5  C   LIG d   1      -0.164  80.121 111.955  0.00  0.00    -0.047 C 
ATOM      6  C   LIG d   1      -1.300  79.702 112.916  0.00  0.00     0.091 C 
ENDROOT
BRANCH   1   7
ATOM      7  O   LIG d   1      -2.933  80.608 114.502  0.00  0.00    -0.368 OA
BRANCH   7   8
ATOM      8  C   LIG d   1      -2.992  80.519 115.947  0.00  0.00     0.119 C 
BRANCH   8   9
ATOM      9  C   LIG d   1      -1.557  80.693 116.480  0.00  0.00     0.028 C 
ATOM     10  C   LIG d   1      -1.413  81.927 117.386  0.00  0.00     0.006 C 
ENDBRANCH   8   9
BRANCH   8  11
ATOM     11  C   LIG d   1      -3.428  79.123 116.402  0.00  0.00     0.028 C 
ATOM     12  C   LIG d   1      -3.347  78.941 117.926  0.00  0.00     0.006 C 
ENDBRANCH   8  11
ENDBRANCH   7   8
ENDBRANCH   1   7
BRANCH   6  13
ATOM     13  N   LIG d   1      -0.968  78.475 113.685  0.00  0.00    -0.311 N 
ATOM     14  C   LIG d   1      -1.763  77.408 113.744  0.00  0.00     0.210 C 
ATOM     15  C   LIG d   1      -1.240  76.258 114.610  0.00  0.00     0.109 C 
ATOM     16  O   LIG d   1      -2.838  77.293 113.136  0.00  0.00    -0.276 OA
ATOM     17  H   LIG d   1      -0.099  78.470 114.184  0.00  0.00     0.149 HD
ENDBRANCH   6  13
BRANCH   5  18
ATOM     18  N   LIG d   1       0.094  79.127 110.896  0.00  0.00     0.381 N 
ATOM     19  H   LIG d   1      -0.743  78.965 110.372  0.00  0.00    -0.090 HD
ATOM     20  H   LIG d   1       0.371  78.261 111.324  0.00  0.00    -0.090 HD
ATOM     21  H   LIG d   1       0.815  79.453 110.291  0.00  0.00    -0.090 HD
ENDBRANCH   5  18
BRANCH   3  22
ATOM     22  C   LIG d   1      -0.714  83.754 111.831  0.00  0.00     0.382 C 
ATOM     23  O   LIG d   1       0.021  84.470 112.554  0.00  0.00    -0.241 OA
ATOM     24  O   LIG d   1      -1.267  84.254 110.833  0.00  0.00    -0.241 OA
ENDBRANCH   3  22
TORSDOF 7
ENDMDL
MODEL 6
REMARK VINA RESULT:      -4.8      3.192      6.938
REMARK  7 active torsions:
REMARK  status: ('A' for Active; 'I' for Inactive)
REMARK    1  A    between atoms: C_2  and  C_3 
REMARK    2  A    between atoms: C_3  and  O_6 
REMARK    3  A    between atoms: C_3  and  C_4 
REMARK    4  A    between atoms: C_7  and  O_6 
REMARK    5  A    between atoms: C_9  and  C_10 
REMARK    6  A    between atoms: N_15  and  C_14 
REMARK    7  A    between atoms: N_20  and  C_19 
REMARK       I    between atoms: C_22  and  N_20 
ROOT
ATOM      1  C   LIG d   1      -1.585  80.246 114.393  0.00  0.00     0.161 C 
ATOM      2  C   LIG d   1      -1.615  81.560 113.896  0.00  0.00     0.016 C 
ATOM      3  C   LIG d   1      -1.287  81.896 112.563  0.00  0.00     0.038 C 
ATOM      4  C   LIG d   1      -1.051  80.915 111.588  0.00  0.00     0.028 C 
ATOM      5  C   LIG d   1      -0.516  79.607 112.162  0.00  0.00    -0.047 C 
ATOM      6  C   LIG d   1      -1.438  79.151 113.315  0.00  0.00     0.091 C 
ENDROOT
BRANCH   1   7
ATOM      7  O   LIG d   1      -2.755  80.002 115.199  0.00  0.00    -0.368 OA
BRANCH   7   8
ATOM      8  C   LIG d   1      -2.519  79.766 116.609  0.00  0.00     0.119 C 
BRANCH   8   9
ATOM      9  C   LIG d   1      -3.438  78.608 117.044  0.00  0.00     0.028 C 
ATOM     10  C   LIG d   1      -3.195  78.182 118.502  0.00  0.00     0.006 C 
ENDBRANCH   8   9
BRANCH   8  11
ATOM     11  C   LIG d   1      -2.952  80.967 117.455  0.00  0.00     0.028 C 
ATOM     12  C   LIG d   1      -1.779  81.890 117.823  0.00  0.00     0.006 C 
ENDBRANCH   8  11
ENDBRANCH   7   8
ENDBRANCH   1   7
BRANCH   6  13
ATOM     13  N   LIG d   1      -0.940  77.923 113.988  0.00  0.00    -0.311 N 
ATOM     14  C   LIG d   1      -1.712  76.874 114.265  0.00  0.00     0.210 C 
ATOM     15  C   LIG d   1      -1.003  75.720 114.980  0.00  0.00     0.109 C 
ATOM     16  O   LIG d   1      -2.910  76.777 113.957  0.00  0.00    -0.276 OA
ATOM     17  H   LIG d   1       0.028  77.904 114.244  0.00  0.00     0.149 HD
ENDBRANCH   6  13
BRANCH   5  18
ATOM     18  N   LIG d   1      -0.446  78.632 111.057  0.00  0.00     0.381 N 
ATOM     19  H   LIG d   1      -0.068  77.768 111.392  0.00  0.00    -0.090 HD
ATOM     20  H   LIG d   1       0.167  78.989 110.346  0.00  0.00    -0.090 HD
ATOM     21  H   LIG d   1      -1.355  78.480 110.678  0.00  0.00    -0.090 HD
ENDBRANCH   5  18
BRANCH   3  22
ATOM     22  C   LIG d   1      -1.153  83.228 112.202  0.00  0.00     0.382 C 
ATOM     23  O   LIG d   1      -0.863  84.086 113.071  0.00  0.00    -0.241 OA
ATOM     24  O   LIG d   1      -1.361  83.589 111.029  0.00  0.00    -0.241 OA
ENDBRANCH   3  22
TORSDOF 7
ENDMDL
MODEL 7
REMARK VINA RESULT:      -4.8      2.035      3.148
REMARK  7 active torsions:
REMARK  status: ('A' for Active; 'I' for Inactive)
REMARK    1  A    between atoms: C_2  and  C_3 
REMARK    2  A    between atoms: C_3  and  O_6 
REMARK    3  A    between atoms: C_3  and  C_4 
REMARK    4  A    between atoms: C_7  and  O_6 
REMARK    5  A    between atoms: C_9  and  C_10 
REMARK    6  A    between atoms: N_15  and  C_14 
REMARK    7  A    between atoms: N_20  and  C_19 
REMARK       I    between atoms: C_22  and  N_20 
ROOT
ATOM      1  C   LIG d   1      -0.716  80.306 112.401  0.00  0.00     0.161 C 
ATOM      2  C   LIG d   1      -1.226  79.163 113.039  0.00  0.00     0.016 C 
ATOM      3  C   LIG d   1      -1.850  79.193 114.307  0.00  0.00     0.038 C 
ATOM      4  C   LIG d   1      -2.144  80.400 114.961  0.00  0.00     0.028 C 
ATOM      5  C   LIG d   1      -1.198  81.536 114.588  0.00  0.00    -0.047 C 
ATOM      6  C   LIG d   1      -1.127  81.646 113.048  0.00  0.00     0.091 C 
ENDROOT
BRANCH   1   7
ATOM      7  O   LIG d   1      -1.081  80.291 111.006  0.00  0.00    -0.368 OA
BRANCH   7   8
ATOM      8  C   LIG d   1       0.012  80.167 110.063  0.00  0.00     0.119 C 
BRANCH   8   9
ATOM      9  C   LIG d   1      -0.079  78.765 109.431  0.00  0.00     0.028 C 
ATOM     10  C   LIG d   1      -1.401  78.053 109.768  0.00  0.00     0.006 C 
ENDBRANCH   8   9
BRANCH   8  11
ATOM     11  C   LIG d   1       1.368  80.204 110.773  0.00  0.00     0.028 C 
ATOM     12  C   LIG d   1       2.525  79.746 109.872  0.00  0.00     0.006 C 
ENDBRANCH   8  11
ENDBRANCH   7   8
ENDBRANCH   1   7
BRANCH   6  13
ATOM     13  N   LIG d   1      -0.159  82.679 112.597  0.00  0.00    -0.311 N 
ATOM     14  C   LIG d   1      -0.414  83.545 111.618  0.00  0.00     0.210 C 
ATOM     15  C   LIG d   1       0.729  84.513 111.298  0.00  0.00     0.109 C 
ATOM     16  O   LIG d   1      -1.490  83.625 111.007  0.00  0.00    -0.276 OA
ATOM     17  H   LIG d   1       0.729  82.705 113.060  0.00  0.00     0.149 HD
ENDBRANCH   6  13
BRANCH   5  18
ATOM     18  N   LIG d   1      -1.702  82.764 115.232  0.00  0.00     0.381 N 
ATOM     19  H   LIG d   1      -1.154  83.549 114.940  0.00  0.00    -0.090 HD
ATOM     20  H   LIG d   1      -1.611  82.669 116.228  0.00  0.00    -0.090 HD
ATOM     21  H   LIG d   1      -2.657  82.909 114.991  0.00  0.00    -0.090 HD
ENDBRANCH   5  18
BRANCH   3  22
ATOM     22  C   LIG d   1      -2.151  78.004 114.954  0.00  0.00     0.382 C 
ATOM     23  O   LIG d   1      -3.332  77.759 115.298  0.00  0.00    -0.241 OA
ATOM     24  O   LIG d   1      -1.249  77.193 115.236  0.00  0.00    -0.241 OA
ENDBRANCH   3  22
TORSDOF 7
ENDMDL
MODEL 8
REMARK VINA RESULT:      -4.6      2.277      3.354
REMARK  7 active torsions:
REMARK  status: ('A' for Active; 'I' for Inactive)
REMARK    1  A    between atoms: C_2  and  C_3 
REMARK    2  A    between atoms: C_3  and  O_6 
REMARK    3  A    between atoms: C_3  and  C_4 
REMARK    4  A    between atoms: C_7  and  O_6 
REMARK    5  A    between atoms: C_9  and  C_10 
REMARK    6  A    between atoms: N_15  and  C_14 
REMARK    7  A    between atoms: N_20  and  C_19 
REMARK       I    between atoms: C_22  and  N_20 
ROOT
ATOM      1  C   LIG d   1      -0.844  81.334 112.570  0.00  0.00     0.161 C 
ATOM      2  C   LIG d   1      -0.975  80.552 111.411  0.00  0.00     0.016 C 
ATOM      3  C   LIG d   1      -1.283  79.172 111.435  0.00  0.00     0.038 C 
ATOM      4  C   LIG d   1      -1.632  78.510 112.621  0.00  0.00     0.028 C 
ATOM      5  C   LIG d   1      -1.021  79.141 113.868  0.00  0.00    -0.047 C 
ATOM      6  C   LIG d   1      -1.330  80.655 113.868  0.00  0.00     0.091 C 
ENDROOT
BRANCH   1   7
ATOM      7  O   LIG d   1      -1.513  82.597 112.385  0.00  0.00    -0.368 OA
BRANCH   7   8
ATOM      8  C   LIG d   1      -0.657  83.757 112.238  0.00  0.00     0.119 C 
BRANCH   8   9
ATOM      9  C   LIG d   1      -0.702  84.182 110.758  0.00  0.00     0.028 C 
ATOM     10  C   LIG d   1       0.595  83.834 110.008  0.00  0.00     0.006 C 
ENDBRANCH   8   9
BRANCH   8  11
ATOM     11  C   LIG d   1       0.808  83.406 112.515  0.00  0.00     0.028 C 
ATOM     12  C   LIG d   1       1.363  84.111 113.763  0.00  0.00     0.006 C 
ENDBRANCH   8  11
ENDBRANCH   7   8
ENDBRANCH   1   7
BRANCH   6  13
ATOM     13  N   LIG d   1      -0.697  81.363 115.010  0.00  0.00    -0.311 N 
ATOM     14  C   LIG d   1      -1.307  81.563 116.178  0.00  0.00     0.210 C 
ATOM     15  C   LIG d   1      -0.483  82.333 117.214  0.00  0.00     0.109 C 
ATOM     16  O   LIG d   1      -2.439  81.147 116.464  0.00  0.00    -0.276 OA
ATOM     17  H   LIG d   1       0.233  81.707 114.875  0.00  0.00     0.149 HD
ENDBRANCH   6  13
BRANCH   5  18
ATOM     18  N   LIG d   1      -1.576  78.438 115.040  0.00  0.00     0.381 N 
ATOM     19  H   LIG d   1      -2.399  78.909 115.359  0.00  0.00    -0.090 HD
ATOM     20  H   LIG d   1      -0.897  78.453 115.781  0.00  0.00    -0.090 HD
ATOM     21  H   LIG d   1      -1.795  77.496 114.801  0.00  0.00    -0.090 HD
ENDBRANCH   5  18
BRANCH   3  22
ATOM     22  C   LIG d   1      -1.204  78.430 110.266  0.00  0.00     0.382 C 
ATOM     23  O   LIG d   1      -0.300  78.670 109.430  0.00  0.00    -0.241 OA
ATOM     24  O   LIG d   1      -2.053  77.554 110.015  0.00  0.00    -0.241 OA
ENDBRANCH   3  22
TORSDOF 7
ENDMDL
MODEL 9
REMARK VINA RESULT:      -4.5      2.780      4.834
REMARK  7 active torsions:
REMARK  status: ('A' for Active; 'I' for Inactive)
REMARK    1  A    between atoms: C_2  and  C_3 
REMARK    2  A    between atoms: C_3  and  O_6 
REMARK    3  A    between atoms: C_3  and  C_4 
REMARK    4  A    between atoms: C_7  and  O_6 
REMARK    5  A    between atoms: C_9  and  C_10 
REMARK    6  A    between atoms: N_15  and  C_14 
REMARK    7  A    between atoms: N_20  and  C_19 
REMARK       I    between atoms: C_22  and  N_20 
ROOT
ATOM      1  C   LIG d   1      -2.136  80.901 114.130  0.00  0.00     0.161 C 
ATOM      2  C   LIG d   1      -2.459  79.711 114.803  0.00  0.00     0.016 C 
ATOM      3  C   LIG d   1      -2.182  78.425 114.286  0.00  0.00     0.038 C 
ATOM      4  C   LIG d   1      -1.422  78.242 113.121  0.00  0.00     0.028 C 
ATOM      5  C   LIG d   1      -1.513  79.413 112.148  0.00  0.00    -0.047 C 
ATOM      6  C   LIG d   1      -1.208  80.723 112.910  0.00  0.00     0.091 C 
ENDROOT
BRANCH   1   7
ATOM      7  O   LIG d   1      -1.569  81.848 115.056  0.00  0.00    -0.368 OA
BRANCH   7   8
ATOM      8  C   LIG d   1      -0.652  81.308 116.039  0.00  0.00     0.119 C 
BRANCH   8   9
ATOM      9  C   LIG d   1      -0.920  82.034 117.371  0.00  0.00     0.028 C 
ATOM     10  C   LIG d   1      -2.313  81.719 117.941  0.00  0.00     0.006 C 
ENDBRANCH   8   9
BRANCH   8  11
ATOM     11  C   LIG d   1       0.802  81.637 115.684  0.00  0.00     0.028 C 
ATOM     12  C   LIG d   1       1.058  83.147 115.558  0.00  0.00     0.006 C 
ENDBRANCH   8  11
ENDBRANCH   7   8
ENDBRANCH   1   7
BRANCH   6  13
ATOM     13  N   LIG d   1      -1.358  81.926 112.051  0.00  0.00    -0.311 N 
ATOM     14  C   LIG d   1      -0.348  82.740 111.746  0.00  0.00     0.210 C 
ATOM     15  C   LIG d   1      -0.724  83.934 110.863  0.00  0.00     0.109 C 
ATOM     16  O   LIG d   1       0.829  82.568 112.098  0.00  0.00    -0.276 OA
ATOM     17  H   LIG d   1      -2.273  82.123 111.697  0.00  0.00     0.149 HD
ENDBRANCH   6  13
BRANCH   5  18
ATOM     18  N   LIG d   1      -0.568  79.151 111.046  0.00  0.00     0.381 N 
ATOM     19  H   LIG d   1      -0.005  79.962 110.883  0.00  0.00    -0.090 HD
ATOM     20  H   LIG d   1      -1.090  78.956 110.210  0.00  0.00    -0.090 HD
ATOM     21  H   LIG d   1       0.013  78.374 111.272  0.00  0.00    -0.090 HD
ENDBRANCH   5  18
BRANCH   3  22
ATOM     22  C   LIG d   1      -2.702  77.304 114.916  0.00  0.00     0.382 C 
ATOM     23  O   LIG d   1      -2.873  77.306 116.159  0.00  0.00    -0.241 OA
ATOM     24  O   LIG d   1      -2.961  76.276 114.263  0.00  0.00    -0.241 OA
ENDBRANCH   3  22
TORSDOF 7
ENDMDL
