MODEL 1
REMARK VINA RESULT:      -5.3      0.000      0.000
REMARK  7 active torsions:
REMARK  status: ('A' for Active; 'I' for Inactive)
REMARK    1  A    between atoms: C_2  and  C_3 
REMARK    2  A    between atoms: C_3  and  O_6 
REMARK    3  A    between atoms: C_3  and  C_4 
REMARK    4  A    between atoms: C_7  and  O_6 
REMARK    5  A    between atoms: C_9  and  C_10 
REMARK    6  A    between atoms: N_15  and  C_14 
REMARK    7  A    between atoms: N_20  and  C_19 
REMARK       I    between atoms: C_22  and  N_20 
ROOT
ATOM      1  C   LIG d   1       0.380  83.080 112.252  0.00  0.00     0.161 C 
ATOM      2  C   LIG d   1      -0.861  82.750 112.821  0.00  0.00     0.016 C 
ATOM      3  C   LIG d   1      -1.482  81.491 112.655  0.00  0.00     0.038 C 
ATOM      4  C   LIG d   1      -0.829  80.418 112.029  0.00  0.00     0.028 C 
ATOM      5  C   LIG d   1       0.210  80.858 111.004  0.00  0.00    -0.047 C 
ATOM      6  C   LIG d   1       1.159  81.887 111.660  0.00  0.00     0.091 C 
ENDROOT
BRANCH   1   7
ATOM      7  O   LIG d   1       1.191  83.777 113.220  0.00  0.00    -0.368 OA
BRANCH   7   8
ATOM      8  C   LIG d   1       2.225  82.994 113.866  0.00  0.00     0.119 C 
BRANCH   8   9
ATOM      9  C   LIG d   1       1.654  82.488 115.205  0.00  0.00     0.028 C 
ATOM     10  C   LIG d   1       1.586  80.953 115.271  0.00  0.00     0.006 C 
ENDBRANCH   8   9
BRANCH   8  11
ATOM     11  C   LIG d   1       3.429  83.863 114.241  0.00  0.00     0.028 C 
ATOM     12  C   LIG d   1       4.218  84.350 113.015  0.00  0.00     0.006 C 
ENDBRANCH   8  11
ENDBRANCH   7   8
ENDBRANCH   1   7
BRANCH   6  13
ATOM     13  N   LIG d   1       2.155  82.432 110.701  0.00  0.00    -0.311 N 
ATOM     14  C   LIG d   1       3.366  81.906 110.524  0.00  0.00     0.210 C 
ATOM     15  C   LIG d   1       4.244  82.634 109.501  0.00  0.00     0.109 C 
ATOM     16  O   LIG d   1       3.784  80.887 111.093  0.00  0.00    -0.276 OA
ATOM     17  H   LIG d   1       1.886  83.240 110.174  0.00  0.00     0.149 HD
ENDBRANCH   6  13
BRANCH   5  18
ATOM     18  N   LIG d   1       0.909  79.647 110.531  0.00  0.00     0.381 N 
ATOM     19  H   LIG d   1       1.889  79.730 110.711  0.00  0.00    -0.090 HD
ATOM     20  H   LIG d   1       0.776  79.563 109.538  0.00  0.00    -0.090 HD
ATOM     21  H   LIG d   1       0.546  78.842 110.991  0.00  0.00    -0.090 HD
ENDBRANCH   5  18
BRANCH   3  22
ATOM     22  C   LIG d   1      -2.788  81.307 113.083  0.00  0.00     0.382 C 
ATOM     23  O   LIG d   1      -3.307  82.124 113.881  0.00  0.00    -0.241 OA
ATOM     24  O   LIG d   1      -3.439  80.310 112.717  0.00  0.00    -0.241 OA
ENDBRANCH   3  22
TORSDOF 7
ENDMDL
MODEL 2
REMARK VINA RESULT:      -4.9      2.033      5.186
REMARK  7 active torsions:
REMARK  status: ('A' for Active; 'I' for Inactive)
REMARK    1  A    between atoms: C_2  and  C_3 
REMARK    2  A    between atoms: C_3  and  O_6 
REMARK    3  A    between atoms: C_3  and  C_4 
REMARK    4  A    between atoms: C_7  and  O_6 
REMARK    5  A    between atoms: C_9  and  C_10 
REMARK    6  A    between atoms: N_15  and  C_14 
REMARK    7  A    between atoms: N_20  and  C_19 
REMARK       I    between atoms: C_22  and  N_20 
ROOT
ATOM      1  C   LIG d   1       0.742  81.066 113.013  0.00  0.00     0.161 C 
ATOM      2  C   LIG d   1       1.769  81.928 112.595  0.00  0.00     0.016 C 
ATOM      3  C   LIG d   1       2.062  82.189 111.237  0.00  0.00     0.038 C 
ATOM      4  C   LIG d   1       1.244  81.719 110.199  0.00  0.00     0.028 C 
ATOM      5  C   LIG d   1       0.497  80.436 110.549  0.00  0.00    -0.047 C 
ATOM      6  C   LIG d   1      -0.232  80.632 111.898  0.00  0.00     0.091 C 
ENDROOT
BRANCH   1   7
ATOM      7  O   LIG d   1       0.017  81.665 114.106  0.00  0.00    -0.368 OA
BRANCH   7   8
ATOM      8  C   LIG d   1      -0.998  82.633 113.744  0.00  0.00     0.119 C 
BRANCH   8   9
ATOM      9  C   LIG d   1      -0.398  84.036 113.960  0.00  0.00     0.028 C 
ATOM     10  C   LIG d   1       0.252  84.189 115.345  0.00  0.00     0.006 C 
ENDBRANCH   8   9
BRANCH   8  11
ATOM     11  C   LIG d   1      -2.202  82.557 114.688  0.00  0.00     0.028 C 
ATOM     12  C   LIG d   1      -2.149  81.341 115.626  0.00  0.00     0.006 C 
ENDBRANCH   8  11
ENDBRANCH   7   8
ENDBRANCH   1   7
BRANCH   6  13
ATOM     13  N   LIG d   1      -0.919  79.397 112.356  0.00  0.00    -0.311 N 
ATOM     14  C   LIG d   1      -2.237  79.311 112.530  0.00  0.00     0.210 C 
ATOM     15  C   LIG d   1      -2.737  77.952 113.027  0.00  0.00     0.109 C 
ATOM     16  O   LIG d   1      -3.042  80.223 112.289  0.00  0.00    -0.276 OA
ATOM     17  H   LIG d   1      -0.344  78.599 112.545  0.00  0.00     0.149 HD
ENDBRANCH   6  13
BRANCH   5  18
ATOM     18  N   LIG d   1      -0.421  80.136 109.434  0.00  0.00     0.381 N 
ATOM     19  H   LIG d   1      -0.874  79.258 109.595  0.00  0.00    -0.090 HD
ATOM     20  H   LIG d   1       0.112  80.064 108.585  0.00  0.00    -0.090 HD
ATOM     21  H   LIG d   1      -1.101  80.858 109.348  0.00  0.00    -0.090 HD
ENDBRANCH   5  18
BRANCH   3  22
ATOM     22  C   LIG d   1       3.208  82.894 110.904  0.00  0.00     0.382 C 
ATOM     23  O   LIG d   1       3.284  83.480 109.797  0.00  0.00    -0.241 OA
ATOM     24  O   LIG d   1       4.184  82.916 111.678  0.00  0.00    -0.241 OA
ENDBRANCH   3  22
TORSDOF 7
ENDMDL
MODEL 3
REMARK VINA RESULT:      -4.7      2.204      5.140
REMARK  7 active torsions:
REMARK  status: ('A' for Active; 'I' for Inactive)
REMARK    1  A    between atoms: C_2  and  C_3 
REMARK    2  A    between atoms: C_3  and  O_6 
REMARK    3  A    between atoms: C_3  and  C_4 
REMARK    4  A    between atoms: C_7  and  O_6 
REMARK    5  A    between atoms: C_9  and  C_10 
REMARK    6  A    between atoms: N_15  and  C_14 
REMARK    7  A    between atoms: N_20  and  C_19 
REMARK       I    between atoms: C_22  and  N_20 
ROOT
ATOM      1  C   LIG d   1       0.162  83.139 112.856  0.00  0.00     0.161 C 
ATOM      2  C   LIG d   1       1.122  83.633 111.957  0.00  0.00     0.016 C 
ATOM      3  C   LIG d   1       1.530  82.940 110.795  0.00  0.00     0.038 C 
ATOM      4  C   LIG d   1       0.890  81.766 110.369  0.00  0.00     0.028 C 
ATOM      5  C   LIG d   1       0.264  80.970 111.509  0.00  0.00    -0.047 C 
ATOM      6  C   LIG d   1      -0.627  81.913 112.349  0.00  0.00     0.091 C 
ENDROOT
BRANCH   1   7
ATOM      7  O   LIG d   1      -0.742  84.195 113.234  0.00  0.00    -0.368 OA
BRANCH   7   8
ATOM      8  C   LIG d   1      -0.644  84.659 114.603  0.00  0.00     0.119 C 
BRANCH   8   9
ATOM      9  C   LIG d   1       0.449  83.824 115.297  0.00  0.00     0.028 C 
ATOM     10  C   LIG d   1       1.647  84.679 115.743  0.00  0.00     0.006 C 
ENDBRANCH   8   9
BRANCH   8  11
ATOM     11  C   LIG d   1      -1.930  84.371 115.383  0.00  0.00     0.028 C 
ATOM     12  C   LIG d   1      -1.671  83.651 116.715  0.00  0.00     0.006 C 
ENDBRANCH   8  11
ENDBRANCH   7   8
ENDBRANCH   1   7
BRANCH   6  13
ATOM     13  N   LIG d   1      -1.211  81.233 113.535  0.00  0.00    -0.311 N 
ATOM     14  C   LIG d   1      -2.515  81.228 113.808  0.00  0.00     0.210 C 
ATOM     15  C   LIG d   1      -2.903  80.485 115.090  0.00  0.00     0.109 C 
ATOM     16  O   LIG d   1      -3.389  81.739 113.093  0.00  0.00    -0.276 OA
ATOM     17  H   LIG d   1      -0.576  80.767 114.152  0.00  0.00     0.149 HD
ENDBRANCH   6  13
BRANCH   5  18
ATOM     18  N   LIG d   1      -0.485  79.849 110.910  0.00  0.00     0.381 N 
ATOM     19  H   LIG d   1      -0.211  78.989 111.343  0.00  0.00    -0.090 HD
ATOM     20  H   LIG d   1      -0.262  79.794 109.932  0.00  0.00    -0.090 HD
ATOM     21  H   LIG d   1      -1.464  79.991 111.028  0.00  0.00    -0.090 HD
ENDBRANCH   5  18
BRANCH   3  22
ATOM     22  C   LIG d   1       2.616  83.400 110.065  0.00  0.00     0.382 C 
ATOM     23  O   LIG d   1       3.350  82.587 109.454  0.00  0.00    -0.241 OA
ATOM     24  O   LIG d   1       2.897  84.613 110.048  0.00  0.00    -0.241 OA
ENDBRANCH   3  22
TORSDOF 7
ENDMDL
MODEL 4
REMARK VINA RESULT:      -4.4      2.476      3.468
REMARK  7 active torsions:
REMARK  status: ('A' for Active; 'I' for Inactive)
REMARK    1  A    between atoms: C_2  and  C_3 
REMARK    2  A    between atoms: C_3  and  O_6 
REMARK    3  A    between atoms: C_3  and  C_4 
REMARK    4  A    between atoms: C_7  and  O_6 
REMARK    5  A    between atoms: C_9  and  C_10 
REMARK    6  A    between atoms: N_15  and  C_14 
REMARK    7  A    between atoms: N_20  and  C_19 
REMARK       I    between atoms: C_22  and  N_20 
ROOT
ATOM      1  C   LIG d   1      -2.130  81.727 112.877  0.00  0.00     0.161 C 
ATOM      2  C   LIG d   1      -2.645  80.578 113.499  0.00  0.00     0.016 C 
ATOM      3  C   LIG d   1      -2.169  79.273 113.240  0.00  0.00     0.038 C 
ATOM      4  C   LIG d   1      -1.035  79.041 112.447  0.00  0.00     0.028 C 
ATOM      5  C   LIG d   1      -0.796  80.124 111.400  0.00  0.00    -0.047 C 
ATOM      6  C   LIG d   1      -0.819  81.506 112.094  0.00  0.00     0.091 C 
ENDROOT
BRANCH   1   7
ATOM      7  O   LIG d   1      -1.960  82.776 113.851  0.00  0.00    -0.368 OA
BRANCH   7   8
ATOM      8  C   LIG d   1      -1.755  82.347 115.220  0.00  0.00     0.119 C 
BRANCH   8   9
ATOM      9  C   LIG d   1      -2.487  83.350 116.133  0.00  0.00     0.028 C 
ATOM     10  C   LIG d   1      -1.522  84.127 117.044  0.00  0.00     0.006 C 
ENDBRANCH   8   9
BRANCH   8  11
ATOM     11  C   LIG d   1      -0.279  82.439 115.618  0.00  0.00     0.028 C 
ATOM     12  C   LIG d   1       0.424  81.073 115.618  0.00  0.00     0.006 C 
ENDBRANCH   8  11
ENDBRANCH   7   8
ENDBRANCH   1   7
BRANCH   6  13
ATOM     13  N   LIG d   1      -0.677  82.627 111.128  0.00  0.00    -0.311 N 
ATOM     14  C   LIG d   1       0.495  83.171 110.804  0.00  0.00     0.210 C 
ATOM     15  C   LIG d   1       0.415  84.329 109.804  0.00  0.00     0.109 C 
ATOM     16  O   LIG d   1       1.595  82.783 111.224  0.00  0.00    -0.276 OA
ATOM     17  H   LIG d   1      -1.517  82.983 110.715  0.00  0.00     0.149 HD
ENDBRANCH   6  13
BRANCH   5  18
ATOM     18  N   LIG d   1       0.490  79.830 110.740  0.00  0.00     0.381 N 
ATOM     19  H   LIG d   1       0.443  78.938 110.289  0.00  0.00    -0.090 HD
ATOM     20  H   LIG d   1       1.212  79.794 111.437  0.00  0.00    -0.090 HD
ATOM     21  H   LIG d   1       0.699  80.538 110.070  0.00  0.00    -0.090 HD
ENDBRANCH   5  18
BRANCH   3  22
ATOM     22  C   LIG d   1      -2.854  78.178 113.744  0.00  0.00     0.382 C 
ATOM     23  O   LIG d   1      -3.083  77.188 113.008  0.00  0.00    -0.241 OA
ATOM     24  O   LIG d   1      -3.285  78.187 114.913  0.00  0.00    -0.241 OA
ENDBRANCH   3  22
TORSDOF 7
ENDMDL
MODEL 5
REMARK VINA RESULT:      -4.2      2.221      5.155
REMARK  7 active torsions:
REMARK  status: ('A' for Active; 'I' for Inactive)
REMARK    1  A    between atoms: C_2  and  C_3 
REMARK    2  A    between atoms: C_3  and  O_6 
REMARK    3  A    between atoms: C_3  and  C_4 
REMARK    4  A    between atoms: C_7  and  O_6 
REMARK    5  A    between atoms: C_9  and  C_10 
REMARK    6  A    between atoms: N_15  and  C_14 
REMARK    7  A    between atoms: N_20  and  C_19 
REMARK       I    between atoms: C_22  and  N_20 
ROOT
ATOM      1  C   LIG d   1      -0.749  81.834 112.183  0.00  0.00     0.161 C 
ATOM      2  C   LIG d   1      -0.252  82.978 112.830  0.00  0.00     0.016 C 
ATOM      3  C   LIG d   1       0.365  82.946 114.102  0.00  0.00     0.038 C 
ATOM      4  C   LIG d   1       0.665  81.739 114.751  0.00  0.00     0.028 C 
ATOM      5  C   LIG d   1      -0.269  80.597 114.367  0.00  0.00    -0.047 C 
ATOM      6  C   LIG d   1      -0.331  80.495 112.826  0.00  0.00     0.091 C 
ENDROOT
BRANCH   1   7
ATOM      7  O   LIG d   1      -0.377  81.860 110.791  0.00  0.00    -0.368 OA
BRANCH   7   8
ATOM      8  C   LIG d   1       0.918  81.295 110.467  0.00  0.00     0.119 C 
BRANCH   8   9
ATOM      9  C   LIG d   1       1.745  82.398 109.779  0.00  0.00     0.028 C 
ATOM     10  C   LIG d   1       2.921  82.877 110.646  0.00  0.00     0.006 C 
ENDBRANCH   8   9
BRANCH   8  11
ATOM     11  C   LIG d   1       0.793  80.175 109.430  0.00  0.00     0.028 C 
ATOM     12  C   LIG d   1       1.994  79.216 109.441  0.00  0.00     0.006 C 
ENDBRANCH   8  11
ENDBRANCH   7   8
ENDBRANCH   1   7
BRANCH   6  13
ATOM     13  N   LIG d   1      -1.288  79.456 112.364  0.00  0.00    -0.311 N 
ATOM     14  C   LIG d   1      -2.590  79.483 112.643  0.00  0.00     0.210 C 
ATOM     15  C   LIG d   1      -3.396  78.305 112.087  0.00  0.00     0.109 C 
ATOM     16  O   LIG d   1      -3.160  80.388 113.272  0.00  0.00    -0.276 OA
ATOM     17  H   LIG d   1      -0.916  78.702 111.821  0.00  0.00     0.149 HD
ENDBRANCH   6  13
BRANCH   5  18
ATOM     18  N   LIG d   1       0.240  79.370 115.008  0.00  0.00     0.381 N 
ATOM     19  H   LIG d   1       0.413  79.541 115.978  0.00  0.00    -0.090 HD
ATOM     20  H   LIG d   1       1.110  79.113 114.573  0.00  0.00    -0.090 HD
ATOM     21  H   LIG d   1      -0.421  78.632 114.905  0.00  0.00    -0.090 HD
ENDBRANCH   5  18
BRANCH   3  22
ATOM     22  C   LIG d   1       0.653  84.135 114.756  0.00  0.00     0.382 C 
ATOM     23  O   LIG d   1       1.795  84.644 114.656  0.00  0.00    -0.241 OA
ATOM     24  O   LIG d   1      -0.202  84.680 115.480  0.00  0.00    -0.241 OA
ENDBRANCH   3  22
TORSDOF 7
ENDMDL
MODEL 6
REMARK VINA RESULT:      -4.2      1.464      2.229
REMARK  7 active torsions:
REMARK  status: ('A' for Active; 'I' for Inactive)
REMARK    1  A    between atoms: C_2  and  C_3 
REMARK    2  A    between atoms: C_3  and  O_6 
REMARK    3  A    between atoms: C_3  and  C_4 
REMARK    4  A    between atoms: C_7  and  O_6 
REMARK    5  A    between atoms: C_9  and  C_10 
REMARK    6  A    between atoms: N_15  and  C_14 
REMARK    7  A    between atoms: N_20  and  C_19 
REMARK       I    between atoms: C_22  and  N_20 
ROOT
ATOM      1  C   LIG d   1       1.337  82.798 113.168  0.00  0.00     0.161 C 
ATOM      2  C   LIG d   1       0.063  82.617 113.732  0.00  0.00     0.016 C 
ATOM      3  C   LIG d   1      -1.055  82.159 112.998  0.00  0.00     0.038 C 
ATOM      4  C   LIG d   1      -0.938  81.704 111.676  0.00  0.00     0.028 C 
ATOM      5  C   LIG d   1       0.220  82.342 110.916  0.00  0.00    -0.047 C 
ATOM      6  C   LIG d   1       1.510  82.202 111.756  0.00  0.00     0.091 C 
ENDROOT
BRANCH   1   7
ATOM      7  O   LIG d   1       2.344  82.278 114.059  0.00  0.00    -0.368 OA
BRANCH   7   8
ATOM      8  C   LIG d   1       1.916  82.008 115.416  0.00  0.00     0.119 C 
BRANCH   8   9
ATOM      9  C   LIG d   1       2.797  82.852 116.356  0.00  0.00     0.028 C 
ATOM     10  C   LIG d   1       2.125  84.176 116.759  0.00  0.00     0.006 C 
ENDBRANCH   8   9
BRANCH   8  11
ATOM     11  C   LIG d   1       2.186  80.551 115.806  0.00  0.00     0.028 C 
ATOM     12  C   LIG d   1       3.254  80.417 116.904  0.00  0.00     0.006 C 
ENDBRANCH   8  11
ENDBRANCH   7   8
ENDBRANCH   1   7
BRANCH   6  13
ATOM     13  N   LIG d   1       2.674  82.874 111.123  0.00  0.00    -0.311 N 
ATOM     14  C   LIG d   1       3.541  82.246 110.330  0.00  0.00     0.210 C 
ATOM     15  C   LIG d   1       4.681  83.121 109.798  0.00  0.00     0.109 C 
ATOM     16  O   LIG d   1       3.456  81.056 109.990  0.00  0.00    -0.276 OA
ATOM     17  H   LIG d   1       2.801  83.847 111.320  0.00  0.00     0.149 HD
ENDBRANCH   6  13
BRANCH   5  18
ATOM     18  N   LIG d   1       0.310  81.678 109.602  0.00  0.00     0.381 N 
ATOM     19  H   LIG d   1       0.697  82.310 108.929  0.00  0.00    -0.090 HD
ATOM     20  H   LIG d   1      -0.615  81.425 109.301  0.00  0.00    -0.090 HD
ATOM     21  H   LIG d   1       0.880  80.864 109.670  0.00  0.00    -0.090 HD
ENDBRANCH   5  18
BRANCH   3  22
ATOM     22  C   LIG d   1      -2.316  82.191 113.574  0.00  0.00     0.382 C 
ATOM     23  O   LIG d   1      -3.292  81.680 112.975  0.00  0.00    -0.241 OA
ATOM     24  O   LIG d   1      -2.497  82.764 114.665  0.00  0.00    -0.241 OA
ENDBRANCH   3  22
TORSDOF 7
ENDMDL
MODEL 7
REMARK VINA RESULT:      -4.1      4.261      6.644
REMARK  7 active torsions:
REMARK  status: ('A' for Active; 'I' for Inactive)
REMARK    1  A    between atoms: C_2  and  C_3 
REMARK    2  A    between atoms: C_3  and  O_6 
REMARK    3  A    between atoms: C_3  and  C_4 
REMARK    4  A    between atoms: C_7  and  O_6 
REMARK    5  A    between atoms: C_9  and  C_10 
REMARK    6  A    between atoms: N_15  and  C_14 
REMARK    7  A    between atoms: N_20  and  C_19 
REMARK       I    between atoms: C_22  and  N_20 
ROOT
ATOM      1  C   LIG d   1      -2.013  79.760 116.146  0.00  0.00     0.161 C 
ATOM      2  C   LIG d   1      -2.527  80.388 114.999  0.00  0.00     0.016 C 
ATOM      3  C   LIG d   1      -1.713  80.903 113.964  0.00  0.00     0.038 C 
ATOM      4  C   LIG d   1      -0.327  80.688 113.933  0.00  0.00     0.028 C 
ATOM      5  C   LIG d   1       0.287  80.501 115.316  0.00  0.00    -0.047 C 
ATOM      6  C   LIG d   1      -0.510  79.418 116.078  0.00  0.00     0.091 C 
ENDROOT
BRANCH   1   7
ATOM      7  O   LIG d   1      -2.783  78.578 116.442  0.00  0.00    -0.368 OA
BRANCH   7   8
ATOM      8  C   LIG d   1      -2.368  77.362 115.773  0.00  0.00     0.119 C 
BRANCH   8   9
ATOM      9  C   LIG d   1      -3.439  77.026 114.717  0.00  0.00     0.028 C 
ATOM     10  C   LIG d   1      -2.981  77.365 113.288  0.00  0.00     0.006 C 
ENDBRANCH   8   9
BRANCH   8  11
ATOM     11  C   LIG d   1      -2.359  76.171 116.735  0.00  0.00     0.028 C 
ATOM     12  C   LIG d   1      -1.621  74.950 116.165  0.00  0.00     0.006 C 
ENDBRANCH   8  11
ENDBRANCH   7   8
ENDBRANCH   1   7
BRANCH   6  13
ATOM     13  N   LIG d   1      -0.027  79.233 117.471  0.00  0.00    -0.311 N 
ATOM     14  C   LIG d   1       0.653  78.161 117.875  0.00  0.00     0.210 C 
ATOM     15  C   LIG d   1       1.038  78.161 119.358  0.00  0.00     0.109 C 
ATOM     16  O   LIG d   1       1.001  77.225 117.139  0.00  0.00    -0.276 OA
ATOM     17  H   LIG d   1      -0.239  79.959 118.127  0.00  0.00     0.149 HD
ENDBRANCH   6  13
BRANCH   5  18
ATOM     18  N   LIG d   1       1.707  80.150 115.129  0.00  0.00     0.381 N 
ATOM     19  H   LIG d   1       1.792  79.446 114.424  0.00  0.00    -0.090 HD
ATOM     20  H   LIG d   1       2.066  79.778 115.991  0.00  0.00    -0.090 HD
ATOM     21  H   LIG d   1       2.227  80.958 114.866  0.00  0.00    -0.090 HD
ENDBRANCH   5  18
BRANCH   3  22
ATOM     22  C   LIG d   1      -2.282  81.676 112.963  0.00  0.00     0.382 C 
ATOM     23  O   LIG d   1      -1.649  82.649 112.487  0.00  0.00    -0.241 OA
ATOM     24  O   LIG d   1      -3.438  81.440 112.562  0.00  0.00    -0.241 OA
ENDBRANCH   3  22
TORSDOF 7
ENDMDL
MODEL 8
REMARK VINA RESULT:      -3.9      2.992      4.906
REMARK  7 active torsions:
REMARK  status: ('A' for Active; 'I' for Inactive)
REMARK    1  A    between atoms: C_2  and  C_3 
REMARK    2  A    between atoms: C_3  and  O_6 
REMARK    3  A    between atoms: C_3  and  C_4 
REMARK    4  A    between atoms: C_7  and  O_6 
REMARK    5  A    between atoms: C_9  and  C_10 
REMARK    6  A    between atoms: N_15  and  C_14 
REMARK    7  A    between atoms: N_20  and  C_19 
REMARK       I    between atoms: C_22  and  N_20 
ROOT
ATOM      1  C   LIG d   1      -0.860  80.851 113.061  0.00  0.00     0.161 C 
ATOM      2  C   LIG d   1      -1.313  79.564 112.727  0.00  0.00     0.016 C 
ATOM      3  C   LIG d   1      -2.137  78.785 113.572  0.00  0.00     0.038 C 
ATOM      4  C   LIG d   1      -2.690  79.305 114.752  0.00  0.00     0.028 C 
ATOM      5  C   LIG d   1      -1.854  80.418 115.375  0.00  0.00    -0.047 C 
ATOM      6  C   LIG d   1      -1.544  81.478 114.293  0.00  0.00     0.091 C 
ENDROOT
BRANCH   1   7
ATOM      7  O   LIG d   1      -0.984  81.724 111.921  0.00  0.00    -0.368 OA
BRANCH   7   8
ATOM      8  C   LIG d   1       0.257  82.159 111.313  0.00  0.00     0.119 C 
BRANCH   8   9
ATOM      9  C   LIG d   1       0.435  81.364 110.004  0.00  0.00     0.028 C 
ATOM     10  C   LIG d   1       1.419  80.192 110.159  0.00  0.00     0.006 C 
ENDBRANCH   8   9
BRANCH   8  11
ATOM     11  C   LIG d   1       1.463  81.787 112.180  0.00  0.00     0.028 C 
ATOM     12  C   LIG d   1       2.249  83.015 112.666  0.00  0.00     0.006 C 
ENDBRANCH   8  11
ENDBRANCH   7   8
ENDBRANCH   1   7
BRANCH   6  13
ATOM     13  N   LIG d   1      -0.659  82.560 114.798  0.00  0.00    -0.311 N 
ATOM     14  C   LIG d   1      -1.115  83.684 115.349  0.00  0.00     0.210 C 
ATOM     15  C   LIG d   1      -0.033  84.677 115.783  0.00  0.00     0.109 C 
ATOM     16  O   LIG d   1      -2.313  83.938 115.548  0.00  0.00    -0.276 OA
ATOM     17  H   LIG d   1       0.328  82.422 114.704  0.00  0.00     0.149 HD
ENDBRANCH   6  13
BRANCH   5  18
ATOM     18  N   LIG d   1      -2.614  80.961 116.516  0.00  0.00     0.381 N 
ATOM     19  H   LIG d   1      -3.539  80.581 116.519  0.00  0.00    -0.090 HD
ATOM     20  H   LIG d   1      -2.683  81.958 116.416  0.00  0.00    -0.090 HD
ATOM     21  H   LIG d   1      -2.153  80.736 117.370  0.00  0.00    -0.090 HD
ENDBRANCH   5  18
BRANCH   3  22
ATOM     22  C   LIG d   1      -2.381  77.457 113.260  0.00  0.00     0.382 C 
ATOM     23  O   LIG d   1      -1.517  76.583 113.515  0.00  0.00    -0.241 OA
ATOM     24  O   LIG d   1      -3.436  77.127 112.685  0.00  0.00    -0.241 OA
ENDBRANCH   3  22
TORSDOF 7
ENDMDL
MODEL 9
REMARK VINA RESULT:      -3.9      2.031      5.204
REMARK  7 active torsions:
REMARK  status: ('A' for Active; 'I' for Inactive)
REMARK    1  A    between atoms: C_2  and  C_3 
REMARK    2  A    between atoms: C_3  and  O_6 
REMARK    3  A    between atoms: C_3  and  C_4 
REMARK    4  A    between atoms: C_7  and  O_6 
REMARK    5  A    between atoms: C_9  and  C_10 
REMARK    6  A    between atoms: N_15  and  C_14 
REMARK    7  A    between atoms: N_20  and  C_19 
REMARK       I    between atoms: C_22  and  N_20 
ROOT
ATOM      1  C   LIG d   1       1.603  82.632 113.525  0.00  0.00     0.161 C 
ATOM      2  C   LIG d   1       2.816  83.144 113.034  0.00  0.00     0.016 C 
ATOM      3  C   LIG d   1       3.017  83.507 111.682  0.00  0.00     0.038 C 
ATOM      4  C   LIG d   1       1.965  83.523 110.754  0.00  0.00     0.028 C 
ATOM      5  C   LIG d   1       0.851  82.536 111.085  0.00  0.00    -0.047 C 
ATOM      6  C   LIG d   1       0.411  82.747 112.551  0.00  0.00     0.091 C 
ENDROOT
BRANCH   1   7
ATOM      7  O   LIG d   1       1.283  83.255 114.784  0.00  0.00    -0.368 OA
BRANCH   7   8
ATOM      8  C   LIG d   1       1.719  82.550 115.973  0.00  0.00     0.119 C 
BRANCH   8   9
ATOM      9  C   LIG d   1       1.449  81.050 115.746  0.00  0.00     0.028 C 
ATOM     10  C   LIG d   1       2.567  80.160 116.316  0.00  0.00     0.006 C 
ENDBRANCH   8   9
BRANCH   8  11
ATOM     11  C   LIG d   1       0.873  82.935 117.190  0.00  0.00     0.028 C 
ATOM     12  C   LIG d   1      -0.484  82.215 117.224  0.00  0.00     0.006 C 
ENDBRANCH   8  11
ENDBRANCH   7   8
ENDBRANCH   1   7
BRANCH   6  13
ATOM     13  N   LIG d   1      -0.618  81.765 112.982  0.00  0.00    -0.311 N 
ATOM     14  C   LIG d   1      -1.695  82.095 113.692  0.00  0.00     0.210 C 
ATOM     15  C   LIG d   1      -2.618  80.926 114.048  0.00  0.00     0.109 C 
ATOM     16  O   LIG d   1      -1.990  83.251 114.033  0.00  0.00    -0.276 OA
ATOM     17  H   LIG d   1      -0.473  80.809 112.721  0.00  0.00     0.149 HD
ENDBRANCH   6  13
BRANCH   5  18
ATOM     18  N   LIG d   1      -0.241  82.755 110.117  0.00  0.00     0.381 N 
ATOM     19  H   LIG d   1      -0.885  83.429 110.480  0.00  0.00    -0.090 HD
ATOM     20  H   LIG d   1      -0.733  81.890 109.980  0.00  0.00    -0.090 HD
ATOM     21  H   LIG d   1       0.132  83.074 109.250  0.00  0.00    -0.090 HD
ENDBRANCH   5  18
BRANCH   3  22
ATOM     22  C   LIG d   1       4.292  83.820 111.237  0.00  0.00     0.382 C 
ATOM     23  O   LIG d   1       5.220  83.992 112.064  0.00  0.00    -0.241 OA
ATOM     24  O   LIG d   1       4.517  83.977 110.022  0.00  0.00    -0.241 OA
ENDBRANCH   3  22
TORSDOF 7
ENDMDL
