MODEL 1
REMARK VINA RESULT:      -5.3      0.000      0.000
REMARK  7 active torsions:
REMARK  status: ('A' for Active; 'I' for Inactive)
REMARK    1  A    between atoms: C_2  and  C_3 
REMARK    2  A    between atoms: C_3  and  O_6 
REMARK    3  A    between atoms: C_3  and  C_4 
REMARK    4  A    between atoms: C_7  and  O_6 
REMARK    5  A    between atoms: C_9  and  C_10 
REMARK    6  A    between atoms: N_15  and  C_14 
REMARK    7  A    between atoms: N_20  and  C_19 
REMARK       I    between atoms: C_22  and  N_20 
ROOT
ATOM      1  C   LIG d   1       1.497  81.370 112.428  0.00  0.00     0.161 C 
ATOM      2  C   LIG d   1       2.674  81.682 111.729  0.00  0.00     0.016 C 
ATOM      3  C   LIG d   1       2.883  81.352 110.370  0.00  0.00     0.038 C 
ATOM      4  C   LIG d   1       1.861  80.817 109.572  0.00  0.00     0.028 C 
ATOM      5  C   LIG d   1       0.827  80.023 110.363  0.00  0.00    -0.047 C 
ATOM      6  C   LIG d   1       0.328  80.886 111.544  0.00  0.00     0.091 C 
ENDROOT
BRANCH   1   7
ATOM      7  O   LIG d   1       1.087  82.499 113.225  0.00  0.00    -0.368 OA
BRANCH   7   8
ATOM      8  C   LIG d   1       1.539  83.798 112.769  0.00  0.00     0.119 C 
BRANCH   8   9
ATOM      9  C   LIG d   1       2.074  84.559 113.998  0.00  0.00     0.028 C 
ATOM     10  C   LIG d   1       3.292  83.868 114.633  0.00  0.00     0.006 C 
ENDBRANCH   8   9
BRANCH   8  11
ATOM     11  C   LIG d   1       0.373  84.641 112.245  0.00  0.00     0.028 C 
ATOM     12  C   LIG d   1       0.093  84.408 110.752  0.00  0.00     0.006 C 
ENDBRANCH   8  11
ENDBRANCH   7   8
ENDBRANCH   1   7
BRANCH   6  13
ATOM     13  N   LIG d   1      -0.624  80.153 112.418  0.00  0.00    -0.311 N 
ATOM     14  C   LIG d   1      -1.823  80.626 112.754  0.00  0.00     0.210 C 
ATOM     15  C   LIG d   1      -2.639  79.719 113.681  0.00  0.00     0.109 C 
ATOM     16  O   LIG d   1      -2.302  81.694 112.346  0.00  0.00    -0.276 OA
ATOM     17  H   LIG d   1      -0.329  79.263 112.769  0.00  0.00     0.149 HD
ENDBRANCH   6  13
BRANCH   5  18
ATOM     18  N   LIG d   1      -0.250  79.641 109.430  0.00  0.00     0.381 N 
ATOM     19  H   LIG d   1      -0.186  80.189 108.596  0.00  0.00    -0.090 HD
ATOM     20  H   LIG d   1      -1.137  79.828 109.863  0.00  0.00    -0.090 HD
ATOM     21  H   LIG d   1      -0.180  78.672 109.206  0.00  0.00    -0.090 HD
ENDBRANCH   5  18
BRANCH   3  22
ATOM     22  C   LIG d   1       4.139  81.520 109.807  0.00  0.00     0.382 C 
ATOM     23  O   LIG d   1       4.834  80.517 109.515  0.00  0.00    -0.241 OA
ATOM     24  O   LIG d   1       4.604  82.661 109.629  0.00  0.00    -0.241 OA
ENDBRANCH   3  22
TORSDOF 7
ENDMDL
MODEL 2
REMARK VINA RESULT:      -5.0      1.740      2.491
REMARK  7 active torsions:
REMARK  status: ('A' for Active; 'I' for Inactive)
REMARK    1  A    between atoms: C_2  and  C_3 
REMARK    2  A    between atoms: C_3  and  O_6 
REMARK    3  A    between atoms: C_3  and  C_4 
REMARK    4  A    between atoms: C_7  and  O_6 
REMARK    5  A    between atoms: C_9  and  C_10 
REMARK    6  A    between atoms: N_15  and  C_14 
REMARK    7  A    between atoms: N_20  and  C_19 
REMARK       I    between atoms: C_22  and  N_20 
ROOT
ATOM      1  C   LIG d   1       1.872  81.446 112.729  0.00  0.00     0.161 C 
ATOM      2  C   LIG d   1       3.015  82.136 112.293  0.00  0.00     0.016 C 
ATOM      3  C   LIG d   1       3.025  82.992 111.168  0.00  0.00     0.038 C 
ATOM      4  C   LIG d   1       1.848  83.337 110.488  0.00  0.00     0.028 C 
ATOM      5  C   LIG d   1       0.761  82.272 110.581  0.00  0.00    -0.047 C 
ATOM      6  C   LIG d   1       0.553  81.896 112.066  0.00  0.00     0.091 C 
ENDROOT
BRANCH   1   7
ATOM      7  O   LIG d   1       1.766  81.532 114.163  0.00  0.00    -0.368 OA
BRANCH   7   8
ATOM      8  C   LIG d   1       2.793  82.305 114.833  0.00  0.00     0.119 C 
BRANCH   8   9
ATOM      9  C   LIG d   1       3.444  81.393 115.890  0.00  0.00     0.028 C 
ATOM     10  C   LIG d   1       4.636  82.065 116.591  0.00  0.00     0.006 C 
ENDBRANCH   8   9
BRANCH   8  11
ATOM     11  C   LIG d   1       2.187  83.471 115.620  0.00  0.00     0.028 C 
ATOM     12  C   LIG d   1       1.853  84.680 114.732  0.00  0.00     0.006 C 
ENDBRANCH   8  11
ENDBRANCH   7   8
ENDBRANCH   1   7
BRANCH   6  13
ATOM     13  N   LIG d   1      -0.435  80.799 112.240  0.00  0.00    -0.311 N 
ATOM     14  C   LIG d   1      -1.739  81.008 112.413  0.00  0.00     0.210 C 
ATOM     15  C   LIG d   1      -2.579  79.739 112.593  0.00  0.00     0.109 C 
ATOM     16  O   LIG d   1      -2.285  82.121 112.402  0.00  0.00    -0.276 OA
ATOM     17  H   LIG d   1      -0.083  79.862 112.230  0.00  0.00     0.149 HD
ENDBRANCH   6  13
BRANCH   5  18
ATOM     18  N   LIG d   1      -0.454  82.819 109.948  0.00  0.00     0.381 N 
ATOM     19  H   LIG d   1      -1.198  82.153 110.011  0.00  0.00    -0.090 HD
ATOM     20  H   LIG d   1      -0.265  82.989 108.975  0.00  0.00    -0.090 HD
ATOM     21  H   LIG d   1      -0.720  83.668 110.396  0.00  0.00    -0.090 HD
ENDBRANCH   5  18
BRANCH   3  22
ATOM     22  C   LIG d   1       4.231  83.483 110.689  0.00  0.00     0.382 C 
ATOM     23  O   LIG d   1       4.288  84.636 110.198  0.00  0.00    -0.241 OA
ATOM     24  O   LIG d   1       5.252  82.770 110.700  0.00  0.00    -0.241 OA
ENDBRANCH   3  22
TORSDOF 7
ENDMDL
MODEL 3
REMARK VINA RESULT:      -4.7      1.698      4.897
REMARK  7 active torsions:
REMARK  status: ('A' for Active; 'I' for Inactive)
REMARK    1  A    between atoms: C_2  and  C_3 
REMARK    2  A    between atoms: C_3  and  O_6 
REMARK    3  A    between atoms: C_3  and  C_4 
REMARK    4  A    between atoms: C_7  and  O_6 
REMARK    5  A    between atoms: C_9  and  C_10 
REMARK    6  A    between atoms: N_15  and  C_14 
REMARK    7  A    between atoms: N_20  and  C_19 
REMARK       I    between atoms: C_22  and  N_20 
ROOT
ATOM      1  C   LIG d   1       0.560  82.571 111.984  0.00  0.00     0.161 C 
ATOM      2  C   LIG d   1      -0.676  82.107 112.464  0.00  0.00     0.016 C 
ATOM      3  C   LIG d   1      -1.205  80.834 112.149  0.00  0.00     0.038 C 
ATOM      4  C   LIG d   1      -0.460  79.874 111.450  0.00  0.00     0.028 C 
ATOM      5  C   LIG d   1       0.585  80.478 110.517  0.00  0.00    -0.047 C 
ATOM      6  C   LIG d   1       1.438  81.494 111.311  0.00  0.00     0.091 C 
ENDROOT
BRANCH   1   7
ATOM      7  O   LIG d   1       1.287  83.216 113.048  0.00  0.00    -0.368 OA
BRANCH   7   8
ATOM      8  C   LIG d   1       2.505  82.559 113.477  0.00  0.00     0.119 C 
BRANCH   8   9
ATOM      9  C   LIG d   1       2.226  81.916 114.849  0.00  0.00     0.028 C 
ATOM     10  C   LIG d   1       2.432  82.900 116.012  0.00  0.00     0.006 C 
ENDBRANCH   8   9
BRANCH   8  11
ATOM     11  C   LIG d   1       3.626  83.573 113.726  0.00  0.00     0.028 C 
ATOM     12  C   LIG d   1       3.676  84.680 112.660  0.00  0.00     0.006 C 
ENDBRANCH   8  11
ENDBRANCH   7   8
ENDBRANCH   1   7
BRANCH   6  13
ATOM     13  N   LIG d   1       2.429  82.194 110.453  0.00  0.00    -0.311 N 
ATOM     14  C   LIG d   1       3.705  81.825 110.356  0.00  0.00     0.210 C 
ATOM     15  C   LIG d   1       4.562  82.695 109.432  0.00  0.00     0.109 C 
ATOM     16  O   LIG d   1       4.201  80.840 110.923  0.00  0.00    -0.276 OA
ATOM     17  H   LIG d   1       2.104  82.986 109.933  0.00  0.00     0.149 HD
ENDBRANCH   6  13
BRANCH   5  18
ATOM     18  N   LIG d   1       1.379  79.368 109.958  0.00  0.00     0.381 N 
ATOM     19  H   LIG d   1       1.947  79.703 109.206  0.00  0.00    -0.090 HD
ATOM     20  H   LIG d   1       0.754  78.671 109.595  0.00  0.00    -0.090 HD
ATOM     21  H   LIG d   1       1.955  78.971 110.667  0.00  0.00    -0.090 HD
ENDBRANCH   5  18
BRANCH   3  22
ATOM     22  C   LIG d   1      -2.511  80.526 112.501  0.00  0.00     0.382 C 
ATOM     23  O   LIG d   1      -3.399  81.410 112.447  0.00  0.00    -0.241 OA
ATOM     24  O   LIG d   1      -2.802  79.388 112.914  0.00  0.00    -0.241 OA
ENDBRANCH   3  22
TORSDOF 7
ENDMDL
MODEL 4
REMARK VINA RESULT:      -4.6      4.207      6.899
REMARK  7 active torsions:
REMARK  status: ('A' for Active; 'I' for Inactive)
REMARK    1  A    between atoms: C_2  and  C_3 
REMARK    2  A    between atoms: C_3  and  O_6 
REMARK    3  A    between atoms: C_3  and  C_4 
REMARK    4  A    between atoms: C_7  and  O_6 
REMARK    5  A    between atoms: C_9  and  C_10 
REMARK    6  A    between atoms: N_15  and  C_14 
REMARK    7  A    between atoms: N_20  and  C_19 
REMARK       I    between atoms: C_22  and  N_20 
ROOT
ATOM      1  C   LIG d   1      -1.618  77.724 113.354  0.00  0.00     0.161 C 
ATOM      2  C   LIG d   1      -2.155  79.022 113.331  0.00  0.00     0.016 C 
ATOM      3  C   LIG d   1      -1.897  79.952 112.297  0.00  0.00     0.038 C 
ATOM      4  C   LIG d   1      -1.202  79.593 111.133  0.00  0.00     0.028 C 
ATOM      5  C   LIG d   1      -0.216  78.449 111.345  0.00  0.00    -0.047 C 
ATOM      6  C   LIG d   1      -0.948  77.277 112.038  0.00  0.00     0.091 C 
ENDROOT
BRANCH   1   7
ATOM      7  O   LIG d   1      -2.637  76.782 113.743  0.00  0.00    -0.368 OA
BRANCH   7   8
ATOM      8  C   LIG d   1      -2.669  76.421 115.146  0.00  0.00     0.119 C 
BRANCH   8   9
ATOM      9  C   LIG d   1      -1.377  76.957 115.792  0.00  0.00     0.028 C 
ATOM     10  C   LIG d   1      -1.618  77.531 117.198  0.00  0.00     0.006 C 
ENDBRANCH   8   9
BRANCH   8  11
ATOM     11  C   LIG d   1      -2.615  74.902 115.332  0.00  0.00     0.028 C 
ATOM     12  C   LIG d   1      -1.179  74.354 115.348  0.00  0.00     0.006 C 
ENDBRANCH   8  11
ENDBRANCH   7   8
ENDBRANCH   1   7
BRANCH   6  13
ATOM     13  N   LIG d   1      -0.036  76.149 112.358  0.00  0.00    -0.311 N 
ATOM     14  C   LIG d   1       0.419  75.292 111.445  0.00  0.00     0.210 C 
ATOM     15  C   LIG d   1       1.332  74.190 111.991  0.00  0.00     0.109 C 
ATOM     16  O   LIG d   1       0.179  75.360 110.230  0.00  0.00    -0.276 OA
ATOM     17  H   LIG d   1       0.234  76.038 113.316  0.00  0.00     0.149 HD
ENDBRANCH   6  13
BRANCH   5  18
ATOM     18  N   LIG d   1       0.336  78.086 110.026  0.00  0.00     0.381 N 
ATOM     19  H   LIG d   1       1.264  78.449 109.936  0.00  0.00    -0.090 HD
ATOM     20  H   LIG d   1      -0.235  78.499 109.310  0.00  0.00    -0.090 HD
ATOM     21  H   LIG d   1       0.347  77.096 109.922  0.00  0.00    -0.090 HD
ENDBRANCH   5  18
BRANCH   3  22
ATOM     22  C   LIG d   1      -2.303  81.270 112.442  0.00  0.00     0.382 C 
ATOM     23  O   LIG d   1      -3.439  81.529 112.907  0.00  0.00    -0.241 OA
ATOM     24  O   LIG d   1      -1.565  82.203 112.072  0.00  0.00    -0.241 OA
ENDBRANCH   3  22
TORSDOF 7
ENDMDL
MODEL 5
REMARK VINA RESULT:      -4.6      5.635      8.222
REMARK  7 active torsions:
REMARK  status: ('A' for Active; 'I' for Inactive)
REMARK    1  A    between atoms: C_2  and  C_3 
REMARK    2  A    between atoms: C_3  and  O_6 
REMARK    3  A    between atoms: C_3  and  C_4 
REMARK    4  A    between atoms: C_7  and  O_6 
REMARK    5  A    between atoms: C_9  and  C_10 
REMARK    6  A    between atoms: N_15  and  C_14 
REMARK    7  A    between atoms: N_20  and  C_19 
REMARK       I    between atoms: C_22  and  N_20 
ROOT
ATOM      1  C   LIG d   1      -2.762  77.201 115.691  0.00  0.00     0.161 C 
ATOM      2  C   LIG d   1      -2.926  77.155 114.296  0.00  0.00     0.016 C 
ATOM      3  C   LIG d   1      -2.084  77.841 113.391  0.00  0.00     0.038 C 
ATOM      4  C   LIG d   1      -0.922  78.503 113.815  0.00  0.00     0.028 C 
ATOM      5  C   LIG d   1      -0.999  78.998 115.255  0.00  0.00    -0.047 C 
ATOM      6  C   LIG d   1      -1.434  77.827 116.166  0.00  0.00     0.091 C 
ENDROOT
BRANCH   1   7
ATOM      7  O   LIG d   1      -2.919  75.880 116.245  0.00  0.00    -0.368 OA
BRANCH   7   8
ATOM      8  C   LIG d   1      -1.697  75.184 116.590  0.00  0.00     0.119 C 
BRANCH   8   9
ATOM      9  C   LIG d   1      -1.288  74.335 115.371  0.00  0.00     0.028 C 
ATOM     10  C   LIG d   1      -0.067  74.913 114.636  0.00  0.00     0.006 C 
ENDBRANCH   8   9
BRANCH   8  11
ATOM     11  C   LIG d   1      -1.927  74.180 117.724  0.00  0.00     0.028 C 
ATOM     12  C   LIG d   1      -1.561  74.746 119.105  0.00  0.00     0.006 C 
ENDBRANCH   8  11
ENDBRANCH   7   8
ENDBRANCH   1   7
BRANCH   6  13
ATOM     13  N   LIG d   1      -1.615  78.246 117.580  0.00  0.00    -0.311 N 
ATOM     14  C   LIG d   1      -0.644  78.194 118.490  0.00  0.00     0.210 C 
ATOM     15  C   LIG d   1      -1.049  78.655 119.894  0.00  0.00     0.109 C 
ATOM     16  O   LIG d   1       0.522  77.841 118.260  0.00  0.00    -0.276 OA
ATOM     17  H   LIG d   1      -2.523  78.576 117.846  0.00  0.00     0.149 HD
ENDBRANCH   6  13
BRANCH   5  18
ATOM     18  N   LIG d   1       0.325  79.545 115.610  0.00  0.00     0.381 N 
ATOM     19  H   LIG d   1       0.219  80.287 116.272  0.00  0.00    -0.090 HD
ATOM     20  H   LIG d   1       0.754  79.920 114.782  0.00  0.00    -0.090 HD
ATOM     21  H   LIG d   1       0.899  78.826 115.994  0.00  0.00    -0.090 HD
ENDBRANCH   5  18
BRANCH   3  22
ATOM     22  C   LIG d   1      -2.424  77.903 112.048  0.00  0.00     0.382 C 
ATOM     23  O   LIG d   1      -3.440  78.546 111.688  0.00  0.00    -0.241 OA
ATOM     24  O   LIG d   1      -1.754  77.288 111.198  0.00  0.00    -0.241 OA
ENDBRANCH   3  22
TORSDOF 7
ENDMDL
MODEL 6
REMARK VINA RESULT:      -4.5      2.417      4.828
REMARK  7 active torsions:
REMARK  status: ('A' for Active; 'I' for Inactive)
REMARK    1  A    between atoms: C_2  and  C_3 
REMARK    2  A    between atoms: C_3  and  O_6 
REMARK    3  A    between atoms: C_3  and  C_4 
REMARK    4  A    between atoms: C_7  and  O_6 
REMARK    5  A    between atoms: C_9  and  C_10 
REMARK    6  A    between atoms: N_15  and  C_14 
REMARK    7  A    between atoms: N_20  and  C_19 
REMARK       I    between atoms: C_22  and  N_20 
ROOT
ATOM      1  C   LIG d   1       0.325  80.764 111.405  0.00  0.00     0.161 C 
ATOM      2  C   LIG d   1      -0.573  79.816 110.888  0.00  0.00     0.016 C 
ATOM      3  C   LIG d   1      -1.286  78.899 111.694  0.00  0.00     0.038 C 
ATOM      4  C   LIG d   1      -1.261  78.969 113.095  0.00  0.00     0.028 C 
ATOM      5  C   LIG d   1       0.021  79.581 113.649  0.00  0.00    -0.047 C 
ATOM      6  C   LIG d   1       0.281  80.929 112.938  0.00  0.00     0.091 C 
ENDROOT
BRANCH   1   7
ATOM      7  O   LIG d   1       0.119  82.036 110.758  0.00  0.00    -0.368 OA
BRANCH   7   8
ATOM      8  C   LIG d   1       0.993  82.332 109.640  0.00  0.00     0.119 C 
BRANCH   8   9
ATOM      9  C   LIG d   1       2.401  81.825 110.007  0.00  0.00     0.028 C 
ATOM     10  C   LIG d   1       3.409  82.973 110.186  0.00  0.00     0.006 C 
ENDBRANCH   8   9
BRANCH   8  11
ATOM     11  C   LIG d   1       1.145  83.842 109.436  0.00  0.00     0.028 C 
ATOM     12  C   LIG d   1      -0.067  84.637 109.947  0.00  0.00     0.006 C 
ENDBRANCH   8  11
ENDBRANCH   7   8
ENDBRANCH   1   7
BRANCH   6  13
ATOM     13  N   LIG d   1       1.561  81.555 113.361  0.00  0.00    -0.311 N 
ATOM     14  C   LIG d   1       1.720  82.869 113.512  0.00  0.00     0.210 C 
ATOM     15  C   LIG d   1       3.126  83.306 113.934  0.00  0.00     0.109 C 
ATOM     16  O   LIG d   1       0.821  83.711 113.367  0.00  0.00    -0.276 OA
ATOM     17  H   LIG d   1       2.334  80.942 113.530  0.00  0.00     0.149 HD
ENDBRANCH   6  13
BRANCH   5  18
ATOM     18  N   LIG d   1      -0.145  79.719 115.108  0.00  0.00     0.381 N 
ATOM     19  H   LIG d   1      -0.984  79.258 115.399  0.00  0.00    -0.090 HD
ATOM     20  H   LIG d   1      -0.227  80.695 115.335  0.00  0.00    -0.090 HD
ATOM     21  H   LIG d   1       0.640  79.326 115.579  0.00  0.00    -0.090 HD
ENDBRANCH   5  18
BRANCH   3  22
ATOM     22  C   LIG d   1      -2.002  77.872 111.098  0.00  0.00     0.382 C 
ATOM     23  O   LIG d   1      -1.396  76.918 110.556  0.00  0.00    -0.241 OA
ATOM     24  O   LIG d   1      -3.247  77.911 111.058  0.00  0.00    -0.241 OA
ENDBRANCH   3  22
TORSDOF 7
ENDMDL
MODEL 7
REMARK VINA RESULT:      -4.4      4.822      7.455
REMARK  7 active torsions:
REMARK  status: ('A' for Active; 'I' for Inactive)
REMARK    1  A    between atoms: C_2  and  C_3 
REMARK    2  A    between atoms: C_3  and  O_6 
REMARK    3  A    between atoms: C_3  and  C_4 
REMARK    4  A    between atoms: C_7  and  O_6 
REMARK    5  A    between atoms: C_9  and  C_10 
REMARK    6  A    between atoms: N_15  and  C_14 
REMARK    7  A    between atoms: N_20  and  C_19 
REMARK       I    between atoms: C_22  and  N_20 
ROOT
ATOM      1  C   LIG d   1      -1.798  77.944 115.088  0.00  0.00     0.161 C 
ATOM      2  C   LIG d   1      -2.199  77.549 113.801  0.00  0.00     0.016 C 
ATOM      3  C   LIG d   1      -1.662  78.099 112.615  0.00  0.00     0.038 C 
ATOM      4  C   LIG d   1      -0.571  78.981 112.635  0.00  0.00     0.028 C 
ATOM      5  C   LIG d   1      -0.469  79.790 113.924  0.00  0.00    -0.047 C 
ATOM      6  C   LIG d   1      -0.531  78.823 115.129  0.00  0.00     0.091 C 
ENDROOT
BRANCH   1   7
ATOM      7  O   LIG d   1      -1.629  76.783 115.925  0.00  0.00    -0.368 OA
BRANCH   7   8
ATOM      8  C   LIG d   1      -1.946  75.507 115.317  0.00  0.00     0.119 C 
BRANCH   8   9
ATOM      9  C   LIG d   1      -2.895  74.761 116.275  0.00  0.00     0.028 C 
ATOM     10  C   LIG d   1      -2.183  74.277 117.549  0.00  0.00     0.006 C 
ENDBRANCH   8   9
BRANCH   8  11
ATOM     11  C   LIG d   1      -0.704  74.619 115.204  0.00  0.00     0.028 C 
ATOM     12  C   LIG d   1       0.317  75.148 114.185  0.00  0.00     0.006 C 
ENDBRANCH   8  11
ENDBRANCH   7   8
ENDBRANCH   1   7
BRANCH   6  13
ATOM     13  N   LIG d   1      -0.522  79.540 116.431  0.00  0.00    -0.311 N 
ATOM     14  C   LIG d   1       0.363  79.297 117.396  0.00  0.00     0.210 C 
ATOM     15  C   LIG d   1       0.181  80.134 118.666  0.00  0.00     0.109 C 
ATOM     16  O   LIG d   1       1.301  78.491 117.308  0.00  0.00    -0.276 OA
ATOM     17  H   LIG d   1      -1.230  80.233 116.575  0.00  0.00     0.149 HD
ENDBRANCH   6  13
BRANCH   5  18
ATOM     18  N   LIG d   1       0.786  80.563 113.867  0.00  0.00     0.381 N 
ATOM     19  H   LIG d   1       1.226  80.561 114.765  0.00  0.00    -0.090 HD
ATOM     20  H   LIG d   1       0.571  81.514 113.623  0.00  0.00    -0.090 HD
ATOM     21  H   LIG d   1       1.399  80.168 113.188  0.00  0.00    -0.090 HD
ENDBRANCH   5  18
BRANCH   3  22
ATOM     22  C   LIG d   1      -2.244  77.799 111.393  0.00  0.00     0.382 C 
ATOM     23  O   LIG d   1      -3.438  78.113 111.173  0.00  0.00    -0.241 OA
ATOM     24  O   LIG d   1      -1.602  77.179 110.524  0.00  0.00    -0.241 OA
ENDBRANCH   3  22
TORSDOF 7
ENDMDL
MODEL 8
REMARK VINA RESULT:      -3.9      5.346      6.820
REMARK  7 active torsions:
REMARK  status: ('A' for Active; 'I' for Inactive)
REMARK    1  A    between atoms: C_2  and  C_3 
REMARK    2  A    between atoms: C_3  and  O_6 
REMARK    3  A    between atoms: C_3  and  C_4 
REMARK    4  A    between atoms: C_7  and  O_6 
REMARK    5  A    between atoms: C_9  and  C_10 
REMARK    6  A    between atoms: N_15  and  C_14 
REMARK    7  A    between atoms: N_20  and  C_19 
REMARK       I    between atoms: C_22  and  N_20 
ROOT
ATOM      1  C   LIG d   1      -0.603  78.374 115.396  0.00  0.00     0.161 C 
ATOM      2  C   LIG d   1      -1.007  78.798 114.119  0.00  0.00     0.016 C 
ATOM      3  C   LIG d   1      -2.048  78.181 113.387  0.00  0.00     0.038 C 
ATOM      4  C   LIG d   1      -2.861  77.187 113.951  0.00  0.00     0.028 C 
ATOM      5  C   LIG d   1      -2.166  76.384 115.045  0.00  0.00    -0.047 C 
ATOM      6  C   LIG d   1      -1.552  77.363 116.072  0.00  0.00     0.091 C 
ENDROOT
BRANCH   1   7
ATOM      7  O   LIG d   1      -0.400  79.518 116.249  0.00  0.00    -0.368 OA
BRANCH   7   8
ATOM      8  C   LIG d   1       0.826  79.528 117.022  0.00  0.00     0.119 C 
BRANCH   8   9
ATOM      9  C   LIG d   1       0.442  79.773 118.494  0.00  0.00     0.028 C 
ATOM     10  C   LIG d   1      -1.035  80.166 118.658  0.00  0.00     0.006 C 
ENDBRANCH   8   9
BRANCH   8  11
ATOM     11  C   LIG d   1       1.721  80.708 116.633  0.00  0.00     0.028 C 
ATOM     12  C   LIG d   1       3.023  80.762 117.448  0.00  0.00     0.006 C 
ENDBRANCH   8  11
ENDBRANCH   7   8
ENDBRANCH   1   7
BRANCH   6  13
ATOM     13  N   LIG d   1      -0.781  76.662 117.132  0.00  0.00    -0.311 N 
ATOM     14  C   LIG d   1      -1.300  76.316 118.308  0.00  0.00     0.210 C 
ATOM     15  C   LIG d   1      -0.327  75.620 119.265  0.00  0.00     0.109 C 
ATOM     16  O   LIG d   1      -2.483  76.491 118.639  0.00  0.00    -0.276 OA
ATOM     17  H   LIG d   1       0.179  76.454 116.936  0.00  0.00     0.149 HD
ENDBRANCH   6  13
BRANCH   5  18
ATOM     18  N   LIG d   1      -3.169  75.478 115.638  0.00  0.00     0.381 N 
ATOM     19  H   LIG d   1      -3.574  75.905 116.447  0.00  0.00    -0.090 HD
ATOM     20  H   LIG d   1      -2.711  74.631 115.924  0.00  0.00    -0.090 HD
ATOM     21  H   LIG d   1      -3.879  75.272 114.971  0.00  0.00    -0.090 HD
ENDBRANCH   5  18
BRANCH   3  22
ATOM     22  C   LIG d   1      -2.258  78.531 112.062  0.00  0.00     0.382 C 
ATOM     23  O   LIG d   1      -2.474  77.641 111.205  0.00  0.00    -0.241 OA
ATOM     24  O   LIG d   1      -2.190  79.723 111.705  0.00  0.00    -0.241 OA
ENDBRANCH   3  22
TORSDOF 7
ENDMDL
MODEL 9
REMARK VINA RESULT:      -3.9      3.058      5.143
REMARK  7 active torsions:
REMARK  status: ('A' for Active; 'I' for Inactive)
REMARK    1  A    between atoms: C_2  and  C_3 
REMARK    2  A    between atoms: C_3  and  O_6 
REMARK    3  A    between atoms: C_3  and  C_4 
REMARK    4  A    between atoms: C_7  and  O_6 
REMARK    5  A    between atoms: C_9  and  C_10 
REMARK    6  A    between atoms: N_15  and  C_14 
REMARK    7  A    between atoms: N_20  and  C_19 
REMARK       I    between atoms: C_22  and  N_20 
ROOT
ATOM      1  C   LIG d   1      -0.009  80.131 112.896  0.00  0.00     0.161 C 
ATOM      2  C   LIG d   1      -0.700  79.491 111.854  0.00  0.00     0.016 C 
ATOM      3  C   LIG d   1      -1.450  78.306 112.031  0.00  0.00     0.038 C 
ATOM      4  C   LIG d   1      -1.685  77.760 113.301  0.00  0.00     0.028 C 
ATOM      5  C   LIG d   1      -0.592  78.087 114.313  0.00  0.00    -0.047 C 
ATOM      6  C   LIG d   1      -0.346  79.613 114.310  0.00  0.00     0.091 C 
ENDROOT
BRANCH   1   7
ATOM      7  O   LIG d   1      -0.222  81.555 112.821  0.00  0.00    -0.368 OA
BRANCH   7   8
ATOM      8  C   LIG d   1       0.870  82.335 112.275  0.00  0.00     0.119 C 
BRANCH   8   9
ATOM      9  C   LIG d   1       0.589  82.539 110.774  0.00  0.00     0.028 C 
ATOM     10  C   LIG d   1      -0.160  83.851 110.490  0.00  0.00     0.006 C 
ENDBRANCH   8   9
BRANCH   8  11
ATOM     11  C   LIG d   1       2.192  81.564 112.339  0.00  0.00     0.028 C 
ATOM     12  C   LIG d   1       2.855  81.403 110.962  0.00  0.00     0.006 C 
ENDBRANCH   8  11
ENDBRANCH   7   8
ENDBRANCH   1   7
BRANCH   6  13
ATOM     13  N   LIG d   1       0.768  80.009 115.211  0.00  0.00    -0.311 N 
ATOM     14  C   LIG d   1       0.612  80.228 116.516  0.00  0.00     0.210 C 
ATOM     15  C   LIG d   1       1.885  80.647 117.257  0.00  0.00     0.109 C 
ATOM     16  O   LIG d   1      -0.453  80.085 117.135  0.00  0.00    -0.276 OA
ATOM     17  H   LIG d   1       1.673  80.118 114.797  0.00  0.00     0.149 HD
ENDBRANCH   6  13
BRANCH   5  18
ATOM     18  N   LIG d   1      -1.032  77.575 115.625  0.00  0.00     0.381 N 
ATOM     19  H   LIG d   1      -1.916  77.116 115.531  0.00  0.00    -0.090 HD
ATOM     20  H   LIG d   1      -1.144  78.350 116.255  0.00  0.00    -0.090 HD
ATOM     21  H   LIG d   1      -0.356  76.938 115.986  0.00  0.00    -0.090 HD
ENDBRANCH   5  18
BRANCH   3  22
ATOM     22  C   LIG d   1      -1.940  77.631 110.923  0.00  0.00     0.382 C 
ATOM     23  O   LIG d   1      -3.101  77.867 110.508  0.00  0.00    -0.241 OA
ATOM     24  O   LIG d   1      -1.253  76.758 110.360  0.00  0.00    -0.241 OA
ENDBRANCH   3  22
TORSDOF 7
ENDMDL
