MODEL 1
REMARK VINA RESULT:      -4.8      0.000      0.000
REMARK  7 active torsions:
REMARK  status: ('A' for Active; 'I' for Inactive)
REMARK    1  A    between atoms: C_2  and  C_3 
REMARK    2  A    between atoms: C_3  and  O_6 
REMARK    3  A    between atoms: C_3  and  C_4 
REMARK    4  A    between atoms: C_7  and  O_6 
REMARK    5  A    between atoms: C_9  and  C_10 
REMARK    6  A    between atoms: N_15  and  C_14 
REMARK    7  A    between atoms: N_20  and  C_19 
REMARK       I    between atoms: C_22  and  N_20 
ROOT
ATOM      1  C   LIG d   1       1.778  81.304 112.522  0.00  0.00     0.161 C 
ATOM      2  C   LIG d   1       2.801  81.923 111.785  0.00  0.00     0.016 C 
ATOM      3  C   LIG d   1       2.799  82.010 110.373  0.00  0.00     0.038 C 
ATOM      4  C   LIG d   1       1.693  81.615 109.607  0.00  0.00     0.028 C 
ATOM      5  C   LIG d   1       0.855  80.526 110.270  0.00  0.00    -0.047 C 
ATOM      6  C   LIG d   1       0.510  80.966 111.711  0.00  0.00     0.091 C 
ENDROOT
BRANCH   1   7
ATOM      7  O   LIG d   1       1.440  82.115 113.665  0.00  0.00    -0.368 OA
BRANCH   7   8
ATOM      8  C   LIG d   1       2.554  82.708 114.377  0.00  0.00     0.119 C 
BRANCH   8   9
ATOM      9  C   LIG d   1       2.624  82.041 115.764  0.00  0.00     0.028 C 
ATOM     10  C   LIG d   1       3.622  80.871 115.803  0.00  0.00     0.006 C 
ENDBRANCH   8   9
BRANCH   8  11
ATOM     11  C   LIG d   1       2.309  84.195 114.654  0.00  0.00     0.028 C 
ATOM     12  C   LIG d   1       2.201  84.511 116.154  0.00  0.00     0.006 C 
ENDBRANCH   8  11
ENDBRANCH   7   8
ENDBRANCH   1   7
BRANCH   6  13
ATOM     13  N   LIG d   1      -0.237  79.921 112.459  0.00  0.00    -0.311 N 
ATOM     14  C   LIG d   1      -1.565  79.897 112.557  0.00  0.00     0.210 C 
ATOM     15  C   LIG d   1      -2.131  78.744 113.391  0.00  0.00     0.109 C 
ATOM     16  O   LIG d   1      -2.329  80.704 112.006  0.00  0.00    -0.276 OA
ATOM     17  H   LIG d   1       0.303  79.209 112.911  0.00  0.00     0.149 HD
ENDBRANCH   6  13
BRANCH   5  18
ATOM     18  N   LIG d   1      -0.337  80.308 109.430  0.00  0.00     0.381 N 
ATOM     19  H   LIG d   1      -1.112  80.040 110.004  0.00  0.00    -0.090 HD
ATOM     20  H   LIG d   1      -0.149  79.560 108.786  0.00  0.00    -0.090 HD
ATOM     21  H   LIG d   1      -0.559  81.140 108.929  0.00  0.00    -0.090 HD
ENDBRANCH   5  18
BRANCH   3  22
ATOM     22  C   LIG d   1       3.931  82.462 109.712  0.00  0.00     0.382 C 
ATOM     23  O   LIG d   1       4.854  81.660 109.430  0.00  0.00    -0.241 OA
ATOM     24  O   LIG d   1       4.060  83.669 109.432  0.00  0.00    -0.241 OA
ENDBRANCH   3  22
TORSDOF 7
ENDMDL
MODEL 2
REMARK VINA RESULT:      -4.2      3.255      6.312
REMARK  7 active torsions:
REMARK  status: ('A' for Active; 'I' for Inactive)
REMARK    1  A    between atoms: C_2  and  C_3 
REMARK    2  A    between atoms: C_3  and  O_6 
REMARK    3  A    between atoms: C_3  and  C_4 
REMARK    4  A    between atoms: C_7  and  O_6 
REMARK    5  A    between atoms: C_9  and  C_10 
REMARK    6  A    between atoms: N_15  and  C_14 
REMARK    7  A    between atoms: N_20  and  C_19 
REMARK       I    between atoms: C_22  and  N_20 
ROOT
ATOM      1  C   LIG d   1      -1.172  79.436 114.488  0.00  0.00     0.161 C 
ATOM      2  C   LIG d   1      -1.723  78.227 114.943  0.00  0.00     0.016 C 
ATOM      3  C   LIG d   1      -2.189  77.210 114.078  0.00  0.00     0.038 C 
ATOM      4  C   LIG d   1      -1.996  77.270 112.690  0.00  0.00     0.028 C 
ATOM      5  C   LIG d   1      -1.901  78.695 112.154  0.00  0.00    -0.047 C 
ATOM      6  C   LIG d   1      -0.852  79.473 112.979  0.00  0.00     0.091 C 
ENDROOT
BRANCH   1   7
ATOM      7  O   LIG d   1       0.003  79.758 115.258  0.00  0.00    -0.368 OA
BRANCH   7   8
ATOM      8  C   LIG d   1       0.043  79.235 116.608  0.00  0.00     0.119 C 
BRANCH   8   9
ATOM      9  C   LIG d   1      -0.154  80.421 117.571  0.00  0.00     0.028 C 
ATOM     10  C   LIG d   1      -1.428  80.283 118.420  0.00  0.00     0.006 C 
ENDBRANCH   8   9
BRANCH   8  11
ATOM     11  C   LIG d   1       1.425  78.665 116.943  0.00  0.00     0.028 C 
ATOM     12  C   LIG d   1       1.384  77.169 117.293  0.00  0.00     0.006 C 
ENDBRANCH   8  11
ENDBRANCH   7   8
ENDBRANCH   1   7
BRANCH   6  13
ATOM     13  N   LIG d   1      -0.757  80.900 112.574  0.00  0.00    -0.311 N 
ATOM     14  C   LIG d   1       0.116  81.351 111.674  0.00  0.00     0.210 C 
ATOM     15  C   LIG d   1       0.059  82.860 111.418  0.00  0.00     0.109 C 
ATOM     16  O   LIG d   1       0.909  80.639 111.040  0.00  0.00    -0.276 OA
ATOM     17  H   LIG d   1      -1.385  81.542 113.016  0.00  0.00     0.149 HD
ENDBRANCH   6  13
BRANCH   5  18
ATOM     18  N   LIG d   1      -1.563  78.609 110.720  0.00  0.00     0.381 N 
ATOM     19  H   LIG d   1      -2.213  78.009 110.254  0.00  0.00    -0.090 HD
ATOM     20  H   LIG d   1      -0.644  78.214 110.626  0.00  0.00    -0.090 HD
ATOM     21  H   LIG d   1      -1.585  79.517 110.310  0.00  0.00    -0.090 HD
ENDBRANCH   5  18
BRANCH   3  22
ATOM     22  C   LIG d   1      -2.893  76.134 114.599  0.00  0.00     0.382 C 
ATOM     23  O   LIG d   1      -2.944  75.961 115.840  0.00  0.00    -0.241 OA
ATOM     24  O   LIG d   1      -3.440  75.311 113.841  0.00  0.00    -0.241 OA
ENDBRANCH   3  22
TORSDOF 7
ENDMDL
MODEL 3
REMARK VINA RESULT:      -4.2      2.585      5.631
REMARK  7 active torsions:
REMARK  status: ('A' for Active; 'I' for Inactive)
REMARK    1  A    between atoms: C_2  and  C_3 
REMARK    2  A    between atoms: C_3  and  O_6 
REMARK    3  A    between atoms: C_3  and  C_4 
REMARK    4  A    between atoms: C_7  and  O_6 
REMARK    5  A    between atoms: C_9  and  C_10 
REMARK    6  A    between atoms: N_15  and  C_14 
REMARK    7  A    between atoms: N_20  and  C_19 
REMARK       I    between atoms: C_22  and  N_20 
ROOT
ATOM      1  C   LIG d   1      -0.532  80.161 113.482  0.00  0.00     0.161 C 
ATOM      2  C   LIG d   1      -1.416  79.133 113.114  0.00  0.00     0.016 C 
ATOM      3  C   LIG d   1      -1.618  78.723 111.776  0.00  0.00     0.038 C 
ATOM      4  C   LIG d   1      -0.832  79.214 110.723  0.00  0.00     0.028 C 
ATOM      5  C   LIG d   1      -0.281  80.612 110.980  0.00  0.00    -0.047 C 
ATOM      6  C   LIG d   1       0.415  80.632 112.360  0.00  0.00     0.091 C 
ENDROOT
BRANCH   1   7
ATOM      7  O   LIG d   1       0.225  79.763 114.643  0.00  0.00    -0.368 OA
BRANCH   7   8
ATOM      8  C   LIG d   1      -0.527  79.131 115.708  0.00  0.00     0.119 C 
BRANCH   8   9
ATOM      9  C   LIG d   1      -0.201  79.883 117.013  0.00  0.00     0.028 C 
ATOM     10  C   LIG d   1      -1.464  80.249 117.811  0.00  0.00     0.006 C 
ENDBRANCH   8   9
BRANCH   8  11
ATOM     11  C   LIG d   1      -0.060  77.691 115.942  0.00  0.00     0.028 C 
ATOM     12  C   LIG d   1      -1.157  76.655 115.649  0.00  0.00     0.006 C 
ENDBRANCH   8  11
ENDBRANCH   7   8
ENDBRANCH   1   7
BRANCH   6  13
ATOM     13  N   LIG d   1       0.909  81.985 112.726  0.00  0.00    -0.311 N 
ATOM     14  C   LIG d   1       2.127  82.430 112.419  0.00  0.00     0.210 C 
ATOM     15  C   LIG d   1       2.440  83.847 112.909  0.00  0.00     0.109 C 
ATOM     16  O   LIG d   1       2.965  81.797 111.760  0.00  0.00    -0.276 OA
ATOM     17  H   LIG d   1       0.282  82.577 113.235  0.00  0.00     0.149 HD
ENDBRANCH   6  13
BRANCH   5  18
ATOM     18  N   LIG d   1       0.629  80.944 109.868  0.00  0.00     0.381 N 
ATOM     19  H   LIG d   1       1.229  81.699 110.134  0.00  0.00    -0.090 HD
ATOM     20  H   LIG d   1       0.083  81.239 109.078  0.00  0.00    -0.090 HD
ATOM     21  H   LIG d   1       1.174  80.147 109.624  0.00  0.00    -0.090 HD
ENDBRANCH   5  18
BRANCH   3  22
ATOM     22  C   LIG d   1      -2.644  77.839 111.476  0.00  0.00     0.382 C 
ATOM     23  O   LIG d   1      -2.813  77.454 110.294  0.00  0.00    -0.241 OA
ATOM     24  O   LIG d   1      -3.429  77.457 112.364  0.00  0.00    -0.241 OA
ENDBRANCH   3  22
TORSDOF 7
ENDMDL
MODEL 4
REMARK VINA RESULT:      -4.2      6.197      7.659
REMARK  7 active torsions:
REMARK  status: ('A' for Active; 'I' for Inactive)
REMARK    1  A    between atoms: C_2  and  C_3 
REMARK    2  A    between atoms: C_3  and  O_6 
REMARK    3  A    between atoms: C_3  and  C_4 
REMARK    4  A    between atoms: C_7  and  O_6 
REMARK    5  A    between atoms: C_9  and  C_10 
REMARK    6  A    between atoms: N_15  and  C_14 
REMARK    7  A    between atoms: N_20  and  C_19 
REMARK       I    between atoms: C_22  and  N_20 
ROOT
ATOM      1  C   LIG d   1       0.032  77.970 116.210  0.00  0.00     0.161 C 
ATOM      2  C   LIG d   1      -0.971  78.320 115.292  0.00  0.00     0.016 C 
ATOM      3  C   LIG d   1      -1.630  77.382 114.464  0.00  0.00     0.038 C 
ATOM      4  C   LIG d   1      -1.434  76.000 114.608  0.00  0.00     0.028 C 
ATOM      5  C   LIG d   1      -0.065  75.638 115.171  0.00  0.00    -0.047 C 
ATOM      6  C   LIG d   1       0.180  76.454 116.460  0.00  0.00     0.091 C 
ENDROOT
BRANCH   1   7
ATOM      7  O   LIG d   1      -0.181  78.664 117.455  0.00  0.00    -0.368 OA
BRANCH   7   8
ATOM      8  C   LIG d   1      -1.544  79.068 117.734  0.00  0.00     0.119 C 
BRANCH   8   9
ATOM      9  C   LIG d   1      -1.486  80.431 118.451  0.00  0.00     0.028 C 
ATOM     10  C   LIG d   1      -2.875  80.924 118.888  0.00  0.00     0.006 C 
ENDBRANCH   8   9
BRANCH   8  11
ATOM     11  C   LIG d   1      -2.215  78.116 118.728  0.00  0.00     0.028 C 
ATOM     12  C   LIG d   1      -3.224  77.169 118.058  0.00  0.00     0.006 C 
ENDBRANCH   8  11
ENDBRANCH   7   8
ENDBRANCH   1   7
BRANCH   6  13
ATOM     13  N   LIG d   1       1.533  76.222 117.030  0.00  0.00    -0.311 N 
ATOM     14  C   LIG d   1       1.780  75.341 117.998  0.00  0.00     0.210 C 
ATOM     15  C   LIG d   1       3.241  75.274 118.454  0.00  0.00     0.109 C 
ATOM     16  O   LIG d   1       0.933  74.586 118.499  0.00  0.00    -0.276 OA
ATOM     17  H   LIG d   1       2.284  76.770 116.659  0.00  0.00     0.149 HD
ENDBRANCH   6  13
BRANCH   5  18
ATOM     18  N   LIG d   1      -0.047  74.180 115.398  0.00  0.00     0.381 N 
ATOM     19  H   LIG d   1      -0.561  73.960 116.228  0.00  0.00    -0.090 HD
ATOM     20  H   LIG d   1       0.903  73.882 115.527  0.00  0.00    -0.090 HD
ATOM     21  H   LIG d   1      -0.448  73.709 114.616  0.00  0.00    -0.090 HD
ENDBRANCH   5  18
BRANCH   3  22
ATOM     22  C   LIG d   1      -2.466  77.827 113.451  0.00  0.00     0.382 C 
ATOM     23  O   LIG d   1      -2.582  77.160 112.395  0.00  0.00    -0.241 OA
ATOM     24  O   LIG d   1      -3.072  78.910 113.563  0.00  0.00    -0.241 OA
ENDBRANCH   3  22
TORSDOF 7
ENDMDL
MODEL 5
REMARK VINA RESULT:      -4.1      5.356      7.729
REMARK  7 active torsions:
REMARK  status: ('A' for Active; 'I' for Inactive)
REMARK    1  A    between atoms: C_2  and  C_3 
REMARK    2  A    between atoms: C_3  and  O_6 
REMARK    3  A    between atoms: C_3  and  C_4 
REMARK    4  A    between atoms: C_7  and  O_6 
REMARK    5  A    between atoms: C_9  and  C_10 
REMARK    6  A    between atoms: N_15  and  C_14 
REMARK    7  A    between atoms: N_20  and  C_19 
REMARK       I    between atoms: C_22  and  N_20 
ROOT
ATOM      1  C   LIG d   1      -1.781  77.121 116.257  0.00  0.00     0.161 C 
ATOM      2  C   LIG d   1      -2.395  77.181 114.995  0.00  0.00     0.016 C 
ATOM      3  C   LIG d   1      -1.977  78.056 113.966  0.00  0.00     0.038 C 
ATOM      4  C   LIG d   1      -0.813  78.830 114.080  0.00  0.00     0.028 C 
ATOM      5  C   LIG d   1      -0.453  79.176 115.521  0.00  0.00    -0.047 C 
ATOM      6  C   LIG d   1      -0.440  77.878 116.360  0.00  0.00     0.091 C 
ENDROOT
BRANCH   1   7
ATOM      7  O   LIG d   1      -1.612  75.745 116.653  0.00  0.00    -0.368 OA
BRANCH   7   8
ATOM      8  C   LIG d   1      -0.311  75.163 116.393  0.00  0.00     0.119 C 
BRANCH   8   9
ATOM      9  C   LIG d   1      -0.432  74.310 115.115  0.00  0.00     0.028 C 
ATOM     10  C   LIG d   1       0.310  74.934 113.921  0.00  0.00     0.006 C 
ENDBRANCH   8   9
BRANCH   8  11
ATOM     11  C   LIG d   1       0.091  74.182 117.499  0.00  0.00     0.028 C 
ATOM     12  C   LIG d   1      -0.412  74.609 118.886  0.00  0.00     0.006 C 
ENDBRANCH   8  11
ENDBRANCH   7   8
ENDBRANCH   1   7
BRANCH   6  13
ATOM     13  N   LIG d   1      -0.179  78.136 117.800  0.00  0.00    -0.311 N 
ATOM     14  C   LIG d   1       1.024  78.020 118.359  0.00  0.00     0.210 C 
ATOM     15  C   LIG d   1       1.069  78.313 119.862  0.00  0.00     0.109 C 
ATOM     16  O   LIG d   1       2.064  77.734 117.747  0.00  0.00    -0.276 OA
ATOM     17  H   LIG d   1      -0.962  78.404 118.364  0.00  0.00     0.149 HD
ENDBRANCH   6  13
BRANCH   5  18
ATOM     18  N   LIG d   1       0.852  79.864 115.501  0.00  0.00     0.381 N 
ATOM     19  H   LIG d   1       1.268  79.776 114.596  0.00  0.00    -0.090 HD
ATOM     20  H   LIG d   1       1.460  79.427 116.171  0.00  0.00    -0.090 HD
ATOM     21  H   LIG d   1       0.733  80.827 115.728  0.00  0.00    -0.090 HD
ENDBRANCH   5  18
BRANCH   3  22
ATOM     22  C   LIG d   1      -2.751  78.194 112.824  0.00  0.00     0.382 C 
ATOM     23  O   LIG d   1      -3.070  77.180 112.157  0.00  0.00    -0.241 OA
ATOM     24  O   LIG d   1      -3.097  79.323 112.427  0.00  0.00    -0.241 OA
ENDBRANCH   3  22
TORSDOF 7
ENDMDL
MODEL 6
REMARK VINA RESULT:      -4.0      4.672      6.162
REMARK  7 active torsions:
REMARK  status: ('A' for Active; 'I' for Inactive)
REMARK    1  A    between atoms: C_2  and  C_3 
REMARK    2  A    between atoms: C_3  and  O_6 
REMARK    3  A    between atoms: C_3  and  C_4 
REMARK    4  A    between atoms: C_7  and  O_6 
REMARK    5  A    between atoms: C_9  and  C_10 
REMARK    6  A    between atoms: N_15  and  C_14 
REMARK    7  A    between atoms: N_20  and  C_19 
REMARK       I    between atoms: C_22  and  N_20 
ROOT
ATOM      1  C   LIG d   1      -0.748  78.389 115.136  0.00  0.00     0.161 C 
ATOM      2  C   LIG d   1      -1.038  78.740 113.807  0.00  0.00     0.016 C 
ATOM      3  C   LIG d   1      -2.003  78.072 113.019  0.00  0.00     0.038 C 
ATOM      4  C   LIG d   1      -2.857  77.099 113.559  0.00  0.00     0.028 C 
ATOM      5  C   LIG d   1      -2.259  76.364 114.753  0.00  0.00    -0.047 C 
ATOM      6  C   LIG d   1      -1.747  77.402 115.777  0.00  0.00     0.091 C 
ENDROOT
BRANCH   1   7
ATOM      7  O   LIG d   1      -0.632  79.578 115.942  0.00  0.00    -0.368 OA
BRANCH   7   8
ATOM      8  C   LIG d   1       0.555  79.675 116.768  0.00  0.00     0.119 C 
BRANCH   8   9
ATOM      9  C   LIG d   1       0.181  80.491 118.021  0.00  0.00     0.028 C 
ATOM     10  C   LIG d   1      -1.340  80.579 118.232  0.00  0.00     0.006 C 
ENDBRANCH   8   9
BRANCH   8  11
ATOM     11  C   LIG d   1       1.654  80.483 116.071  0.00  0.00     0.028 C 
ATOM     12  C   LIG d   1       2.231  81.595 116.960  0.00  0.00     0.006 C 
ENDBRANCH   8  11
ENDBRANCH   7   8
ENDBRANCH   1   7
BRANCH   6  13
ATOM     13  N   LIG d   1      -1.071  76.768 116.938  0.00  0.00    -0.311 N 
ATOM     14  C   LIG d   1      -1.559  76.797 118.177  0.00  0.00     0.210 C 
ATOM     15  C   LIG d   1      -0.693  76.099 119.230  0.00  0.00     0.109 C 
ATOM     16  O   LIG d   1      -2.643  77.308 118.498  0.00  0.00    -0.276 OA
ATOM     17  H   LIG d   1      -0.201  76.304 116.762  0.00  0.00     0.149 HD
ENDBRANCH   6  13
BRANCH   5  18
ATOM     18  N   LIG d   1      -3.304  75.478 115.300  0.00  0.00     0.381 N 
ATOM     19  H   LIG d   1      -2.879  74.713 115.786  0.00  0.00    -0.090 HD
ATOM     20  H   LIG d   1      -3.846  75.107 114.540  0.00  0.00    -0.090 HD
ATOM     21  H   LIG d   1      -3.893  75.989 115.920  0.00  0.00    -0.090 HD
ENDBRANCH   5  18
BRANCH   3  22
ATOM     22  C   LIG d   1      -2.094  78.350 111.663  0.00  0.00     0.382 C 
ATOM     23  O   LIG d   1      -2.550  77.486 110.876  0.00  0.00    -0.241 OA
ATOM     24  O   LIG d   1      -1.685  79.436 111.212  0.00  0.00    -0.241 OA
ENDBRANCH   3  22
TORSDOF 7
ENDMDL
MODEL 7
REMARK VINA RESULT:      -3.9      4.712      7.539
REMARK  7 active torsions:
REMARK  status: ('A' for Active; 'I' for Inactive)
REMARK    1  A    between atoms: C_2  and  C_3 
REMARK    2  A    between atoms: C_3  and  O_6 
REMARK    3  A    between atoms: C_3  and  C_4 
REMARK    4  A    between atoms: C_7  and  O_6 
REMARK    5  A    between atoms: C_9  and  C_10 
REMARK    6  A    between atoms: N_15  and  C_14 
REMARK    7  A    between atoms: N_20  and  C_19 
REMARK       I    between atoms: C_22  and  N_20 
ROOT
ATOM      1  C   LIG d   1      -0.908  78.164 116.940  0.00  0.00     0.161 C 
ATOM      2  C   LIG d   1      -1.725  77.156 116.403  0.00  0.00     0.016 C 
ATOM      3  C   LIG d   1      -1.975  77.011 115.019  0.00  0.00     0.038 C 
ATOM      4  C   LIG d   1      -1.298  77.779 114.059  0.00  0.00     0.028 C 
ATOM      5  C   LIG d   1      -0.850  79.140 114.579  0.00  0.00    -0.047 C 
ATOM      6  C   LIG d   1      -0.073  78.942 115.901  0.00  0.00     0.091 C 
ENDROOT
BRANCH   1   7
ATOM      7  O   LIG d   1      -0.051  77.609 117.957  0.00  0.00    -0.368 OA
BRANCH   7   8
ATOM      8  C   LIG d   1       0.847  76.556 117.528  0.00  0.00     0.119 C 
BRANCH   8   9
ATOM      9  C   LIG d   1       0.422  75.263 118.251  0.00  0.00     0.028 C 
ATOM     10  C   LIG d   1      -0.071  74.180 117.276  0.00  0.00     0.006 C 
ENDBRANCH   8   9
BRANCH   8  11
ATOM     11  C   LIG d   1       2.282  76.825 117.989  0.00  0.00     0.028 C 
ATOM     12  C   LIG d   1       3.329  76.444 116.931  0.00  0.00     0.006 C 
ENDBRANCH   8  11
ENDBRANCH   7   8
ENDBRANCH   1   7
BRANCH   6  13
ATOM     13  N   LIG d   1       0.329  80.231 116.521  0.00  0.00    -0.311 N 
ATOM     14  C   LIG d   1       1.594  80.557 116.780  0.00  0.00     0.210 C 
ATOM     15  C   LIG d   1       1.787  81.926 117.440  0.00  0.00     0.109 C 
ATOM     16  O   LIG d   1       2.577  79.857 116.495  0.00  0.00    -0.276 OA
ATOM     17  H   LIG d   1      -0.403  80.873 116.755  0.00  0.00     0.149 HD
ENDBRANCH   6  13
BRANCH   5  18
ATOM     18  N   LIG d   1      -0.040  79.776 113.523  0.00  0.00     0.381 N 
ATOM     19  H   LIG d   1      -0.469  79.627 112.631  0.00  0.00    -0.090 HD
ATOM     20  H   LIG d   1       0.870  79.350 113.510  0.00  0.00    -0.090 HD
ATOM     21  H   LIG d   1       0.045  80.753 113.699  0.00  0.00    -0.090 HD
ENDBRANCH   5  18
BRANCH   3  22
ATOM     22  C   LIG d   1      -2.941  76.116 114.584  0.00  0.00     0.382 C 
ATOM     23  O   LIG d   1      -3.440  76.239 113.440  0.00  0.00    -0.241 OA
ATOM     24  O   LIG d   1      -3.352  75.215 115.339  0.00  0.00    -0.241 OA
ENDBRANCH   3  22
TORSDOF 7
ENDMDL
MODEL 8
REMARK VINA RESULT:      -3.7      2.803      5.357
REMARK  7 active torsions:
REMARK  status: ('A' for Active; 'I' for Inactive)
REMARK    1  A    between atoms: C_2  and  C_3 
REMARK    2  A    between atoms: C_3  and  O_6 
REMARK    3  A    between atoms: C_3  and  C_4 
REMARK    4  A    between atoms: C_7  and  O_6 
REMARK    5  A    between atoms: C_9  and  C_10 
REMARK    6  A    between atoms: N_15  and  C_14 
REMARK    7  A    between atoms: N_20  and  C_19 
REMARK       I    between atoms: C_22  and  N_20 
ROOT
ATOM      1  C   LIG d   1       1.797  81.361 112.289  0.00  0.00     0.161 C 
ATOM      2  C   LIG d   1       1.114  82.253 111.446  0.00  0.00     0.016 C 
ATOM      3  C   LIG d   1       0.843  83.597 111.791  0.00  0.00     0.038 C 
ATOM      4  C   LIG d   1       1.373  84.187 112.948  0.00  0.00     0.028 C 
ATOM      5  C   LIG d   1       1.641  83.188 114.068  0.00  0.00    -0.047 C 
ATOM      6  C   LIG d   1       2.480  82.017 113.507  0.00  0.00     0.091 C 
ENDROOT
BRANCH   1   7
ATOM      7  O   LIG d   1       2.756  80.603 111.525  0.00  0.00    -0.368 OA
BRANCH   7   8
ATOM      8  C   LIG d   1       2.751  80.828 110.093  0.00  0.00     0.119 C 
BRANCH   8   9
ATOM      9  C   LIG d   1       2.150  79.574 109.430  0.00  0.00     0.028 C 
ATOM     10  C   LIG d   1       0.635  79.454 109.667  0.00  0.00     0.006 C 
ENDBRANCH   8   9
BRANCH   8  11
ATOM     11  C   LIG d   1       4.175  80.936 109.541  0.00  0.00     0.028 C 
ATOM     12  C   LIG d   1       4.670  82.388 109.446  0.00  0.00     0.006 C 
ENDBRANCH   8  11
ENDBRANCH   7   8
ENDBRANCH   1   7
BRANCH   6  13
ATOM     13  N   LIG d   1       2.715  80.953 114.518  0.00  0.00    -0.311 N 
ATOM     14  C   LIG d   1       3.638  81.042 115.475  0.00  0.00     0.210 C 
ATOM     15  C   LIG d   1       3.729  79.825 116.400  0.00  0.00     0.109 C 
ATOM     16  O   LIG d   1       4.367  82.027 115.665  0.00  0.00    -0.276 OA
ATOM     17  H   LIG d   1       2.146  80.132 114.457  0.00  0.00     0.149 HD
ENDBRANCH   6  13
BRANCH   5  18
ATOM     18  N   LIG d   1       2.319  83.913 115.160  0.00  0.00     0.381 N 
ATOM     19  H   LIG d   1       2.282  84.898 114.985  0.00  0.00    -0.090 HD
ATOM     20  H   LIG d   1       3.283  83.633 115.186  0.00  0.00    -0.090 HD
ATOM     21  H   LIG d   1       1.881  83.706 116.030  0.00  0.00    -0.090 HD
ENDBRANCH   5  18
BRANCH   3  22
ATOM     22  C   LIG d   1      -0.000  84.355 110.992  0.00  0.00     0.382 C 
ATOM     23  O   LIG d   1      -1.137  84.680 111.413  0.00  0.00    -0.241 OA
ATOM     24  O   LIG d   1       0.344  84.680 109.840  0.00  0.00    -0.241 OA
ENDBRANCH   3  22
TORSDOF 7
ENDMDL
MODEL 9
REMARK VINA RESULT:      -3.6      4.428      6.948
REMARK  7 active torsions:
REMARK  status: ('A' for Active; 'I' for Inactive)
REMARK    1  A    between atoms: C_2  and  C_3 
REMARK    2  A    between atoms: C_3  and  O_6 
REMARK    3  A    between atoms: C_3  and  C_4 
REMARK    4  A    between atoms: C_7  and  O_6 
REMARK    5  A    between atoms: C_9  and  C_10 
REMARK    6  A    between atoms: N_15  and  C_14 
REMARK    7  A    between atoms: N_20  and  C_19 
REMARK       I    between atoms: C_22  and  N_20 
ROOT
ATOM      1  C   LIG d   1      -1.195  78.673 116.583  0.00  0.00     0.161 C 
ATOM      2  C   LIG d   1      -0.670  77.913 117.642  0.00  0.00     0.016 C 
ATOM      3  C   LIG d   1      -0.037  76.662 117.462  0.00  0.00     0.038 C 
ATOM      4  C   LIG d   1       0.251  76.153 116.187  0.00  0.00     0.028 C 
ATOM      5  C   LIG d   1      -0.708  76.645 115.108  0.00  0.00    -0.047 C 
ATOM      6  C   LIG d   1      -0.791  78.187 115.176  0.00  0.00     0.091 C 
ENDROOT
BRANCH   1   7
ATOM      7  O   LIG d   1      -0.840  80.060 116.755  0.00  0.00    -0.368 OA
BRANCH   7   8
ATOM      8  C   LIG d   1       0.282  80.327 117.633  0.00  0.00     0.119 C 
BRANCH   8   9
ATOM      9  C   LIG d   1      -0.028  81.628 118.397  0.00  0.00     0.028 C 
ATOM     10  C   LIG d   1      -0.380  81.373 119.873  0.00  0.00     0.006 C 
ENDBRANCH   8   9
BRANCH   8  11
ATOM     11  C   LIG d   1       1.556  80.619 116.835  0.00  0.00     0.028 C 
ATOM     12  C   LIG d   1       2.668  79.589 117.091  0.00  0.00     0.006 C 
ENDBRANCH   8  11
ENDBRANCH   7   8
ENDBRANCH   1   7
BRANCH   6  13
ATOM     13  N   LIG d   1      -1.772  78.745 114.209  0.00  0.00    -0.311 N 
ATOM     14  C   LIG d   1      -1.453  79.640 113.276  0.00  0.00     0.210 C 
ATOM     15  C   LIG d   1      -2.620  80.099 112.395  0.00  0.00     0.109 C 
ATOM     16  O   LIG d   1      -0.309  80.074 113.073  0.00  0.00    -0.276 OA
ATOM     17  H   LIG d   1      -2.718  78.424 114.282  0.00  0.00     0.149 HD
ENDBRANCH   6  13
BRANCH   5  18
ATOM     18  N   LIG d   1      -0.211  76.149 113.811  0.00  0.00     0.381 N 
ATOM     19  H   LIG d   1       0.272  75.283 113.942  0.00  0.00    -0.090 HD
ATOM     20  H   LIG d   1       0.438  76.818 113.434  0.00  0.00    -0.090 HD
ATOM     21  H   LIG d   1      -0.971  76.022 113.180  0.00  0.00    -0.090 HD
ENDBRANCH   5  18
BRANCH   3  22
ATOM     22  C   LIG d   1       0.279  75.887 118.568  0.00  0.00     0.382 C 
ATOM     23  O   LIG d   1       0.109  76.344 119.724  0.00  0.00    -0.241 OA
ATOM     24  O   LIG d   1       0.774  74.753 118.423  0.00  0.00    -0.241 OA
ENDBRANCH   3  22
TORSDOF 7
ENDMDL
