MODEL 1
REMARK VINA RESULT:      -5.0      0.000      0.000
REMARK  7 active torsions:
REMARK  status: ('A' for Active; 'I' for Inactive)
REMARK    1  A    between atoms: C_2  and  C_3 
REMARK    2  A    between atoms: C_3  and  O_6 
REMARK    3  A    between atoms: C_3  and  C_4 
REMARK    4  A    between atoms: C_7  and  O_6 
REMARK    5  A    between atoms: C_9  and  C_10 
REMARK    6  A    between atoms: N_15  and  C_14 
REMARK    7  A    between atoms: N_20  and  C_19 
REMARK       I    between atoms: C_22  and  N_20 
ROOT
ATOM      1  C   LIG d   1       1.405  81.112 112.497  0.00  0.00     0.161 C 
ATOM      2  C   LIG d   1       2.531  81.373 111.698  0.00  0.00     0.016 C 
ATOM      3  C   LIG d   1       2.664  80.917 110.366  0.00  0.00     0.038 C 
ATOM      4  C   LIG d   1       1.607  80.293 109.688  0.00  0.00     0.028 C 
ATOM      5  C   LIG d   1       0.640  79.563 110.614  0.00  0.00    -0.047 C 
ATOM      6  C   LIG d   1       0.196  80.528 111.737  0.00  0.00     0.091 C 
ENDROOT
BRANCH   1   7
ATOM      7  O   LIG d   1       1.022  82.306 113.207  0.00  0.00    -0.368 OA
BRANCH   7   8
ATOM      8  C   LIG d   1       1.358  83.562 112.569  0.00  0.00     0.119 C 
BRANCH   8   9
ATOM      9  C   LIG d   1       1.720  84.564 113.683  0.00  0.00     0.028 C 
ATOM     10  C   LIG d   1       2.849  84.049 114.592  0.00  0.00     0.006 C 
ENDBRANCH   8   9
BRANCH   8  11
ATOM     11  C   LIG d   1       0.145  84.168 111.857  0.00  0.00     0.028 C 
ATOM     12  C   LIG d   1       0.254  84.094 110.326  0.00  0.00     0.006 C 
ENDBRANCH   8  11
ENDBRANCH   7   8
ENDBRANCH   1   7
BRANCH   6  13
ATOM     13  N   LIG d   1      -0.686  79.868 112.735  0.00  0.00    -0.311 N 
ATOM     14  C   LIG d   1      -1.961  80.205 112.923  0.00  0.00     0.210 C 
ATOM     15  C   LIG d   1      -2.685  79.412 114.016  0.00  0.00     0.109 C 
ATOM     16  O   LIG d   1      -2.570  81.063 112.267  0.00  0.00    -0.276 OA
ATOM     17  H   LIG d   1      -0.282  79.139 113.290  0.00  0.00     0.149 HD
ENDBRANCH   6  13
BRANCH   5  18
ATOM     18  N   LIG d   1      -0.484  79.077 109.791  0.00  0.00     0.381 N 
ATOM     19  H   LIG d   1      -0.550  79.619 108.953  0.00  0.00    -0.090 HD
ATOM     20  H   LIG d   1      -1.338  79.191 110.308  0.00  0.00    -0.090 HD
ATOM     21  H   LIG d   1      -0.350  78.116 109.564  0.00  0.00    -0.090 HD
ENDBRANCH   5  18
BRANCH   3  22
ATOM     22  C   LIG d   1       3.879  81.050 109.713  0.00  0.00     0.382 C 
ATOM     23  O   LIG d   1       4.554  80.030 109.430  0.00  0.00    -0.241 OA
ATOM     24  O   LIG d   1       4.331  82.178 109.441  0.00  0.00    -0.241 OA
ENDBRANCH   3  22
TORSDOF 7
ENDMDL
MODEL 2
REMARK VINA RESULT:      -5.0      1.617      4.605
REMARK  7 active torsions:
REMARK  status: ('A' for Active; 'I' for Inactive)
REMARK    1  A    between atoms: C_2  and  C_3 
REMARK    2  A    between atoms: C_3  and  O_6 
REMARK    3  A    between atoms: C_3  and  C_4 
REMARK    4  A    between atoms: C_7  and  O_6 
REMARK    5  A    between atoms: C_9  and  C_10 
REMARK    6  A    between atoms: N_15  and  C_14 
REMARK    7  A    between atoms: N_20  and  C_19 
REMARK       I    between atoms: C_22  and  N_20 
ROOT
ATOM      1  C   LIG d   1       0.114  81.338 111.637  0.00  0.00     0.161 C 
ATOM      2  C   LIG d   1      -1.049  80.683 112.074  0.00  0.00     0.016 C 
ATOM      3  C   LIG d   1      -1.378  79.357 111.711  0.00  0.00     0.038 C 
ATOM      4  C   LIG d   1      -0.485  78.539 111.003  0.00  0.00     0.028 C 
ATOM      5  C   LIG d   1       0.477  79.319 110.114  0.00  0.00    -0.047 C 
ATOM      6  C   LIG d   1       1.154  80.425 110.956  0.00  0.00     0.091 C 
ENDROOT
BRANCH   1   7
ATOM      7  O   LIG d   1       0.716  82.050 112.737  0.00  0.00    -0.368 OA
BRANCH   7   8
ATOM      8  C   LIG d   1       1.085  83.427 112.479  0.00  0.00     0.119 C 
BRANCH   8   9
ATOM      9  C   LIG d   1       1.649  84.008 113.790  0.00  0.00     0.028 C 
ATOM     10  C   LIG d   1       3.117  84.445 113.655  0.00  0.00     0.006 C 
ENDBRANCH   8   9
BRANCH   8  11
ATOM     11  C   LIG d   1      -0.143  84.281 112.152  0.00  0.00     0.028 C 
ATOM     12  C   LIG d   1      -0.240  84.639 110.660  0.00  0.00     0.006 C 
ENDBRANCH   8  11
ENDBRANCH   7   8
ENDBRANCH   1   7
BRANCH   6  13
ATOM     13  N   LIG d   1       2.049  81.289 110.143  0.00  0.00    -0.311 N 
ATOM     14  C   LIG d   1       3.354  81.418 110.375  0.00  0.00     0.210 C 
ATOM     15  C   LIG d   1       4.087  82.376 109.431  0.00  0.00     0.109 C 
ATOM     16  O   LIG d   1       3.980  80.806 111.254  0.00  0.00    -0.276 OA
ATOM     17  H   LIG d   1       1.629  81.799 109.390  0.00  0.00     0.149 HD
ENDBRANCH   6  13
BRANCH   5  18
ATOM     18  N   LIG d   1       1.438  78.357 109.544  0.00  0.00     0.381 N 
ATOM     19  H   LIG d   1       2.356  78.755 109.541  0.00  0.00    -0.090 HD
ATOM     20  H   LIG d   1       1.177  78.160 108.593  0.00  0.00    -0.090 HD
ATOM     21  H   LIG d   1       1.435  77.515 110.077  0.00  0.00    -0.090 HD
ENDBRANCH   5  18
BRANCH   3  22
ATOM     22  C   LIG d   1      -2.630  78.849 112.022  0.00  0.00     0.382 C 
ATOM     23  O   LIG d   1      -3.041  77.805 111.460  0.00  0.00    -0.241 OA
ATOM     24  O   LIG d   1      -3.372  79.447 112.824  0.00  0.00    -0.241 OA
ENDBRANCH   3  22
TORSDOF 7
ENDMDL
MODEL 3
REMARK VINA RESULT:      -4.6      1.660      2.355
REMARK  7 active torsions:
REMARK  status: ('A' for Active; 'I' for Inactive)
REMARK    1  A    between atoms: C_2  and  C_3 
REMARK    2  A    between atoms: C_3  and  O_6 
REMARK    3  A    between atoms: C_3  and  C_4 
REMARK    4  A    between atoms: C_7  and  O_6 
REMARK    5  A    between atoms: C_9  and  C_10 
REMARK    6  A    between atoms: N_15  and  C_14 
REMARK    7  A    between atoms: N_20  and  C_19 
REMARK       I    between atoms: C_22  and  N_20 
ROOT
ATOM      1  C   LIG d   1       1.688  81.152 112.543  0.00  0.00     0.161 C 
ATOM      2  C   LIG d   1       2.532  82.046 111.863  0.00  0.00     0.016 C 
ATOM      3  C   LIG d   1       2.417  82.328 110.483  0.00  0.00     0.038 C 
ATOM      4  C   LIG d   1       1.346  81.846 109.714  0.00  0.00     0.028 C 
ATOM      5  C   LIG d   1       0.762  80.540 110.241  0.00  0.00    -0.047 C 
ATOM      6  C   LIG d   1       0.446  80.702 111.745  0.00  0.00     0.091 C 
ENDROOT
BRANCH   1   7
ATOM      7  O   LIG d   1       1.293  81.718 113.808  0.00  0.00    -0.368 OA
BRANCH   7   8
ATOM      8  C   LIG d   1       2.369  82.102 114.698  0.00  0.00     0.119 C 
BRANCH   8   9
ATOM      9  C   LIG d   1       2.258  81.228 115.962  0.00  0.00     0.028 C 
ATOM     10  C   LIG d   1       1.595  81.971 117.134  0.00  0.00     0.006 C 
ENDBRANCH   8   9
BRANCH   8  11
ATOM     11  C   LIG d   1       2.201  83.544 115.187  0.00  0.00     0.028 C 
ATOM     12  C   LIG d   1       3.113  84.534 114.445  0.00  0.00     0.006 C 
ENDBRANCH   8  11
ENDBRANCH   7   8
ENDBRANCH   1   7
BRANCH   6  13
ATOM     13  N   LIG d   1      -0.051  79.443 112.359  0.00  0.00    -0.311 N 
ATOM     14  C   LIG d   1      -1.344  79.140 112.467  0.00  0.00     0.210 C 
ATOM     15  C   LIG d   1      -1.640  77.802 113.150  0.00  0.00     0.109 C 
ATOM     16  O   LIG d   1      -2.272  79.838 112.032  0.00  0.00    -0.276 OA
ATOM     17  H   LIG d   1       0.636  78.805 112.710  0.00  0.00     0.149 HD
ENDBRANCH   6  13
BRANCH   5  18
ATOM     18  N   LIG d   1      -0.429  80.225 109.430  0.00  0.00     0.381 N 
ATOM     19  H   LIG d   1      -0.820  79.354 109.727  0.00  0.00    -0.090 HD
ATOM     20  H   LIG d   1      -0.153  80.135 108.468  0.00  0.00    -0.090 HD
ATOM     21  H   LIG d   1      -1.106  80.950 109.523  0.00  0.00    -0.090 HD
ENDBRANCH   5  18
BRANCH   3  22
ATOM     22  C   LIG d   1       3.402  83.069 109.848  0.00  0.00     0.382 C 
ATOM     23  O   LIG d   1       4.441  82.502 109.431  0.00  0.00    -0.241 OA
ATOM     24  O   LIG d   1       3.286  84.303 109.727  0.00  0.00    -0.241 OA
ENDBRANCH   3  22
TORSDOF 7
ENDMDL
MODEL 4
REMARK VINA RESULT:      -4.1      6.166      7.492
REMARK  7 active torsions:
REMARK  status: ('A' for Active; 'I' for Inactive)
REMARK    1  A    between atoms: C_2  and  C_3 
REMARK    2  A    between atoms: C_3  and  O_6 
REMARK    3  A    between atoms: C_3  and  C_4 
REMARK    4  A    between atoms: C_7  and  O_6 
REMARK    5  A    between atoms: C_9  and  C_10 
REMARK    6  A    between atoms: N_15  and  C_14 
REMARK    7  A    between atoms: N_20  and  C_19 
REMARK       I    between atoms: C_22  and  N_20 
ROOT
ATOM      1  C   LIG d   1      -0.021  78.254 116.495  0.00  0.00     0.161 C 
ATOM      2  C   LIG d   1      -1.126  78.567 115.686  0.00  0.00     0.016 C 
ATOM      3  C   LIG d   1      -1.859  77.599 114.961  0.00  0.00     0.038 C 
ATOM      4  C   LIG d   1      -1.627  76.225 115.117  0.00  0.00     0.028 C 
ATOM      5  C   LIG d   1      -0.197  75.894 115.531  0.00  0.00    -0.047 C 
ATOM      6  C   LIG d   1       0.178  76.748 116.764  0.00  0.00     0.091 C 
ENDROOT
BRANCH   1   7
ATOM      7  O   LIG d   1      -0.104  78.979 117.738  0.00  0.00    -0.368 OA
BRANCH   7   8
ATOM      8  C   LIG d   1      -0.793  80.253 117.688  0.00  0.00     0.119 C 
BRANCH   8   9
ATOM      9  C   LIG d   1       0.265  81.358 117.872  0.00  0.00     0.028 C 
ATOM     10  C   LIG d   1      -0.284  82.574 118.637  0.00  0.00     0.006 C 
ENDBRANCH   8   9
BRANCH   8  11
ATOM     11  C   LIG d   1      -1.756  80.412 118.868  0.00  0.00     0.028 C 
ATOM     12  C   LIG d   1      -3.134  79.788 118.601  0.00  0.00     0.006 C 
ENDBRANCH   8  11
ENDBRANCH   7   8
ENDBRANCH   1   7
BRANCH   6  13
ATOM     13  N   LIG d   1       1.589  76.548 117.184  0.00  0.00    -0.311 N 
ATOM     14  C   LIG d   1       1.957  75.693 118.136  0.00  0.00     0.210 C 
ATOM     15  C   LIG d   1       3.460  75.657 118.428  0.00  0.00     0.109 C 
ATOM     16  O   LIG d   1       1.184  74.937 118.745  0.00  0.00    -0.276 OA
ATOM     17  H   LIG d   1       2.285  77.098 116.720  0.00  0.00     0.149 HD
ENDBRANCH   6  13
BRANCH   5  18
ATOM     18  N   LIG d   1      -0.132  74.444 115.791  0.00  0.00     0.381 N 
ATOM     19  H   LIG d   1       0.544  74.257 116.504  0.00  0.00    -0.090 HD
ATOM     20  H   LIG d   1       0.158  73.976 114.951  0.00  0.00    -0.090 HD
ATOM     21  H   LIG d   1      -1.026  74.108 116.075  0.00  0.00    -0.090 HD
ENDBRANCH   5  18
BRANCH   3  22
ATOM     22  C   LIG d   1      -2.810  78.007 114.038  0.00  0.00     0.382 C 
ATOM     23  O   LIG d   1      -3.133  79.217 113.963  0.00  0.00    -0.241 OA
ATOM     24  O   LIG d   1      -3.382  77.173 113.310  0.00  0.00    -0.241 OA
ENDBRANCH   3  22
TORSDOF 7
ENDMDL
MODEL 5
REMARK VINA RESULT:      -4.0      2.828      5.160
REMARK  7 active torsions:
REMARK  status: ('A' for Active; 'I' for Inactive)
REMARK    1  A    between atoms: C_2  and  C_3 
REMARK    2  A    between atoms: C_3  and  O_6 
REMARK    3  A    between atoms: C_3  and  C_4 
REMARK    4  A    between atoms: C_7  and  O_6 
REMARK    5  A    between atoms: C_9  and  C_10 
REMARK    6  A    between atoms: N_15  and  C_14 
REMARK    7  A    between atoms: N_20  and  C_19 
REMARK       I    between atoms: C_22  and  N_20 
ROOT
ATOM      1  C   LIG d   1       0.247  80.180 112.923  0.00  0.00     0.161 C 
ATOM      2  C   LIG d   1      -0.829  79.529 112.296  0.00  0.00     0.016 C 
ATOM      3  C   LIG d   1      -1.766  78.729 112.990  0.00  0.00     0.038 C 
ATOM      4  C   LIG d   1      -1.779  78.648 114.390  0.00  0.00     0.028 C 
ATOM      5  C   LIG d   1      -0.410  78.880 115.023  0.00  0.00    -0.047 C 
ATOM      6  C   LIG d   1       0.184  80.193 114.465  0.00  0.00     0.091 C 
ENDROOT
BRANCH   1   7
ATOM      7  O   LIG d   1       0.369  81.523 112.415  0.00  0.00    -0.368 OA
BRANCH   7   8
ATOM      8  C   LIG d   1       0.949  81.654 111.094  0.00  0.00     0.119 C 
BRANCH   8   9
ATOM      9  C   LIG d   1       2.481  81.619 111.255  0.00  0.00     0.028 C 
ATOM     10  C   LIG d   1       3.186  82.675 110.387  0.00  0.00     0.006 C 
ENDBRANCH   8   9
BRANCH   8  11
ATOM     11  C   LIG d   1       0.637  83.023 110.482  0.00  0.00     0.028 C 
ATOM     12  C   LIG d   1      -0.558  83.718 111.154  0.00  0.00     0.006 C 
ENDBRANCH   8  11
ENDBRANCH   7   8
ENDBRANCH   1   7
BRANCH   6  13
ATOM     13  N   LIG d   1       1.559  80.452 114.968  0.00  0.00    -0.311 N 
ATOM     14  C   LIG d   1       1.816  81.162 116.065  0.00  0.00     0.210 C 
ATOM     15  C   LIG d   1       3.303  81.325 116.396  0.00  0.00     0.109 C 
ATOM     16  O   LIG d   1       0.953  81.645 116.813  0.00  0.00    -0.276 OA
ATOM     17  H   LIG d   1       2.318  80.070 114.439  0.00  0.00     0.149 HD
ENDBRANCH   6  13
BRANCH   5  18
ATOM     18  N   LIG d   1      -0.594  78.904 116.486  0.00  0.00     0.381 N 
ATOM     19  H   LIG d   1      -0.918  78.011 116.802  0.00  0.00    -0.090 HD
ATOM     20  H   LIG d   1      -1.292  79.591 116.715  0.00  0.00    -0.090 HD
ATOM     21  H   LIG d   1       0.266  79.131 116.934  0.00  0.00    -0.090 HD
ENDBRANCH   5  18
BRANCH   3  22
ATOM     22  C   LIG d   1      -2.680  77.968 112.277  0.00  0.00     0.382 C 
ATOM     23  O   LIG d   1      -3.439  77.173 112.882  0.00  0.00    -0.241 OA
ATOM     24  O   LIG d   1      -2.724  78.033 111.034  0.00  0.00    -0.241 OA
ENDBRANCH   3  22
TORSDOF 7
ENDMDL
MODEL 6
REMARK VINA RESULT:      -3.8      5.935      7.243
REMARK  7 active torsions:
REMARK  status: ('A' for Active; 'I' for Inactive)
REMARK    1  A    between atoms: C_2  and  C_3 
REMARK    2  A    between atoms: C_3  and  O_6 
REMARK    3  A    between atoms: C_3  and  C_4 
REMARK    4  A    between atoms: C_7  and  O_6 
REMARK    5  A    between atoms: C_9  and  C_10 
REMARK    6  A    between atoms: N_15  and  C_14 
REMARK    7  A    between atoms: N_20  and  C_19 
REMARK       I    between atoms: C_22  and  N_20 
ROOT
ATOM      1  C   LIG d   1       0.038  78.522 116.632  0.00  0.00     0.161 C 
ATOM      2  C   LIG d   1      -1.026  78.947 115.819  0.00  0.00     0.016 C 
ATOM      3  C   LIG d   1      -1.764  78.076 114.986  0.00  0.00     0.038 C 
ATOM      4  C   LIG d   1      -1.585  76.685 115.023  0.00  0.00     0.028 C 
ATOM      5  C   LIG d   1      -0.183  76.266 115.452  0.00  0.00    -0.047 C 
ATOM      6  C   LIG d   1       0.176  76.991 116.770  0.00  0.00     0.091 C 
ENDROOT
BRANCH   1   7
ATOM      7  O   LIG d   1      -0.066  79.135 117.933  0.00  0.00    -0.368 OA
BRANCH   7   8
ATOM      8  C   LIG d   1       0.695  80.353 118.127  0.00  0.00     0.119 C 
BRANCH   8   9
ATOM      9  C   LIG d   1       1.750  80.072 119.214  0.00  0.00     0.028 C 
ATOM     10  C   LIG d   1       3.119  79.701 118.620  0.00  0.00     0.006 C 
ENDBRANCH   8   9
BRANCH   8  11
ATOM     11  C   LIG d   1      -0.183  81.473 118.693  0.00  0.00     0.028 C 
ATOM     12  C   LIG d   1       0.241  82.867 118.204  0.00  0.00     0.006 C 
ENDBRANCH   8  11
ENDBRANCH   7   8
ENDBRANCH   1   7
BRANCH   6  13
ATOM     13  N   LIG d   1       1.564  76.703 117.216  0.00  0.00    -0.311 N 
ATOM     14  C   LIG d   1       1.868  75.748 118.093  0.00  0.00     0.210 C 
ATOM     15  C   LIG d   1       3.358  75.631 118.430  0.00  0.00     0.109 C 
ATOM     16  O   LIG d   1       1.050  74.965 118.599  0.00  0.00    -0.276 OA
ATOM     17  H   LIG d   1       2.294  77.270 116.832  0.00  0.00     0.149 HD
ENDBRANCH   6  13
BRANCH   5  18
ATOM     18  N   LIG d   1      -0.176  74.797 115.581  0.00  0.00     0.381 N 
ATOM     19  H   LIG d   1       0.363  74.529 116.380  0.00  0.00    -0.090 HD
ATOM     20  H   LIG d   1       0.253  74.401 114.763  0.00  0.00    -0.090 HD
ATOM     21  H   LIG d   1      -1.109  74.459 115.672  0.00  0.00    -0.090 HD
ENDBRANCH   5  18
BRANCH   3  22
ATOM     22  C   LIG d   1      -2.667  78.600 114.073  0.00  0.00     0.382 C 
ATOM     23  O   LIG d   1      -3.160  77.863 113.185  0.00  0.00    -0.241 OA
ATOM     24  O   LIG d   1      -2.961  79.810 114.099  0.00  0.00    -0.241 OA
ENDBRANCH   3  22
TORSDOF 7
ENDMDL
MODEL 7
REMARK VINA RESULT:      -3.8      5.368      8.251
REMARK  7 active torsions:
REMARK  status: ('A' for Active; 'I' for Inactive)
REMARK    1  A    between atoms: C_2  and  C_3 
REMARK    2  A    between atoms: C_3  and  O_6 
REMARK    3  A    between atoms: C_3  and  C_4 
REMARK    4  A    between atoms: C_7  and  O_6 
REMARK    5  A    between atoms: C_9  and  C_10 
REMARK    6  A    between atoms: N_15  and  C_14 
REMARK    7  A    between atoms: N_20  and  C_19 
REMARK       I    between atoms: C_22  and  N_20 
ROOT
ATOM      1  C   LIG d   1      -1.854  76.782 115.951  0.00  0.00     0.161 C 
ATOM      2  C   LIG d   1      -2.346  76.914 114.642  0.00  0.00     0.016 C 
ATOM      3  C   LIG d   1      -1.926  77.927 113.750  0.00  0.00     0.038 C 
ATOM      4  C   LIG d   1      -0.865  78.793 114.059  0.00  0.00     0.028 C 
ATOM      5  C   LIG d   1      -0.684  79.019 115.556  0.00  0.00    -0.047 C 
ATOM      6  C   LIG d   1      -0.616  77.648 116.266  0.00  0.00     0.091 C 
ENDROOT
BRANCH   1   7
ATOM      7  O   LIG d   1      -1.580  75.395 116.233  0.00  0.00    -0.368 OA
BRANCH   7   8
ATOM      8  C   LIG d   1      -2.490  74.739 117.149  0.00  0.00     0.119 C 
BRANCH   8   9
ATOM      9  C   LIG d   1      -3.440  75.816 117.708  0.00  0.00     0.028 C 
ATOM     10  C   LIG d   1      -3.382  75.910 119.242  0.00  0.00     0.006 C 
ENDBRANCH   8   9
BRANCH   8  11
ATOM     11  C   LIG d   1      -1.748  74.180 118.367  0.00  0.00     0.028 C 
ATOM     12  C   LIG d   1      -0.222  74.187 118.190  0.00  0.00     0.006 C 
ENDBRANCH   8  11
ENDBRANCH   7   8
ENDBRANCH   1   7
BRANCH   6  13
ATOM     13  N   LIG d   1      -0.524  77.780 117.744  0.00  0.00    -0.311 N 
ATOM     14  C   LIG d   1       0.630  77.791 118.408  0.00  0.00     0.210 C 
ATOM     15  C   LIG d   1       0.499  77.915 119.930  0.00  0.00     0.109 C 
ATOM     16  O   LIG d   1       1.751  77.742 117.880  0.00  0.00    -0.276 OA
ATOM     17  H   LIG d   1      -1.385  77.856 118.250  0.00  0.00     0.149 HD
ENDBRANCH   6  13
BRANCH   5  18
ATOM     18  N   LIG d   1       0.536  79.827 115.740  0.00  0.00     0.381 N 
ATOM     19  H   LIG d   1       0.349  80.586 116.364  0.00  0.00    -0.090 HD
ATOM     20  H   LIG d   1       0.810  80.209 114.852  0.00  0.00    -0.090 HD
ATOM     21  H   LIG d   1       1.269  79.260 116.106  0.00  0.00    -0.090 HD
ENDBRANCH   5  18
BRANCH   3  22
ATOM     22  C   LIG d   1      -2.595  78.108 112.550  0.00  0.00     0.382 C 
ATOM     23  O   LIG d   1      -2.618  77.186 111.699  0.00  0.00    -0.241 OA
ATOM     24  O   LIG d   1      -3.140  79.197 112.288  0.00  0.00    -0.241 OA
ENDBRANCH   3  22
TORSDOF 7
ENDMDL
MODEL 8
REMARK VINA RESULT:      -3.6      2.176      4.871
REMARK  7 active torsions:
REMARK  status: ('A' for Active; 'I' for Inactive)
REMARK    1  A    between atoms: C_2  and  C_3 
REMARK    2  A    between atoms: C_3  and  O_6 
REMARK    3  A    between atoms: C_3  and  C_4 
REMARK    4  A    between atoms: C_7  and  O_6 
REMARK    5  A    between atoms: C_9  and  C_10 
REMARK    6  A    between atoms: N_15  and  C_14 
REMARK    7  A    between atoms: N_20  and  C_19 
REMARK       I    between atoms: C_22  and  N_20 
ROOT
ATOM      1  C   LIG d   1       1.159  81.304 113.160  0.00  0.00     0.161 C 
ATOM      2  C   LIG d   1       0.270  80.320 113.626  0.00  0.00     0.016 C 
ATOM      3  C   LIG d   1      -0.594  79.588 112.779  0.00  0.00     0.038 C 
ATOM      4  C   LIG d   1      -0.518  79.684 111.381  0.00  0.00     0.028 C 
ATOM      5  C   LIG d   1       0.010  81.029 110.894  0.00  0.00    -0.047 C 
ATOM      6  C   LIG d   1       1.334  81.343 111.628  0.00  0.00     0.091 C 
ENDROOT
BRANCH   1   7
ATOM      7  O   LIG d   1       2.438  81.152 113.807  0.00  0.00    -0.368 OA
BRANCH   7   8
ATOM      8  C   LIG d   1       2.737  82.104 114.858  0.00  0.00     0.119 C 
BRANCH   8   9
ATOM      9  C   LIG d   1       2.152  81.545 116.169  0.00  0.00     0.028 C 
ATOM     10  C   LIG d   1       1.707  82.657 117.134  0.00  0.00     0.006 C 
ENDBRANCH   8   9
BRANCH   8  11
ATOM     11  C   LIG d   1       2.016  83.435 114.626  0.00  0.00     0.028 C 
ATOM     12  C   LIG d   1       2.979  84.584 114.289  0.00  0.00     0.006 C 
ENDBRANCH   8  11
ENDBRANCH   7   8
ENDBRANCH   1   7
BRANCH   6  13
ATOM     13  N   LIG d   1       1.876  82.681 111.272  0.00  0.00    -0.311 N 
ATOM     14  C   LIG d   1       3.135  82.884 110.890  0.00  0.00     0.210 C 
ATOM     15  C   LIG d   1       3.492  84.343 110.588  0.00  0.00     0.109 C 
ATOM     16  O   LIG d   1       3.982  81.990 110.741  0.00  0.00    -0.276 OA
ATOM     17  H   LIG d   1       1.248  83.459 111.335  0.00  0.00     0.149 HD
ENDBRANCH   6  13
BRANCH   5  18
ATOM     18  N   LIG d   1       0.167  80.943 109.430  0.00  0.00     0.381 N 
ATOM     19  H   LIG d   1      -0.487  81.553 108.983  0.00  0.00    -0.090 HD
ATOM     20  H   LIG d   1      -0.028  80.001 109.137  0.00  0.00    -0.090 HD
ATOM     21  H   LIG d   1       1.096  81.193 109.171  0.00  0.00    -0.090 HD
ENDBRANCH   5  18
BRANCH   3  22
ATOM     22  C   LIG d   1      -1.573  78.777 113.331  0.00  0.00     0.382 C 
ATOM     23  O   LIG d   1      -1.248  77.794 114.040  0.00  0.00    -0.241 OA
ATOM     24  O   LIG d   1      -2.777  78.990 113.094  0.00  0.00    -0.241 OA
ENDBRANCH   3  22
TORSDOF 7
ENDMDL
MODEL 9
REMARK VINA RESULT:      -3.6      5.693      7.784
REMARK  7 active torsions:
REMARK  status: ('A' for Active; 'I' for Inactive)
REMARK    1  A    between atoms: C_2  and  C_3 
REMARK    2  A    between atoms: C_3  and  O_6 
REMARK    3  A    between atoms: C_3  and  C_4 
REMARK    4  A    between atoms: C_7  and  O_6 
REMARK    5  A    between atoms: C_9  and  C_10 
REMARK    6  A    between atoms: N_15  and  C_14 
REMARK    7  A    between atoms: N_20  and  C_19 
REMARK       I    between atoms: C_22  and  N_20 
ROOT
ATOM      1  C   LIG d   1      -1.874  77.711 116.152  0.00  0.00     0.161 C 
ATOM      2  C   LIG d   1      -1.963  76.889 117.288  0.00  0.00     0.016 C 
ATOM      3  C   LIG d   1      -1.348  75.618 117.378  0.00  0.00     0.038 C 
ATOM      4  C   LIG d   1      -0.472  75.147 116.390  0.00  0.00     0.028 C 
ATOM      5  C   LIG d   1      -0.754  75.721 115.006  0.00  0.00    -0.047 C 
ATOM      6  C   LIG d   1      -0.831  77.262 115.108  0.00  0.00     0.091 C 
ENDROOT
BRANCH   1   7
ATOM      7  O   LIG d   1      -1.626  79.073 116.554  0.00  0.00    -0.368 OA
BRANCH   7   8
ATOM      8  C   LIG d   1      -0.909  79.250 117.800  0.00  0.00     0.119 C 
BRANCH   8   9
ATOM      9  C   LIG d   1      -1.454  80.524 118.472  0.00  0.00     0.028 C 
ATOM     10  C   LIG d   1      -0.423  81.665 118.491  0.00  0.00     0.006 C 
ENDBRANCH   8   9
BRANCH   8  11
ATOM     11  C   LIG d   1       0.578  79.526 117.553  0.00  0.00     0.028 C 
ATOM     12  C   LIG d   1       1.485  78.390 118.050  0.00  0.00     0.006 C 
ENDBRANCH   8  11
ENDBRANCH   7   8
ENDBRANCH   1   7
BRANCH   6  13
ATOM     13  N   LIG d   1      -1.187  77.898 113.813  0.00  0.00    -0.311 N 
ATOM     14  C   LIG d   1      -2.339  77.680 113.181  0.00  0.00     0.210 C 
ATOM     15  C   LIG d   1      -2.497  78.421 111.850  0.00  0.00     0.109 C 
ATOM     16  O   LIG d   1      -3.258  76.967 113.612  0.00  0.00    -0.276 OA
ATOM     17  H   LIG d   1      -0.512  78.516 113.407  0.00  0.00     0.149 HD
ENDBRANCH   6  13
BRANCH   5  18
ATOM     18  N   LIG d   1       0.315  75.254 114.103  0.00  0.00     0.381 N 
ATOM     19  H   LIG d   1       1.140  75.803 114.242  0.00  0.00    -0.090 HD
ATOM     20  H   LIG d   1       0.013  75.375 113.152  0.00  0.00    -0.090 HD
ATOM     21  H   LIG d   1       0.513  74.293 114.277  0.00  0.00    -0.090 HD
ENDBRANCH   5  18
BRANCH   3  22
ATOM     22  C   LIG d   1      -1.641  74.788 118.450  0.00  0.00     0.382 C 
ATOM     23  O   LIG d   1      -0.716  74.361 119.182  0.00  0.00    -0.241 OA
ATOM     24  O   LIG d   1      -2.812  74.426 118.667  0.00  0.00    -0.241 OA
ENDBRANCH   3  22
TORSDOF 7
ENDMDL
