MODEL 1
REMARK VINA RESULT:      -5.4      0.000      0.000
REMARK  7 active torsions:
REMARK  status: ('A' for Active; 'I' for Inactive)
REMARK    1  A    between atoms: C_2  and  C_3 
REMARK    2  A    between atoms: C_3  and  O_6 
REMARK    3  A    between atoms: C_3  and  C_4 
REMARK    4  A    between atoms: C_7  and  O_6 
REMARK    5  A    between atoms: C_9  and  C_10 
REMARK    6  A    between atoms: N_15  and  C_14 
REMARK    7  A    between atoms: N_20  and  C_19 
REMARK       I    between atoms: C_22  and  N_20 
ROOT
ATOM      1  C   LIG d   1       1.355  80.953 112.412  0.00  0.00     0.161 C 
ATOM      2  C   LIG d   1       2.521  81.281 111.699  0.00  0.00     0.016 C 
ATOM      3  C   LIG d   1       2.728  80.934 110.344  0.00  0.00     0.038 C 
ATOM      4  C   LIG d   1       1.713  80.365 109.561  0.00  0.00     0.028 C 
ATOM      5  C   LIG d   1       0.702  79.560 110.372  0.00  0.00    -0.047 C 
ATOM      6  C   LIG d   1       0.192  80.430 111.543  0.00  0.00     0.091 C 
ENDROOT
BRANCH   1   7
ATOM      7  O   LIG d   1       0.927  82.085 113.194  0.00  0.00    -0.368 OA
BRANCH   7   8
ATOM      8  C   LIG d   1       1.115  83.388 112.588  0.00  0.00     0.119 C 
BRANCH   8   9
ATOM      9  C   LIG d   1       1.654  84.333 113.679  0.00  0.00     0.028 C 
ATOM     10  C   LIG d   1       3.190  84.325 113.757  0.00  0.00     0.006 C 
ENDBRANCH   8   9
BRANCH   8  11
ATOM     11  C   LIG d   1      -0.219  83.996 112.147  0.00  0.00     0.028 C 
ATOM     12  C   LIG d   1      -0.315  84.182 110.624  0.00  0.00     0.006 C 
ENDBRANCH   8  11
ENDBRANCH   7   8
ENDBRANCH   1   7
BRANCH   6  13
ATOM     13  N   LIG d   1      -0.738  79.691 112.436  0.00  0.00    -0.311 N 
ATOM     14  C   LIG d   1      -1.908  80.181 112.844  0.00  0.00     0.210 C 
ATOM     15  C   LIG d   1      -2.703  79.262 113.777  0.00  0.00     0.109 C 
ATOM     16  O   LIG d   1      -2.376  81.275 112.496  0.00  0.00    -0.276 OA
ATOM     17  H   LIG d   1      -0.451  78.781 112.741  0.00  0.00     0.149 HD
ENDBRANCH   6  13
BRANCH   5  18
ATOM     18  N   LIG d   1      -0.373  79.141 109.453  0.00  0.00     0.381 N 
ATOM     19  H   LIG d   1      -1.175  78.854 109.978  0.00  0.00    -0.090 HD
ATOM     20  H   LIG d   1      -0.052  78.355 108.914  0.00  0.00    -0.090 HD
ATOM     21  H   LIG d   1      -0.616  79.892 108.846  0.00  0.00    -0.090 HD
ENDBRANCH   5  18
BRANCH   3  22
ATOM     22  C   LIG d   1       3.976  81.121 109.770  0.00  0.00     0.382 C 
ATOM     23  O   LIG d   1       4.754  80.147 109.631  0.00  0.00    -0.241 OA
ATOM     24  O   LIG d   1       4.351  82.259 109.430  0.00  0.00    -0.241 OA
ENDBRANCH   3  22
TORSDOF 7
ENDMDL
MODEL 2
REMARK VINA RESULT:      -5.2      2.413      4.880
REMARK  7 active torsions:
REMARK  status: ('A' for Active; 'I' for Inactive)
REMARK    1  A    between atoms: C_2  and  C_3 
REMARK    2  A    between atoms: C_3  and  O_6 
REMARK    3  A    between atoms: C_3  and  C_4 
REMARK    4  A    between atoms: C_7  and  O_6 
REMARK    5  A    between atoms: C_9  and  C_10 
REMARK    6  A    between atoms: N_15  and  C_14 
REMARK    7  A    between atoms: N_20  and  C_19 
REMARK       I    between atoms: C_22  and  N_20 
ROOT
ATOM      1  C   LIG d   1       0.744  80.168 111.271  0.00  0.00     0.161 C 
ATOM      2  C   LIG d   1      -0.144  79.128 110.947  0.00  0.00     0.016 C 
ATOM      3  C   LIG d   1      -0.822  78.353 111.916  0.00  0.00     0.038 C 
ATOM      4  C   LIG d   1      -0.774  78.667 113.282  0.00  0.00     0.028 C 
ATOM      5  C   LIG d   1       0.504  79.390 113.693  0.00  0.00    -0.047 C 
ATOM      6  C   LIG d   1       0.722  80.598 112.753  0.00  0.00     0.091 C 
ENDROOT
BRANCH   1   7
ATOM      7  O   LIG d   1       0.499  81.302 110.417  0.00  0.00    -0.368 OA
BRANCH   7   8
ATOM      8  C   LIG d   1       1.542  81.617 109.461  0.00  0.00     0.119 C 
BRANCH   8   9
ATOM      9  C   LIG d   1       2.715  80.653 109.722  0.00  0.00     0.028 C 
ATOM     10  C   LIG d   1       4.047  81.392 109.932  0.00  0.00     0.006 C 
ENDBRANCH   8   9
BRANCH   8  11
ATOM     11  C   LIG d   1       2.110  83.020 109.698  0.00  0.00     0.028 C 
ATOM     12  C   LIG d   1       1.029  84.043 110.082  0.00  0.00     0.006 C 
ENDBRANCH   8  11
ENDBRANCH   7   8
ENDBRANCH   1   7
BRANCH   6  13
ATOM     13  N   LIG d   1       1.996  81.311 113.032  0.00  0.00    -0.311 N 
ATOM     14  C   LIG d   1       2.052  82.578 113.437  0.00  0.00     0.210 C 
ATOM     15  C   LIG d   1       3.467  83.127 113.649  0.00  0.00     0.109 C 
ATOM     16  O   LIG d   1       1.064  83.291 113.672  0.00  0.00    -0.276 OA
ATOM     17  H   LIG d   1       2.845  80.798 112.898  0.00  0.00     0.149 HD
ENDBRANCH   6  13
BRANCH   5  18
ATOM     18  N   LIG d   1       0.360  79.779 115.109  0.00  0.00     0.381 N 
ATOM     19  H   LIG d   1       1.073  79.338 115.656  0.00  0.00    -0.090 HD
ATOM     20  H   LIG d   1      -0.534  79.465 115.443  0.00  0.00    -0.090 HD
ATOM     21  H   LIG d   1       0.428  80.769 115.200  0.00  0.00    -0.090 HD
ENDBRANCH   5  18
BRANCH   3  22
ATOM     22  C   LIG d   1      -1.527  77.225 111.524  0.00  0.00     0.382 C 
ATOM     23  O   LIG d   1      -0.927  76.134 111.368  0.00  0.00    -0.241 OA
ATOM     24  O   LIG d   1      -2.746  77.295 111.281  0.00  0.00    -0.241 OA
ENDBRANCH   3  22
TORSDOF 7
ENDMDL
MODEL 3
REMARK VINA RESULT:      -4.8      1.746      4.924
REMARK  7 active torsions:
REMARK  status: ('A' for Active; 'I' for Inactive)
REMARK    1  A    between atoms: C_2  and  C_3 
REMARK    2  A    between atoms: C_3  and  O_6 
REMARK    3  A    between atoms: C_3  and  C_4 
REMARK    4  A    between atoms: C_7  and  O_6 
REMARK    5  A    between atoms: C_9  and  C_10 
REMARK    6  A    between atoms: N_15  and  C_14 
REMARK    7  A    between atoms: N_20  and  C_19 
REMARK       I    between atoms: C_22  and  N_20 
ROOT
ATOM      1  C   LIG d   1      -0.064  81.034 111.763  0.00  0.00     0.161 C 
ATOM      2  C   LIG d   1      -1.158  80.315 112.274  0.00  0.00     0.016 C 
ATOM      3  C   LIG d   1      -1.391  78.949 111.994  0.00  0.00     0.038 C 
ATOM      4  C   LIG d   1      -0.457  78.165 111.300  0.00  0.00     0.028 C 
ATOM      5  C   LIG d   1       0.412  78.967 110.338  0.00  0.00    -0.047 C 
ATOM      6  C   LIG d   1       1.024  80.167 111.096  0.00  0.00     0.091 C 
ENDROOT
BRANCH   1   7
ATOM      7  O   LIG d   1       0.512  81.850 112.802  0.00  0.00    -0.368 OA
BRANCH   7   8
ATOM      8  C   LIG d   1       0.311  83.279 112.674  0.00  0.00     0.119 C 
BRANCH   8   9
ATOM      9  C   LIG d   1      -0.375  83.531 111.318  0.00  0.00     0.028 C 
ATOM     10  C   LIG d   1       0.411  84.516 110.436  0.00  0.00     0.006 C 
ENDBRANCH   8   9
BRANCH   8  11
ATOM     11  C   LIG d   1       1.647  84.025 112.597  0.00  0.00     0.028 C 
ATOM     12  C   LIG d   1       2.679  83.503 113.609  0.00  0.00     0.006 C 
ENDBRANCH   8  11
ENDBRANCH   7   8
ENDBRANCH   1   7
BRANCH   6  13
ATOM     13  N   LIG d   1       1.822  81.052 110.208  0.00  0.00    -0.311 N 
ATOM     14  C   LIG d   1       3.078  81.411 110.466  0.00  0.00     0.210 C 
ATOM     15  C   LIG d   1       3.710  82.345 109.430  0.00  0.00     0.109 C 
ATOM     16  O   LIG d   1       3.740  81.018 111.439  0.00  0.00    -0.276 OA
ATOM     17  H   LIG d   1       1.372  81.392 109.380  0.00  0.00     0.149 HD
ENDBRANCH   6  13
BRANCH   5  18
ATOM     18  N   LIG d   1       1.430  78.052 109.787  0.00  0.00     0.381 N 
ATOM     19  H   LIG d   1       2.248  78.568 109.533  0.00  0.00    -0.090 HD
ATOM     20  H   LIG d   1       1.062  77.617 108.959  0.00  0.00    -0.090 HD
ATOM     21  H   LIG d   1       1.663  77.356 110.461  0.00  0.00    -0.090 HD
ENDBRANCH   5  18
BRANCH   3  22
ATOM     22  C   LIG d   1      -2.589  78.364 112.375  0.00  0.00     0.382 C 
ATOM     23  O   LIG d   1      -3.118  78.674 113.469  0.00  0.00    -0.241 OA
ATOM     24  O   LIG d   1      -3.124  77.496 111.659  0.00  0.00    -0.241 OA
ENDBRANCH   3  22
TORSDOF 7
ENDMDL
MODEL 4
REMARK VINA RESULT:      -4.8      2.158      4.997
REMARK  7 active torsions:
REMARK  status: ('A' for Active; 'I' for Inactive)
REMARK    1  A    between atoms: C_2  and  C_3 
REMARK    2  A    between atoms: C_3  and  O_6 
REMARK    3  A    between atoms: C_3  and  C_4 
REMARK    4  A    between atoms: C_7  and  O_6 
REMARK    5  A    between atoms: C_9  and  C_10 
REMARK    6  A    between atoms: N_15  and  C_14 
REMARK    7  A    between atoms: N_20  and  C_19 
REMARK       I    between atoms: C_22  and  N_20 
ROOT
ATOM      1  C   LIG d   1       0.016  80.918 112.079  0.00  0.00     0.161 C 
ATOM      2  C   LIG d   1      -0.992  80.046 112.525  0.00  0.00     0.016 C 
ATOM      3  C   LIG d   1      -1.175  78.742 112.010  0.00  0.00     0.038 C 
ATOM      4  C   LIG d   1      -0.263  78.162 111.116  0.00  0.00     0.028 C 
ATOM      5  C   LIG d   1       0.479  79.184 110.260  0.00  0.00    -0.047 C 
ATOM      6  C   LIG d   1       1.088  80.263 111.184  0.00  0.00     0.091 C 
ENDROOT
BRANCH   1   7
ATOM      7  O   LIG d   1       0.633  81.567 113.208  0.00  0.00    -0.368 OA
BRANCH   7   8
ATOM      8  C   LIG d   1       1.836  80.944 113.722  0.00  0.00     0.119 C 
BRANCH   8   9
ATOM      9  C   LIG d   1       1.494  80.346 115.101  0.00  0.00     0.028 C 
ATOM     10  C   LIG d   1       2.100  81.157 116.259  0.00  0.00     0.006 C 
ENDBRANCH   8   9
BRANCH   8  11
ATOM     11  C   LIG d   1       2.930  81.981 113.991  0.00  0.00     0.028 C 
ATOM     12  C   LIG d   1       2.629  83.345 113.349  0.00  0.00     0.006 C 
ENDBRANCH   8  11
ENDBRANCH   7   8
ENDBRANCH   1   7
BRANCH   6  13
ATOM     13  N   LIG d   1       1.761  81.347 110.422  0.00  0.00    -0.311 N 
ATOM     14  C   LIG d   1       3.077  81.399 110.227  0.00  0.00     0.210 C 
ATOM     15  C   LIG d   1       3.566  82.613 109.430  0.00  0.00     0.109 C 
ATOM     16  O   LIG d   1       3.883  80.538 110.610  0.00  0.00    -0.276 OA
ATOM     17  H   LIG d   1       1.178  82.071 110.048  0.00  0.00     0.149 HD
ENDBRANCH   6  13
BRANCH   5  18
ATOM     18  N   LIG d   1       1.493  78.455 109.475  0.00  0.00     0.381 N 
ATOM     19  H   LIG d   1       2.367  78.462 109.961  0.00  0.00    -0.090 HD
ATOM     20  H   LIG d   1       1.618  78.922 108.594  0.00  0.00    -0.090 HD
ATOM     21  H   LIG d   1       1.196  77.516 109.322  0.00  0.00    -0.090 HD
ENDBRANCH   5  18
BRANCH   3  22
ATOM     22  C   LIG d   1      -2.304  78.017 112.361  0.00  0.00     0.382 C 
ATOM     23  O   LIG d   1      -2.227  76.776 112.526  0.00  0.00    -0.241 OA
ATOM     24  O   LIG d   1      -3.409  78.583 112.471  0.00  0.00    -0.241 OA
ENDBRANCH   3  22
TORSDOF 7
ENDMDL
MODEL 5
REMARK VINA RESULT:      -4.7      1.421      1.911
REMARK  7 active torsions:
REMARK  status: ('A' for Active; 'I' for Inactive)
REMARK    1  A    between atoms: C_2  and  C_3 
REMARK    2  A    between atoms: C_3  and  O_6 
REMARK    3  A    between atoms: C_3  and  C_4 
REMARK    4  A    between atoms: C_7  and  O_6 
REMARK    5  A    between atoms: C_9  and  C_10 
REMARK    6  A    between atoms: N_15  and  C_14 
REMARK    7  A    between atoms: N_20  and  C_19 
REMARK       I    between atoms: C_22  and  N_20 
ROOT
ATOM      1  C   LIG d   1       1.618  80.790 112.747  0.00  0.00     0.161 C 
ATOM      2  C   LIG d   1       2.871  81.042 112.163  0.00  0.00     0.016 C 
ATOM      3  C   LIG d   1       3.128  80.897 110.780  0.00  0.00     0.038 C 
ATOM      4  C   LIG d   1       2.103  80.633 109.859  0.00  0.00     0.028 C 
ATOM      5  C   LIG d   1       0.925  79.875 110.464  0.00  0.00    -0.047 C 
ATOM      6  C   LIG d   1       0.461  80.608 111.743  0.00  0.00     0.091 C 
ENDROOT
BRANCH   1   7
ATOM      7  O   LIG d   1       1.302  81.830 113.694  0.00  0.00    -0.368 OA
BRANCH   7   8
ATOM      8  C   LIG d   1       2.417  82.367 114.446  0.00  0.00     0.119 C 
BRANCH   8   9
ATOM      9  C   LIG d   1       2.268  81.884 115.902  0.00  0.00     0.028 C 
ATOM     10  C   LIG d   1       3.490  81.083 116.383  0.00  0.00     0.006 C 
ENDBRANCH   8   9
BRANCH   8  11
ATOM     11  C   LIG d   1       2.357  83.895 114.518  0.00  0.00     0.028 C 
ATOM     12  C   LIG d   1       1.129  84.477 113.799  0.00  0.00     0.006 C 
ENDBRANCH   8  11
ENDBRANCH   7   8
ENDBRANCH   1   7
BRANCH   6  13
ATOM     13  N   LIG d   1      -0.634  79.887 112.443  0.00  0.00    -0.311 N 
ATOM     14  C   LIG d   1      -1.811  80.441 112.729  0.00  0.00     0.210 C 
ATOM     15  C   LIG d   1      -2.791  79.528 113.473  0.00  0.00     0.109 C 
ATOM     16  O   LIG d   1      -2.149  81.590 112.408  0.00  0.00    -0.276 OA
ATOM     17  H   LIG d   1      -0.456  78.939 112.713  0.00  0.00     0.149 HD
ENDBRANCH   6  13
BRANCH   5  18
ATOM     18  N   LIG d   1      -0.126  79.789 109.433  0.00  0.00     0.381 N 
ATOM     19  H   LIG d   1      -1.004  80.073 109.819  0.00  0.00    -0.090 HD
ATOM     20  H   LIG d   1      -0.208  78.834 109.132  0.00  0.00    -0.090 HD
ATOM     21  H   LIG d   1       0.108  80.370 108.658  0.00  0.00    -0.090 HD
ENDBRANCH   5  18
BRANCH   3  22
ATOM     22  C   LIG d   1       4.430  80.977 110.311  0.00  0.00     0.382 C 
ATOM     23  O   LIG d   1       5.046  82.069 110.354  0.00  0.00    -0.241 OA
ATOM     24  O   LIG d   1       4.981  79.981 109.805  0.00  0.00    -0.241 OA
ENDBRANCH   3  22
TORSDOF 7
ENDMDL
MODEL 6
REMARK VINA RESULT:      -4.5      2.669      4.292
REMARK  7 active torsions:
REMARK  status: ('A' for Active; 'I' for Inactive)
REMARK    1  A    between atoms: C_2  and  C_3 
REMARK    2  A    between atoms: C_3  and  O_6 
REMARK    3  A    between atoms: C_3  and  C_4 
REMARK    4  A    between atoms: C_7  and  O_6 
REMARK    5  A    between atoms: C_9  and  C_10 
REMARK    6  A    between atoms: N_15  and  C_14 
REMARK    7  A    between atoms: N_20  and  C_19 
REMARK       I    between atoms: C_22  and  N_20 
ROOT
ATOM      1  C   LIG d   1       1.803  81.342 112.084  0.00  0.00     0.161 C 
ATOM      2  C   LIG d   1       1.034  80.554 111.212  0.00  0.00     0.016 C 
ATOM      3  C   LIG d   1       0.141  79.551 111.653  0.00  0.00     0.038 C 
ATOM      4  C   LIG d   1      -0.159  79.370 113.012  0.00  0.00     0.028 C 
ATOM      5  C   LIG d   1       0.970  79.800 113.943  0.00  0.00    -0.047 C 
ATOM      6  C   LIG d   1       1.407  81.235 113.572  0.00  0.00     0.091 C 
ENDROOT
BRANCH   1   7
ATOM      7  O   LIG d   1       1.772  82.718 111.655  0.00  0.00    -0.368 OA
BRANCH   7   8
ATOM      8  C   LIG d   1       0.982  82.999 110.474  0.00  0.00     0.119 C 
BRANCH   8   9
ATOM      9  C   LIG d   1       1.845  83.864 109.535  0.00  0.00     0.028 C 
ATOM     10  C   LIG d   1       3.020  84.533 110.267  0.00  0.00     0.006 C 
ENDBRANCH   8   9
BRANCH   8  11
ATOM     11  C   LIG d   1      -0.238  83.862 110.813  0.00  0.00     0.028 C 
ATOM     12  C   LIG d   1      -0.280  84.281 112.291  0.00  0.00     0.006 C 
ENDBRANCH   8  11
ENDBRANCH   7   8
ENDBRANCH   1   7
BRANCH   6  13
ATOM     13  N   LIG d   1       2.564  81.702 114.380  0.00  0.00    -0.311 N 
ATOM     14  C   LIG d   1       2.526  82.781 115.160  0.00  0.00     0.210 C 
ATOM     15  C   LIG d   1       3.834  83.097 115.891  0.00  0.00     0.109 C 
ATOM     16  O   LIG d   1       1.523  83.487 115.341  0.00  0.00    -0.276 OA
ATOM     17  H   LIG d   1       3.409  81.169 114.317  0.00  0.00     0.149 HD
ENDBRANCH   6  13
BRANCH   5  18
ATOM     18  N   LIG d   1       0.472  79.687 115.327  0.00  0.00     0.381 N 
ATOM     19  H   LIG d   1      -0.360  80.232 115.433  0.00  0.00    -0.090 HD
ATOM     20  H   LIG d   1       1.169  80.050 115.954  0.00  0.00    -0.090 HD
ATOM     21  H   LIG d   1       0.284  78.733 115.545  0.00  0.00    -0.090 HD
ENDBRANCH   5  18
BRANCH   3  22
ATOM     22  C   LIG d   1      -0.434  78.689 110.731  0.00  0.00     0.382 C 
ATOM     23  O   LIG d   1      -0.830  77.555 111.095  0.00  0.00    -0.241 OA
ATOM     24  O   LIG d   1      -0.521  79.013 109.532  0.00  0.00    -0.241 OA
ENDBRANCH   3  22
TORSDOF 7
ENDMDL
MODEL 7
REMARK VINA RESULT:      -4.3      2.580      4.862
REMARK  7 active torsions:
REMARK  status: ('A' for Active; 'I' for Inactive)
REMARK    1  A    between atoms: C_2  and  C_3 
REMARK    2  A    between atoms: C_3  and  O_6 
REMARK    3  A    between atoms: C_3  and  C_4 
REMARK    4  A    between atoms: C_7  and  O_6 
REMARK    5  A    between atoms: C_9  and  C_10 
REMARK    6  A    between atoms: N_15  and  C_14 
REMARK    7  A    between atoms: N_20  and  C_19 
REMARK       I    between atoms: C_22  and  N_20 
ROOT
ATOM      1  C   LIG d   1       1.214  80.241 111.850  0.00  0.00     0.161 C 
ATOM      2  C   LIG d   1       0.178  79.436 111.348  0.00  0.00     0.016 C 
ATOM      3  C   LIG d   1      -0.733  78.736 112.172  0.00  0.00     0.038 C 
ATOM      4  C   LIG d   1      -0.764  78.916 113.563  0.00  0.00     0.028 C 
ATOM      5  C   LIG d   1       0.583  79.324 114.151  0.00  0.00    -0.047 C 
ATOM      6  C   LIG d   1       1.128  80.537 113.362  0.00  0.00     0.091 C 
ENDROOT
BRANCH   1   7
ATOM      7  O   LIG d   1       1.284  81.470 111.102  0.00  0.00    -0.368 OA
BRANCH   7   8
ATOM      8  C   LIG d   1       0.782  82.653 111.771  0.00  0.00     0.119 C 
BRANCH   8   9
ATOM      9  C   LIG d   1      -0.485  83.107 111.021  0.00  0.00     0.028 C 
ATOM     10  C   LIG d   1      -0.426  84.588 110.611  0.00  0.00     0.006 C 
ENDBRANCH   8   9
BRANCH   8  11
ATOM     11  C   LIG d   1       1.765  83.821 111.650  0.00  0.00     0.028 C 
ATOM     12  C   LIG d   1       3.183  83.370 111.268  0.00  0.00     0.006 C 
ENDBRANCH   8  11
ENDBRANCH   7   8
ENDBRANCH   1   7
BRANCH   6  13
ATOM     13  N   LIG d   1       2.481  80.948 113.818  0.00  0.00    -0.311 N 
ATOM     14  C   LIG d   1       2.690  81.882 114.745  0.00  0.00     0.210 C 
ATOM     15  C   LIG d   1       4.163  82.168 115.053  0.00  0.00     0.109 C 
ATOM     16  O   LIG d   1       1.796  82.477 115.364  0.00  0.00    -0.276 OA
ATOM     17  H   LIG d   1       3.264  80.494 113.390  0.00  0.00     0.149 HD
ENDBRANCH   6  13
BRANCH   5  18
ATOM     18  N   LIG d   1       0.376  79.611 115.583  0.00  0.00     0.381 N 
ATOM     19  H   LIG d   1       0.442  78.764 116.111  0.00  0.00    -0.090 HD
ATOM     20  H   LIG d   1      -0.546  79.990 115.708  0.00  0.00    -0.090 HD
ATOM     21  H   LIG d   1       1.058  80.263 115.902  0.00  0.00    -0.090 HD
ENDBRANCH   5  18
BRANCH   3  22
ATOM     22  C   LIG d   1      -1.602  77.814 111.608  0.00  0.00     0.382 C 
ATOM     23  O   LIG d   1      -2.721  78.186 111.182  0.00  0.00    -0.241 OA
ATOM     24  O   LIG d   1      -1.298  76.607 111.561  0.00  0.00    -0.241 OA
ENDBRANCH   3  22
TORSDOF 7
ENDMDL
MODEL 8
REMARK VINA RESULT:      -4.3      3.036      5.020
REMARK  7 active torsions:
REMARK  status: ('A' for Active; 'I' for Inactive)
REMARK    1  A    between atoms: C_2  and  C_3 
REMARK    2  A    between atoms: C_3  and  O_6 
REMARK    3  A    between atoms: C_3  and  C_4 
REMARK    4  A    between atoms: C_7  and  O_6 
REMARK    5  A    between atoms: C_9  and  C_10 
REMARK    6  A    between atoms: N_15  and  C_14 
REMARK    7  A    between atoms: N_20  and  C_19 
REMARK       I    between atoms: C_22  and  N_20 
ROOT
ATOM      1  C   LIG d   1       0.585  79.962 113.036  0.00  0.00     0.161 C 
ATOM      2  C   LIG d   1      -0.261  79.202 112.211  0.00  0.00     0.016 C 
ATOM      3  C   LIG d   1      -0.939  78.042 112.651  0.00  0.00     0.038 C 
ATOM      4  C   LIG d   1      -0.935  77.646 113.997  0.00  0.00     0.028 C 
ATOM      5  C   LIG d   1       0.310  78.093 114.756  0.00  0.00    -0.047 C 
ATOM      6  C   LIG d   1       0.514  79.609 114.536  0.00  0.00     0.091 C 
ENDROOT
BRANCH   1   7
ATOM      7  O   LIG d   1       0.328  81.366 112.839  0.00  0.00    -0.368 OA
BRANCH   7   8
ATOM      8  C   LIG d   1       0.292  81.821 111.463  0.00  0.00     0.119 C 
BRANCH   8   9
ATOM      9  C   LIG d   1       1.742  82.125 111.039  0.00  0.00     0.028 C 
ATOM     10  C   LIG d   1       1.828  82.703 109.616  0.00  0.00     0.006 C 
ENDBRANCH   8   9
BRANCH   8  11
ATOM     11  C   LIG d   1      -0.454  83.152 111.336  0.00  0.00     0.028 C 
ATOM     12  C   LIG d   1      -0.296  84.046 112.576  0.00  0.00     0.006 C 
ENDBRANCH   8  11
ENDBRANCH   7   8
ENDBRANCH   1   7
BRANCH   6  13
ATOM     13  N   LIG d   1       1.758  80.112 115.176  0.00  0.00    -0.311 N 
ATOM     14  C   LIG d   1       1.791  80.648 116.394  0.00  0.00     0.210 C 
ATOM     15  C   LIG d   1       3.173  81.120 116.856  0.00  0.00     0.109 C 
ATOM     16  O   LIG d   1       0.812  80.747 117.150  0.00  0.00    -0.276 OA
ATOM     17  H   LIG d   1       2.605  80.041 114.645  0.00  0.00     0.149 HD
ENDBRANCH   6  13
BRANCH   5  18
ATOM     18  N   LIG d   1       0.120  77.734 116.174  0.00  0.00     0.381 N 
ATOM     19  H   LIG d   1      -0.159  78.543 116.693  0.00  0.00    -0.090 HD
ATOM     20  H   LIG d   1       0.993  77.406 116.546  0.00  0.00    -0.090 HD
ATOM     21  H   LIG d   1      -0.573  77.023 116.256  0.00  0.00    -0.090 HD
ENDBRANCH   5  18
BRANCH   3  22
ATOM     22  C   LIG d   1      -1.599  77.242 111.731  0.00  0.00     0.382 C 
ATOM     23  O   LIG d   1      -2.773  77.521 111.385  0.00  0.00    -0.241 OA
ATOM     24  O   LIG d   1      -1.053  76.220 111.276  0.00  0.00    -0.241 OA
ENDBRANCH   3  22
TORSDOF 7
ENDMDL
MODEL 9
REMARK VINA RESULT:      -4.2      2.906      5.794
REMARK  7 active torsions:
REMARK  status: ('A' for Active; 'I' for Inactive)
REMARK    1  A    between atoms: C_2  and  C_3 
REMARK    2  A    between atoms: C_3  and  O_6 
REMARK    3  A    between atoms: C_3  and  C_4 
REMARK    4  A    between atoms: C_7  and  O_6 
REMARK    5  A    between atoms: C_9  and  C_10 
REMARK    6  A    between atoms: N_15  and  C_14 
REMARK    7  A    between atoms: N_20  and  C_19 
REMARK       I    between atoms: C_22  and  N_20 
ROOT
ATOM      1  C   LIG d   1       2.014  81.324 112.628  0.00  0.00     0.161 C 
ATOM      2  C   LIG d   1       0.978  82.054 112.023  0.00  0.00     0.016 C 
ATOM      3  C   LIG d   1       0.686  83.401 112.342  0.00  0.00     0.038 C 
ATOM      4  C   LIG d   1       1.513  84.159 113.185  0.00  0.00     0.028 C 
ATOM      5  C   LIG d   1       2.273  83.318 114.205  0.00  0.00    -0.047 C 
ATOM      6  C   LIG d   1       2.996  82.167 113.468  0.00  0.00     0.091 C 
ENDROOT
BRANCH   1   7
ATOM      7  O   LIG d   1       2.729  80.571 111.628  0.00  0.00    -0.368 OA
BRANCH   7   8
ATOM      8  C   LIG d   1       2.383  80.852 110.250  0.00  0.00     0.119 C 
BRANCH   8   9
ATOM      9  C   LIG d   1       1.907  79.533 109.613  0.00  0.00     0.028 C 
ATOM     10  C   LIG d   1       0.495  79.135 110.075  0.00  0.00     0.006 C 
ENDBRANCH   8   9
BRANCH   8  11
ATOM     11  C   LIG d   1       3.615  81.271 109.441  0.00  0.00     0.028 C 
ATOM     12  C   LIG d   1       4.807  81.660 110.329  0.00  0.00     0.006 C 
ENDBRANCH   8  11
ENDBRANCH   7   8
ENDBRANCH   1   7
BRANCH   6  13
ATOM     13  N   LIG d   1       3.695  81.247 114.402  0.00  0.00    -0.311 N 
ATOM     14  C   LIG d   1       5.012  81.047 114.386  0.00  0.00     0.210 C 
ATOM     15  C   LIG d   1       5.526  80.042 115.421  0.00  0.00     0.109 C 
ATOM     16  O   LIG d   1       5.807  81.631 113.634  0.00  0.00    -0.276 OA
ATOM     17  H   LIG d   1       3.130  80.755 115.066  0.00  0.00     0.149 HD
ENDBRANCH   6  13
BRANCH   5  18
ATOM     18  N   LIG d   1       3.197  84.215 114.923  0.00  0.00     0.381 N 
ATOM     19  H   LIG d   1       3.908  84.539 114.299  0.00  0.00    -0.090 HD
ATOM     20  H   LIG d   1       3.638  83.701 115.665  0.00  0.00    -0.090 HD
ATOM     21  H   LIG d   1       2.696  84.991 115.299  0.00  0.00    -0.090 HD
ENDBRANCH   5  18
BRANCH   3  22
ATOM     22  C   LIG d   1      -0.467  83.990 111.847  0.00  0.00     0.382 C 
ATOM     23  O   LIG d   1      -0.760  83.869 110.633  0.00  0.00    -0.241 OA
ATOM     24  O   LIG d   1      -1.194  84.678 112.589  0.00  0.00    -0.241 OA
ENDBRANCH   3  22
TORSDOF 7
ENDMDL
