MODEL 1
REMARK VINA RESULT:      -5.4      0.000      0.000
REMARK  7 active torsions:
REMARK  status: ('A' for Active; 'I' for Inactive)
REMARK    1  A    between atoms: C_2  and  C_3 
REMARK    2  A    between atoms: C_3  and  O_6 
REMARK    3  A    between atoms: C_3  and  C_4 
REMARK    4  A    between atoms: C_7  and  O_6 
REMARK    5  A    between atoms: C_9  and  C_10 
REMARK    6  A    between atoms: N_15  and  C_14 
REMARK    7  A    between atoms: N_20  and  C_19 
REMARK       I    between atoms: C_22  and  N_20 
ROOT
ATOM      1  C   LIG d   1       0.557  82.435 112.461  0.00  0.00     0.161 C 
ATOM      2  C   LIG d   1      -0.716  82.046 112.908  0.00  0.00     0.016 C 
ATOM      3  C   LIG d   1      -1.392  80.900 112.431  0.00  0.00     0.038 C 
ATOM      4  C   LIG d   1      -0.771  79.974 111.579  0.00  0.00     0.028 C 
ATOM      5  C   LIG d   1       0.321  80.588 110.710  0.00  0.00    -0.047 C 
ATOM      6  C   LIG d   1       1.296  81.378 111.614  0.00  0.00     0.091 C 
ENDROOT
BRANCH   1   7
ATOM      7  O   LIG d   1       1.369  82.834 113.583  0.00  0.00    -0.368 OA
BRANCH   7   8
ATOM      8  C   LIG d   1       1.534  84.261 113.775  0.00  0.00     0.119 C 
BRANCH   8   9
ATOM      9  C   LIG d   1       3.020  84.591 113.535  0.00  0.00     0.028 C 
ATOM     10  C   LIG d   1       3.865  84.454 114.813  0.00  0.00     0.006 C 
ENDBRANCH   8   9
BRANCH   8  11
ATOM     11  C   LIG d   1       1.258  84.664 115.226  0.00  0.00     0.028 C 
ATOM     12  C   LIG d   1      -0.141  84.245 115.705  0.00  0.00     0.006 C 
ENDBRANCH   8  11
ENDBRANCH   7   8
ENDBRANCH   1   7
BRANCH   6  13
ATOM     13  N   LIG d   1       2.348  82.081 110.834  0.00  0.00    -0.311 N 
ATOM     14  C   LIG d   1       3.509  81.520 110.498  0.00  0.00     0.210 C 
ATOM     15  C   LIG d   1       4.461  82.427 109.711  0.00  0.00     0.109 C 
ATOM     16  O   LIG d   1       3.828  80.348 110.749  0.00  0.00    -0.276 OA
ATOM     17  H   LIG d   1       2.160  83.025 110.562  0.00  0.00     0.149 HD
ENDBRANCH   6  13
BRANCH   5  18
ATOM     18  N   LIG d   1       0.976  79.490 109.974  0.00  0.00     0.381 N 
ATOM     19  H   LIG d   1       0.285  78.853 109.632  0.00  0.00    -0.090 HD
ATOM     20  H   LIG d   1       1.580  78.992 110.604  0.00  0.00    -0.090 HD
ATOM     21  H   LIG d   1       1.505  79.857 109.214  0.00  0.00    -0.090 HD
ENDBRANCH   5  18
BRANCH   3  22
ATOM     22  C   LIG d   1      -2.719  80.690 112.776  0.00  0.00     0.382 C 
ATOM     23  O   LIG d   1      -3.213  79.540 112.696  0.00  0.00    -0.241 OA
ATOM     24  O   LIG d   1      -3.439  81.645 113.123  0.00  0.00    -0.241 OA
ENDBRANCH   3  22
TORSDOF 7
ENDMDL
MODEL 2
REMARK VINA RESULT:      -5.4      2.306      4.914
REMARK  7 active torsions:
REMARK  status: ('A' for Active; 'I' for Inactive)
REMARK    1  A    between atoms: C_2  and  C_3 
REMARK    2  A    between atoms: C_3  and  O_6 
REMARK    3  A    between atoms: C_3  and  C_4 
REMARK    4  A    between atoms: C_7  and  O_6 
REMARK    5  A    between atoms: C_9  and  C_10 
REMARK    6  A    between atoms: N_15  and  C_14 
REMARK    7  A    between atoms: N_20  and  C_19 
REMARK       I    between atoms: C_22  and  N_20 
ROOT
ATOM      1  C   LIG d   1       0.109  82.199 112.830  0.00  0.00     0.161 C 
ATOM      2  C   LIG d   1       0.895  83.161 112.174  0.00  0.00     0.016 C 
ATOM      3  C   LIG d   1       1.554  82.921 110.946  0.00  0.00     0.038 C 
ATOM      4  C   LIG d   1       1.346  81.745 110.210  0.00  0.00     0.028 C 
ATOM      5  C   LIG d   1       0.963  80.549 111.076  0.00  0.00    -0.047 C 
ATOM      6  C   LIG d   1      -0.219  80.948 111.988  0.00  0.00     0.091 C 
ENDROOT
BRANCH   1   7
ATOM      7  O   LIG d   1      -1.104  82.808 113.316  0.00  0.00    -0.368 OA
BRANCH   7   8
ATOM      8  C   LIG d   1      -1.221  82.935 114.754  0.00  0.00     0.119 C 
BRANCH   8   9
ATOM      9  C   LIG d   1      -2.624  82.437 115.150  0.00  0.00     0.028 C 
ATOM     10  C   LIG d   1      -2.698  82.001 116.623  0.00  0.00     0.006 C 
ENDBRANCH   8   9
BRANCH   8  11
ATOM     11  C   LIG d   1      -1.174  84.403 115.189  0.00  0.00     0.028 C 
ATOM     12  C   LIG d   1      -0.082  84.680 116.235  0.00  0.00     0.006 C 
ENDBRANCH   8  11
ENDBRANCH   7   8
ENDBRANCH   1   7
BRANCH   6  13
ATOM     13  N   LIG d   1      -0.602  79.862 112.927  0.00  0.00    -0.311 N 
ATOM     14  C   LIG d   1      -1.608  79.018 112.701  0.00  0.00     0.210 C 
ATOM     15  C   LIG d   1      -1.846  77.985 113.807  0.00  0.00     0.109 C 
ATOM     16  O   LIG d   1      -2.304  79.006 111.675  0.00  0.00    -0.276 OA
ATOM     17  H   LIG d   1      -0.070  79.779 113.771  0.00  0.00     0.149 HD
ENDBRANCH   6  13
BRANCH   5  18
ATOM     18  N   LIG d   1       0.643  79.429 110.171  0.00  0.00     0.381 N 
ATOM     19  H   LIG d   1      -0.238  79.593 109.727  0.00  0.00    -0.090 HD
ATOM     20  H   LIG d   1       0.571  78.585 110.712  0.00  0.00    -0.090 HD
ATOM     21  H   LIG d   1       1.357  79.331 109.483  0.00  0.00    -0.090 HD
ENDBRANCH   5  18
BRANCH   3  22
ATOM     22  C   LIG d   1       2.463  83.850 110.461  0.00  0.00     0.382 C 
ATOM     23  O   LIG d   1       3.567  84.005 111.036  0.00  0.00    -0.241 OA
ATOM     24  O   LIG d   1       2.175  84.564 109.483  0.00  0.00    -0.241 OA
ENDBRANCH   3  22
TORSDOF 7
ENDMDL
MODEL 3
REMARK VINA RESULT:      -4.9      2.235      3.092
REMARK  7 active torsions:
REMARK  status: ('A' for Active; 'I' for Inactive)
REMARK    1  A    between atoms: C_2  and  C_3 
REMARK    2  A    between atoms: C_3  and  O_6 
REMARK    3  A    between atoms: C_3  and  C_4 
REMARK    4  A    between atoms: C_7  and  O_6 
REMARK    5  A    between atoms: C_9  and  C_10 
REMARK    6  A    between atoms: N_15  and  C_14 
REMARK    7  A    between atoms: N_20  and  C_19 
REMARK       I    between atoms: C_22  and  N_20 
ROOT
ATOM      1  C   LIG d   1      -1.840  81.902 112.694  0.00  0.00     0.161 C 
ATOM      2  C   LIG d   1      -2.496  80.860 113.372  0.00  0.00     0.016 C 
ATOM      3  C   LIG d   1      -2.245  79.491 113.123  0.00  0.00     0.038 C 
ATOM      4  C   LIG d   1      -1.206  79.069 112.280  0.00  0.00     0.028 C 
ATOM      5  C   LIG d   1      -0.857  80.081 111.195  0.00  0.00    -0.047 C 
ATOM      6  C   LIG d   1      -0.625  81.461 111.852  0.00  0.00     0.091 C 
ENDROOT
BRANCH   1   7
ATOM      7  O   LIG d   1      -1.455  82.927 113.631  0.00  0.00    -0.368 OA
BRANCH   7   8
ATOM      8  C   LIG d   1      -0.998  82.468 114.926  0.00  0.00     0.119 C 
BRANCH   8   9
ATOM      9  C   LIG d   1      -1.898  83.121 115.993  0.00  0.00     0.028 C 
ATOM     10  C   LIG d   1      -1.487  82.735 117.424  0.00  0.00     0.006 C 
ENDBRANCH   8   9
BRANCH   8  11
ATOM     11  C   LIG d   1       0.417  82.971 115.228  0.00  0.00     0.028 C 
ATOM     12  C   LIG d   1       1.510  82.057 114.652  0.00  0.00     0.006 C 
ENDBRANCH   8  11
ENDBRANCH   7   8
ENDBRANCH   1   7
BRANCH   6  13
ATOM     13  N   LIG d   1      -0.361  82.528 110.851  0.00  0.00    -0.311 N 
ATOM     14  C   LIG d   1       0.863  82.875 110.455  0.00  0.00     0.210 C 
ATOM     15  C   LIG d   1       0.913  84.012 109.430  0.00  0.00     0.109 C 
ATOM     16  O   LIG d   1       1.910  82.326 110.830  0.00  0.00    -0.276 OA
ATOM     17  H   LIG d   1      -1.155  83.004 110.472  0.00  0.00     0.149 HD
ENDBRANCH   6  13
BRANCH   5  18
ATOM     18  N   LIG d   1       0.329  79.575 110.478  0.00  0.00     0.381 N 
ATOM     19  H   LIG d   1       0.307  78.576 110.450  0.00  0.00    -0.090 HD
ATOM     20  H   LIG d   1       1.155  79.858 110.976  0.00  0.00    -0.090 HD
ATOM     21  H   LIG d   1       0.350  79.941 109.552  0.00  0.00    -0.090 HD
ENDBRANCH   5  18
BRANCH   3  22
ATOM     22  C   LIG d   1      -3.066  78.528 113.690  0.00  0.00     0.382 C 
ATOM     23  O   LIG d   1      -3.418  78.632 114.889  0.00  0.00    -0.241 OA
ATOM     24  O   LIG d   1      -3.422  77.533 113.030  0.00  0.00    -0.241 OA
ENDBRANCH   3  22
TORSDOF 7
ENDMDL
MODEL 4
REMARK VINA RESULT:      -4.8      2.217      4.053
REMARK  7 active torsions:
REMARK  status: ('A' for Active; 'I' for Inactive)
REMARK    1  A    between atoms: C_2  and  C_3 
REMARK    2  A    between atoms: C_3  and  O_6 
REMARK    3  A    between atoms: C_3  and  C_4 
REMARK    4  A    between atoms: C_7  and  O_6 
REMARK    5  A    between atoms: C_9  and  C_10 
REMARK    6  A    between atoms: N_15  and  C_14 
REMARK    7  A    between atoms: N_20  and  C_19 
REMARK       I    between atoms: C_22  and  N_20 
ROOT
ATOM      1  C   LIG d   1      -0.116  81.281 111.649  0.00  0.00     0.161 C 
ATOM      2  C   LIG d   1      -0.907  80.122 111.708  0.00  0.00     0.016 C 
ATOM      3  C   LIG d   1      -1.869  79.887 112.718  0.00  0.00     0.038 C 
ATOM      4  C   LIG d   1      -2.213  80.871 113.657  0.00  0.00     0.028 C 
ATOM      5  C   LIG d   1      -1.086  81.857 113.942  0.00  0.00    -0.047 C 
ATOM      6  C   LIG d   1      -0.555  82.414 112.601  0.00  0.00     0.091 C 
ENDROOT
BRANCH   1   7
ATOM      7  O   LIG d   1      -0.055  81.763 110.292  0.00  0.00    -0.368 OA
BRANCH   7   8
ATOM      8  C   LIG d   1       1.197  81.549 109.595  0.00  0.00     0.119 C 
BRANCH   8   9
ATOM      9  C   LIG d   1       2.080  80.659 110.491  0.00  0.00     0.028 C 
ATOM     10  C   LIG d   1       3.535  81.152 110.557  0.00  0.00     0.006 C 
ENDBRANCH   8   9
BRANCH   8  11
ATOM     11  C   LIG d   1       1.974  82.859 109.433  0.00  0.00     0.028 C 
ATOM     12  C   LIG d   1       1.063  84.097 109.433  0.00  0.00     0.006 C 
ENDBRANCH   8  11
ENDBRANCH   7   8
ENDBRANCH   1   7
BRANCH   6  13
ATOM     13  N   LIG d   1       0.606  83.323 112.784  0.00  0.00    -0.311 N 
ATOM     14  C   LIG d   1       1.741  82.953 113.374  0.00  0.00     0.210 C 
ATOM     15  C   LIG d   1       2.804  84.051 113.478  0.00  0.00     0.109 C 
ATOM     16  O   LIG d   1       1.981  81.811 113.793  0.00  0.00    -0.276 OA
ATOM     17  H   LIG d   1       0.509  84.260 112.445  0.00  0.00     0.149 HD
ENDBRANCH   6  13
BRANCH   5  18
ATOM     18  N   LIG d   1      -1.624  82.905 114.830  0.00  0.00     0.381 N 
ATOM     19  H   LIG d   1      -1.198  83.784 114.613  0.00  0.00    -0.090 HD
ATOM     20  H   LIG d   1      -1.400  82.672 115.781  0.00  0.00    -0.090 HD
ATOM     21  H   LIG d   1      -2.612  82.971 114.720  0.00  0.00    -0.090 HD
ENDBRANCH   5  18
BRANCH   3  22
ATOM     22  C   LIG d   1      -2.469  78.642 112.819  0.00  0.00     0.382 C 
ATOM     23  O   LIG d   1      -3.428  78.345 112.066  0.00  0.00    -0.241 OA
ATOM     24  O   LIG d   1      -2.093  77.827 113.682  0.00  0.00    -0.241 OA
ENDBRANCH   3  22
TORSDOF 7
ENDMDL
MODEL 5
REMARK VINA RESULT:      -4.7      3.698      5.910
REMARK  7 active torsions:
REMARK  status: ('A' for Active; 'I' for Inactive)
REMARK    1  A    between atoms: C_2  and  C_3 
REMARK    2  A    between atoms: C_3  and  O_6 
REMARK    3  A    between atoms: C_3  and  C_4 
REMARK    4  A    between atoms: C_7  and  O_6 
REMARK    5  A    between atoms: C_9  and  C_10 
REMARK    6  A    between atoms: N_15  and  C_14 
REMARK    7  A    between atoms: N_20  and  C_19 
REMARK       I    between atoms: C_22  and  N_20 
ROOT
ATOM      1  C   LIG d   1      -1.345  80.037 115.026  0.00  0.00     0.161 C 
ATOM      2  C   LIG d   1      -1.227  81.432 114.906  0.00  0.00     0.016 C 
ATOM      3  C   LIG d   1      -1.062  82.095 113.668  0.00  0.00     0.038 C 
ATOM      4  C   LIG d   1      -1.157  81.416 112.445  0.00  0.00     0.028 C 
ATOM      5  C   LIG d   1      -0.771  79.944 112.538  0.00  0.00    -0.047 C 
ATOM      6  C   LIG d   1      -1.562  79.290 113.694  0.00  0.00     0.091 C 
ENDROOT
BRANCH   1   7
ATOM      7  O   LIG d   1      -2.396  79.714 115.958  0.00  0.00    -0.368 OA
BRANCH   7   8
ATOM      8  C   LIG d   1      -1.971  79.302 117.281  0.00  0.00     0.119 C 
BRANCH   8   9
ATOM      9  C   LIG d   1      -0.500  78.854 117.175  0.00  0.00     0.028 C 
ATOM     10  C   LIG d   1       0.402  79.553 118.205  0.00  0.00     0.006 C 
ENDBRANCH   8   9
BRANCH   8  11
ATOM     11  C   LIG d   1      -2.739  78.064 117.752  0.00  0.00     0.028 C 
ATOM     12  C   LIG d   1      -1.954  76.759 117.541  0.00  0.00     0.006 C 
ENDBRANCH   8  11
ENDBRANCH   7   8
ENDBRANCH   1   7
BRANCH   6  13
ATOM     13  N   LIG d   1      -1.182  77.869 113.908  0.00  0.00    -0.311 N 
ATOM     14  C   LIG d   1      -2.040  76.856 113.802  0.00  0.00     0.210 C 
ATOM     15  C   LIG d   1      -1.446  75.473 114.083  0.00  0.00     0.109 C 
ATOM     16  O   LIG d   1      -3.230  76.969 113.470  0.00  0.00    -0.276 OA
ATOM     17  H   LIG d   1      -0.228  77.684 114.151  0.00  0.00     0.149 HD
ENDBRANCH   6  13
BRANCH   5  18
ATOM     18  N   LIG d   1      -1.046  79.327 111.227  0.00  0.00     0.381 N 
ATOM     19  H   LIG d   1      -0.334  79.586 110.574  0.00  0.00    -0.090 HD
ATOM     20  H   LIG d   1      -1.927  79.669 110.885  0.00  0.00    -0.090 HD
ATOM     21  H   LIG d   1      -1.080  78.335 111.317  0.00  0.00    -0.090 HD
ENDBRANCH   5  18
BRANCH   3  22
ATOM     22  C   LIG d   1      -0.760  83.448 113.649  0.00  0.00     0.382 C 
ATOM     23  O   LIG d   1      -0.306  84.004 114.678  0.00  0.00    -0.241 OA
ATOM     24  O   LIG d   1      -0.978  84.130 112.629  0.00  0.00    -0.241 OA
ENDBRANCH   3  22
TORSDOF 7
ENDMDL
MODEL 6
REMARK VINA RESULT:      -4.6      2.984      4.295
REMARK  7 active torsions:
REMARK  status: ('A' for Active; 'I' for Inactive)
REMARK    1  A    between atoms: C_2  and  C_3 
REMARK    2  A    between atoms: C_3  and  O_6 
REMARK    3  A    between atoms: C_3  and  C_4 
REMARK    4  A    between atoms: C_7  and  O_6 
REMARK    5  A    between atoms: C_9  and  C_10 
REMARK    6  A    between atoms: N_15  and  C_14 
REMARK    7  A    between atoms: N_20  and  C_19 
REMARK       I    between atoms: C_22  and  N_20 
ROOT
ATOM      1  C   LIG d   1      -2.169  80.426 114.612  0.00  0.00     0.161 C 
ATOM      2  C   LIG d   1      -2.610  79.158 115.025  0.00  0.00     0.016 C 
ATOM      3  C   LIG d   1      -2.517  78.001 114.219  0.00  0.00     0.038 C 
ATOM      4  C   LIG d   1      -1.834  78.003 112.994  0.00  0.00     0.028 C 
ATOM      5  C   LIG d   1      -1.818  79.368 112.313  0.00  0.00    -0.047 C 
ATOM      6  C   LIG d   1      -1.320  80.427 113.323  0.00  0.00     0.091 C 
ENDROOT
BRANCH   1   7
ATOM      7  O   LIG d   1      -1.451  81.067 115.685  0.00  0.00    -0.368 OA
BRANCH   7   8
ATOM      8  C   LIG d   1      -2.200  82.030 116.466  0.00  0.00     0.119 C 
BRANCH   8   9
ATOM      9  C   LIG d   1      -1.577  83.417 116.212  0.00  0.00     0.028 C 
ATOM     10  C   LIG d   1      -0.087  83.333 115.840  0.00  0.00     0.006 C 
ENDBRANCH   8   9
BRANCH   8  11
ATOM     11  C   LIG d   1      -2.032  81.780 117.968  0.00  0.00     0.028 C 
ATOM     12  C   LIG d   1      -3.366  81.496 118.677  0.00  0.00     0.006 C 
ENDBRANCH   8  11
ENDBRANCH   7   8
ENDBRANCH   1   7
BRANCH   6  13
ATOM     13  N   LIG d   1      -1.353  81.803 112.764  0.00  0.00    -0.311 N 
ATOM     14  C   LIG d   1      -0.295  82.396 112.213  0.00  0.00     0.210 C 
ATOM     15  C   LIG d   1      -0.540  83.825 111.717  0.00  0.00     0.109 C 
ATOM     16  O   LIG d   1       0.814  81.864 112.060  0.00  0.00    -0.276 OA
ATOM     17  H   LIG d   1      -2.222  82.297 112.818  0.00  0.00     0.149 HD
ENDBRANCH   6  13
BRANCH   5  18
ATOM     18  N   LIG d   1      -0.958  79.259 111.119  0.00  0.00     0.381 N 
ATOM     19  H   LIG d   1      -1.451  79.596 110.315  0.00  0.00    -0.090 HD
ATOM     20  H   LIG d   1      -0.733  78.292 110.967  0.00  0.00    -0.090 HD
ATOM     21  H   LIG d   1      -0.123  79.786 111.250  0.00  0.00    -0.090 HD
ENDBRANCH   5  18
BRANCH   3  22
ATOM     22  C   LIG d   1      -3.147  76.832 114.619  0.00  0.00     0.382 C 
ATOM     23  O   LIG d   1      -3.440  76.659 115.827  0.00  0.00    -0.241 OA
ATOM     24  O   LIG d   1      -3.387  75.929 113.795  0.00  0.00    -0.241 OA
ENDBRANCH   3  22
TORSDOF 7
ENDMDL
MODEL 7
REMARK VINA RESULT:      -4.5      3.254      4.981
REMARK  7 active torsions:
REMARK  status: ('A' for Active; 'I' for Inactive)
REMARK    1  A    between atoms: C_2  and  C_3 
REMARK    2  A    between atoms: C_3  and  O_6 
REMARK    3  A    between atoms: C_3  and  C_4 
REMARK    4  A    between atoms: C_7  and  O_6 
REMARK    5  A    between atoms: C_9  and  C_10 
REMARK    6  A    between atoms: N_15  and  C_14 
REMARK    7  A    between atoms: N_20  and  C_19 
REMARK       I    between atoms: C_22  and  N_20 
ROOT
ATOM      1  C   LIG d   1      -0.978  82.074 113.839  0.00  0.00     0.161 C 
ATOM      2  C   LIG d   1      -1.545  81.170 112.926  0.00  0.00     0.016 C 
ATOM      3  C   LIG d   1      -2.163  79.959 113.312  0.00  0.00     0.038 C 
ATOM      4  C   LIG d   1      -2.392  79.640 114.659  0.00  0.00     0.028 C 
ATOM      5  C   LIG d   1      -1.389  80.281 115.612  0.00  0.00    -0.047 C 
ATOM      6  C   LIG d   1      -1.316  81.797 115.318  0.00  0.00     0.091 C 
ENDROOT
BRANCH   1   7
ATOM      7  O   LIG d   1      -1.346  83.422 113.485  0.00  0.00    -0.368 OA
BRANCH   7   8
ATOM      8  C   LIG d   1      -0.269  84.279 113.032  0.00  0.00     0.119 C 
BRANCH   8   9
ATOM      9  C   LIG d   1      -0.577  84.680 111.576  0.00  0.00     0.028 C 
ATOM     10  C   LIG d   1      -0.052  83.651 110.561  0.00  0.00     0.006 C 
ENDBRANCH   8   9
BRANCH   8  11
ATOM     11  C   LIG d   1       1.059  83.520 112.971  0.00  0.00     0.028 C 
ATOM     12  C   LIG d   1       2.208  84.273 113.662  0.00  0.00     0.006 C 
ENDBRANCH   8  11
ENDBRANCH   7   8
ENDBRANCH   1   7
BRANCH   6  13
ATOM     13  N   LIG d   1      -0.295  82.487 116.150  0.00  0.00    -0.311 N 
ATOM     14  C   LIG d   1      -0.545  82.969 117.367  0.00  0.00     0.210 C 
ATOM     15  C   LIG d   1       0.642  83.661 118.043  0.00  0.00     0.109 C 
ATOM     16  O   LIG d   1      -1.627  82.859 117.962  0.00  0.00    -0.276 OA
ATOM     17  H   LIG d   1       0.619  82.592 115.756  0.00  0.00     0.149 HD
ENDBRANCH   6  13
BRANCH   5  18
ATOM     18  N   LIG d   1      -1.825  79.979 116.988  0.00  0.00     0.381 N 
ATOM     19  H   LIG d   1      -2.823  80.030 117.046  0.00  0.00    -0.090 HD
ATOM     20  H   LIG d   1      -1.437  80.666 117.611  0.00  0.00    -0.090 HD
ATOM     21  H   LIG d   1      -1.516  79.069 117.252  0.00  0.00    -0.090 HD
ENDBRANCH   5  18
BRANCH   3  22
ATOM     22  C   LIG d   1      -2.525  79.033 112.346  0.00  0.00     0.382 C 
ATOM     23  O   LIG d   1      -3.435  78.203 112.583  0.00  0.00    -0.241 OA
ATOM     24  O   LIG d   1      -1.922  78.988 111.257  0.00  0.00    -0.241 OA
ENDBRANCH   3  22
TORSDOF 7
ENDMDL
MODEL 8
REMARK VINA RESULT:      -4.3      3.727      6.467
REMARK  7 active torsions:
REMARK  status: ('A' for Active; 'I' for Inactive)
REMARK    1  A    between atoms: C_2  and  C_3 
REMARK    2  A    between atoms: C_3  and  O_6 
REMARK    3  A    between atoms: C_3  and  C_4 
REMARK    4  A    between atoms: C_7  and  O_6 
REMARK    5  A    between atoms: C_9  and  C_10 
REMARK    6  A    between atoms: N_15  and  C_14 
REMARK    7  A    between atoms: N_20  and  C_19 
REMARK       I    between atoms: C_22  and  N_20 
ROOT
ATOM      1  C   LIG d   1      -2.260  81.060 114.924  0.00  0.00     0.161 C 
ATOM      2  C   LIG d   1      -2.158  81.804 113.736  0.00  0.00     0.016 C 
ATOM      3  C   LIG d   1      -0.930  82.272 113.215  0.00  0.00     0.038 C 
ATOM      4  C   LIG d   1       0.303  81.897 113.769  0.00  0.00     0.028 C 
ATOM      5  C   LIG d   1       0.223  81.566 115.256  0.00  0.00    -0.047 C 
ATOM      6  C   LIG d   1      -0.917  80.546 115.482  0.00  0.00     0.091 C 
ENDROOT
BRANCH   1   7
ATOM      7  O   LIG d   1      -3.177  79.964 114.736  0.00  0.00    -0.368 OA
BRANCH   7   8
ATOM      8  C   LIG d   1      -2.592  78.709 114.309  0.00  0.00     0.119 C 
BRANCH   8   9
ATOM      9  C   LIG d   1      -2.943  78.518 112.821  0.00  0.00     0.028 C 
ATOM     10  C   LIG d   1      -1.787  78.919 111.889  0.00  0.00     0.006 C 
ENDBRANCH   8   9
BRANCH   8  11
ATOM     11  C   LIG d   1      -3.231  77.521 115.033  0.00  0.00     0.028 C 
ATOM     12  C   LIG d   1      -3.270  76.249 114.171  0.00  0.00     0.006 C 
ENDBRANCH   8  11
ENDBRANCH   7   8
ENDBRANCH   1   7
BRANCH   6  13
ATOM     13  N   LIG d   1      -1.118  80.232 116.921  0.00  0.00    -0.311 N 
ATOM     14  C   LIG d   1      -0.609  79.154 117.514  0.00  0.00     0.210 C 
ATOM     15  C   LIG d   1      -0.955  79.010 119.000  0.00  0.00     0.109 C 
ATOM     16  O   LIG d   1       0.123  78.321 116.959  0.00  0.00    -0.276 OA
ATOM     17  H   LIG d   1      -1.674  80.872 117.454  0.00  0.00     0.149 HD
ENDBRANCH   6  13
BRANCH   5  18
ATOM     18  N   LIG d   1       1.544  81.059 115.671  0.00  0.00     0.381 N 
ATOM     19  H   LIG d   1       2.106  81.815 116.008  0.00  0.00    -0.090 HD
ATOM     20  H   LIG d   1       2.003  80.656 114.873  0.00  0.00    -0.090 HD
ATOM     21  H   LIG d   1       1.436  80.372 116.384  0.00  0.00    -0.090 HD
ENDBRANCH   5  18
BRANCH   3  22
ATOM     22  C   LIG d   1      -0.930  83.160 112.149  0.00  0.00     0.382 C 
ATOM     23  O   LIG d   1      -0.750  84.384 112.353  0.00  0.00    -0.241 OA
ATOM     24  O   LIG d   1      -1.152  82.756 110.991  0.00  0.00    -0.241 OA
ENDBRANCH   3  22
TORSDOF 7
ENDMDL
MODEL 9
REMARK VINA RESULT:      -4.3      2.738      4.797
REMARK  7 active torsions:
REMARK  status: ('A' for Active; 'I' for Inactive)
REMARK    1  A    between atoms: C_2  and  C_3 
REMARK    2  A    between atoms: C_3  and  O_6 
REMARK    3  A    between atoms: C_3  and  C_4 
REMARK    4  A    between atoms: C_7  and  O_6 
REMARK    5  A    between atoms: C_9  and  C_10 
REMARK    6  A    between atoms: N_15  and  C_14 
REMARK    7  A    between atoms: N_20  and  C_19 
REMARK       I    between atoms: C_22  and  N_20 
ROOT
ATOM      1  C   LIG d   1       0.879  81.348 114.020  0.00  0.00     0.161 C 
ATOM      2  C   LIG d   1      -0.305  80.938 113.385  0.00  0.00     0.016 C 
ATOM      3  C   LIG d   1      -1.588  81.406 113.752  0.00  0.00     0.038 C 
ATOM      4  C   LIG d   1      -1.761  82.437 114.688  0.00  0.00     0.028 C 
ATOM      5  C   LIG d   1      -0.635  82.520 115.713  0.00  0.00    -0.047 C 
ATOM      6  C   LIG d   1       0.720  82.555 114.968  0.00  0.00     0.091 C 
ENDROOT
BRANCH   1   7
ATOM      7  O   LIG d   1       1.895  81.616 113.034  0.00  0.00    -0.368 OA
BRANCH   7   8
ATOM      8  C   LIG d   1       1.438  81.741 111.665  0.00  0.00     0.119 C 
BRANCH   8   9
ATOM      9  C   LIG d   1       2.276  80.774 110.807  0.00  0.00     0.028 C 
ATOM     10  C   LIG d   1       1.405  79.897 109.891  0.00  0.00     0.006 C 
ENDBRANCH   8   9
BRANCH   8  11
ATOM     11  C   LIG d   1       1.731  83.137 111.106  0.00  0.00     0.028 C 
ATOM     12  C   LIG d   1       3.180  83.292 110.619  0.00  0.00     0.006 C 
ENDBRANCH   8  11
ENDBRANCH   7   8
ENDBRANCH   1   7
BRANCH   6  13
ATOM     13  N   LIG d   1       1.878  82.552 115.899  0.00  0.00    -0.311 N 
ATOM     14  C   LIG d   1       2.095  81.592 116.796  0.00  0.00     0.210 C 
ATOM     15  C   LIG d   1       3.337  81.792 117.670  0.00  0.00     0.109 C 
ATOM     16  O   LIG d   1       1.395  80.577 116.929  0.00  0.00    -0.276 OA
ATOM     17  H   LIG d   1       2.515  83.323 115.838  0.00  0.00     0.149 HD
ENDBRANCH   6  13
BRANCH   5  18
ATOM     18  N   LIG d   1      -0.871  83.720 116.538  0.00  0.00     0.381 N 
ATOM     19  H   LIG d   1      -1.505  84.335 116.068  0.00  0.00    -0.090 HD
ATOM     20  H   LIG d   1       0.000  84.203 116.667  0.00  0.00    -0.090 HD
ATOM     21  H   LIG d   1      -1.247  83.456 117.423  0.00  0.00    -0.090 HD
ENDBRANCH   5  18
BRANCH   3  22
ATOM     22  C   LIG d   1      -2.717  80.812 113.210  0.00  0.00     0.382 C 
ATOM     23  O   LIG d   1      -3.439  81.454 112.409  0.00  0.00    -0.241 OA
ATOM     24  O   LIG d   1      -3.048  79.659 113.546  0.00  0.00    -0.241 OA
ENDBRANCH   3  22
TORSDOF 7
ENDMDL
