MODEL 1
REMARK VINA RESULT:      -5.1      0.000      0.000
REMARK  7 active torsions:
REMARK  status: ('A' for Active; 'I' for Inactive)
REMARK    1  A    between atoms: C_2  and  C_3 
REMARK    2  A    between atoms: C_3  and  O_6 
REMARK    3  A    between atoms: C_3  and  C_4 
REMARK    4  A    between atoms: C_7  and  O_6 
REMARK    5  A    between atoms: C_9  and  C_10 
REMARK    6  A    between atoms: N_15  and  C_14 
REMARK    7  A    between atoms: N_20  and  C_19 
REMARK       I    between atoms: C_22  and  N_20 
ROOT
ATOM      1  C   LIG d   1       1.764  82.028 112.701  0.00  0.00     0.161 C 
ATOM      2  C   LIG d   1       2.800  82.726 112.059  0.00  0.00     0.016 C 
ATOM      3  C   LIG d   1       2.919  82.822 110.653  0.00  0.00     0.038 C 
ATOM      4  C   LIG d   1       1.918  82.351 109.790  0.00  0.00     0.028 C 
ATOM      5  C   LIG d   1       1.109  81.198 110.375  0.00  0.00    -0.047 C 
ATOM      6  C   LIG d   1       0.603  81.601 111.778  0.00  0.00     0.091 C 
ENDROOT
BRANCH   1   7
ATOM      7  O   LIG d   1       1.265  82.804 113.808  0.00  0.00    -0.368 OA
BRANCH   7   8
ATOM      8  C   LIG d   1       2.238  83.179 114.814  0.00  0.00     0.119 C 
BRANCH   8   9
ATOM      9  C   LIG d   1       2.196  82.108 115.921  0.00  0.00     0.028 C 
ATOM     10  C   LIG d   1       3.439  81.202 115.909  0.00  0.00     0.006 C 
ENDBRANCH   8   9
BRANCH   8  11
ATOM     11  C   LIG d   1       1.850  84.490 115.503  0.00  0.00     0.028 C 
ATOM     12  C   LIG d   1       1.719  84.346 117.028  0.00  0.00     0.006 C 
ENDBRANCH   8  11
ENDBRANCH   7   8
ENDBRANCH   1   7
BRANCH   6  13
ATOM     13  N   LIG d   1      -0.128  80.499 112.456  0.00  0.00    -0.311 N 
ATOM     14  C   LIG d   1      -1.443  80.512 112.667  0.00  0.00     0.210 C 
ATOM     15  C   LIG d   1      -1.993  79.284 113.401  0.00  0.00     0.109 C 
ATOM     16  O   LIG d   1      -2.211  81.409 112.288  0.00  0.00    -0.276 OA
ATOM     17  H   LIG d   1       0.414  79.717 112.768  0.00  0.00     0.149 HD
ENDBRANCH   6  13
BRANCH   5  18
ATOM     18  N   LIG d   1       0.016  80.897 109.430  0.00  0.00     0.381 N 
ATOM     19  H   LIG d   1      -0.818  81.371 109.715  0.00  0.00    -0.090 HD
ATOM     20  H   LIG d   1      -0.163  79.909 109.444  0.00  0.00    -0.090 HD
ATOM     21  H   LIG d   1       0.272  81.183 108.511  0.00  0.00    -0.090 HD
ENDBRANCH   5  18
BRANCH   3  22
ATOM     22  C   LIG d   1       4.069  83.361 110.096  0.00  0.00     0.382 C 
ATOM     23  O   LIG d   1       4.851  82.630 109.442  0.00  0.00    -0.241 OA
ATOM     24  O   LIG d   1       4.356  84.560 110.277  0.00  0.00    -0.241 OA
ENDBRANCH   3  22
TORSDOF 7
ENDMDL
MODEL 2
REMARK VINA RESULT:      -5.1      2.621      6.077
REMARK  7 active torsions:
REMARK  status: ('A' for Active; 'I' for Inactive)
REMARK    1  A    between atoms: C_2  and  C_3 
REMARK    2  A    between atoms: C_3  and  O_6 
REMARK    3  A    between atoms: C_3  and  C_4 
REMARK    4  A    between atoms: C_7  and  O_6 
REMARK    5  A    between atoms: C_9  and  C_10 
REMARK    6  A    between atoms: N_15  and  C_14 
REMARK    7  A    between atoms: N_20  and  C_19 
REMARK       I    between atoms: C_22  and  N_20 
ROOT
ATOM      1  C   LIG d   1      -0.180  80.471 111.793  0.00  0.00     0.161 C 
ATOM      2  C   LIG d   1      -1.205  79.555 111.504  0.00  0.00     0.016 C 
ATOM      3  C   LIG d   1      -1.968  78.903 112.499  0.00  0.00     0.038 C 
ATOM      4  C   LIG d   1      -1.859  79.238 113.856  0.00  0.00     0.028 C 
ATOM      5  C   LIG d   1      -0.489  79.789 114.236  0.00  0.00    -0.047 C 
ATOM      6  C   LIG d   1      -0.121  80.933 113.264  0.00  0.00     0.091 C 
ENDROOT
BRANCH   1   7
ATOM      7  O   LIG d   1      -0.279  81.609 110.914  0.00  0.00    -0.368 OA
BRANCH   7   8
ATOM      8  C   LIG d   1       0.719  81.695 109.867  0.00  0.00     0.119 C 
BRANCH   8   9
ATOM      9  C   LIG d   1       1.779  80.612 110.148  0.00  0.00     0.028 C 
ATOM     10  C   LIG d   1       3.182  81.204 110.358  0.00  0.00     0.006 C 
ENDBRANCH   8   9
BRANCH   8  11
ATOM     11  C   LIG d   1       1.475  83.026 109.926  0.00  0.00     0.028 C 
ATOM     12  C   LIG d   1       0.539  84.237 110.067  0.00  0.00     0.006 C 
ENDBRANCH   8  11
ENDBRANCH   7   8
ENDBRANCH   1   7
BRANCH   6  13
ATOM     13  N   LIG d   1       1.241  81.472 113.512  0.00  0.00    -0.311 N 
ATOM     14  C   LIG d   1       1.510  82.774 113.599  0.00  0.00     0.210 C 
ATOM     15  C   LIG d   1       2.984  83.115 113.839  0.00  0.00     0.109 C 
ATOM     16  O   LIG d   1       0.663  83.677 113.532  0.00  0.00    -0.276 OA
ATOM     17  H   LIG d   1       1.984  80.808 113.610  0.00  0.00     0.149 HD
ENDBRANCH   6  13
BRANCH   5  18
ATOM     18  N   LIG d   1      -0.558  80.226 115.643  0.00  0.00     0.381 N 
ATOM     19  H   LIG d   1       0.360  80.441 115.977  0.00  0.00    -0.090 HD
ATOM     20  H   LIG d   1      -0.927  79.474 116.199  0.00  0.00    -0.090 HD
ATOM     21  H   LIG d   1      -1.145  81.027 115.723  0.00  0.00    -0.090 HD
ENDBRANCH   5  18
BRANCH   3  22
ATOM     22  C   LIG d   1      -2.826  77.873 112.142  0.00  0.00     0.382 C 
ATOM     23  O   LIG d   1      -3.440  77.232 113.029  0.00  0.00    -0.241 OA
ATOM     24  O   LIG d   1      -2.959  77.547 110.947  0.00  0.00    -0.241 OA
ENDBRANCH   3  22
TORSDOF 7
ENDMDL
MODEL 3
REMARK VINA RESULT:      -4.2      2.285      3.624
REMARK  7 active torsions:
REMARK  status: ('A' for Active; 'I' for Inactive)
REMARK    1  A    between atoms: C_2  and  C_3 
REMARK    2  A    between atoms: C_3  and  O_6 
REMARK    3  A    between atoms: C_3  and  C_4 
REMARK    4  A    between atoms: C_7  and  O_6 
REMARK    5  A    between atoms: C_9  and  C_10 
REMARK    6  A    between atoms: N_15  and  C_14 
REMARK    7  A    between atoms: N_20  and  C_19 
REMARK       I    between atoms: C_22  and  N_20 
ROOT
ATOM      1  C   LIG d   1       0.435  80.618 113.646  0.00  0.00     0.161 C 
ATOM      2  C   LIG d   1       1.388  81.585 114.004  0.00  0.00     0.016 C 
ATOM      3  C   LIG d   1       1.850  82.588 113.120  0.00  0.00     0.038 C 
ATOM      4  C   LIG d   1       1.273  82.785 111.857  0.00  0.00     0.028 C 
ATOM      5  C   LIG d   1       0.662  81.519 111.265  0.00  0.00    -0.047 C 
ATOM      6  C   LIG d   1      -0.287  80.885 112.308  0.00  0.00     0.091 C 
ENDROOT
BRANCH   1   7
ATOM      7  O   LIG d   1      -0.525  80.460 114.710  0.00  0.00    -0.368 OA
BRANCH   7   8
ATOM      8  C   LIG d   1      -0.489  79.197 115.418  0.00  0.00     0.119 C 
BRANCH   8   9
ATOM      9  C   LIG d   1      -1.944  78.716 115.581  0.00  0.00     0.028 C 
ATOM     10  C   LIG d   1      -2.828  79.753 116.296  0.00  0.00     0.006 C 
ENDBRANCH   8   9
BRANCH   8  11
ATOM     11  C   LIG d   1       0.042  79.371 116.843  0.00  0.00     0.028 C 
ATOM     12  C   LIG d   1       0.742  78.111 117.377  0.00  0.00     0.006 C 
ENDBRANCH   8  11
ENDBRANCH   7   8
ENDBRANCH   1   7
BRANCH   6  13
ATOM     13  N   LIG d   1      -0.862  79.597 111.842  0.00  0.00    -0.311 N 
ATOM     14  C   LIG d   1      -2.146  79.272 111.987  0.00  0.00     0.210 C 
ATOM     15  C   LIG d   1      -2.526  77.887 111.454  0.00  0.00     0.109 C 
ATOM     16  O   LIG d   1      -3.012  80.012 112.476  0.00  0.00    -0.276 OA
ATOM     17  H   LIG d   1      -0.236  78.949 111.405  0.00  0.00     0.149 HD
ENDBRANCH   6  13
BRANCH   5  18
ATOM     18  N   LIG d   1      -0.022  81.896 110.015  0.00  0.00     0.381 N 
ATOM     19  H   LIG d   1       0.318  81.335 109.260  0.00  0.00    -0.090 HD
ATOM     20  H   LIG d   1       0.183  82.858 109.809  0.00  0.00    -0.090 HD
ATOM     21  H   LIG d   1      -1.006  81.772 110.113  0.00  0.00    -0.090 HD
ENDBRANCH   5  18
BRANCH   3  22
ATOM     22  C   LIG d   1       2.927  83.381 113.483  0.00  0.00     0.382 C 
ATOM     23  O   LIG d   1       3.751  82.968 114.335  0.00  0.00    -0.241 OA
ATOM     24  O   LIG d   1       3.062  84.523 113.003  0.00  0.00    -0.241 OA
ENDBRANCH   3  22
TORSDOF 7
ENDMDL
MODEL 4
REMARK VINA RESULT:      -4.0      5.640      7.155
REMARK  7 active torsions:
REMARK  status: ('A' for Active; 'I' for Inactive)
REMARK    1  A    between atoms: C_2  and  C_3 
REMARK    2  A    between atoms: C_3  and  O_6 
REMARK    3  A    between atoms: C_3  and  C_4 
REMARK    4  A    between atoms: C_7  and  O_6 
REMARK    5  A    between atoms: C_9  and  C_10 
REMARK    6  A    between atoms: N_15  and  C_14 
REMARK    7  A    between atoms: N_20  and  C_19 
REMARK       I    between atoms: C_22  and  N_20 
ROOT
ATOM      1  C   LIG d   1      -1.708  78.825 116.790  0.00  0.00     0.161 C 
ATOM      2  C   LIG d   1      -2.215  79.589 115.725  0.00  0.00     0.016 C 
ATOM      3  C   LIG d   1      -2.215  79.147 114.382  0.00  0.00     0.038 C 
ATOM      4  C   LIG d   1      -1.843  77.841 114.031  0.00  0.00     0.028 C 
ATOM      5  C   LIG d   1      -0.852  77.211 115.004  0.00  0.00    -0.047 C 
ATOM      6  C   LIG d   1      -1.401  77.354 116.442  0.00  0.00     0.091 C 
ENDROOT
BRANCH   1   7
ATOM      7  O   LIG d   1      -2.607  78.897 117.914  0.00  0.00    -0.368 OA
BRANCH   7   8
ATOM      8  C   LIG d   1      -2.161  79.694 119.038  0.00  0.00     0.119 C 
BRANCH   8   9
ATOM      9  C   LIG d   1      -2.957  81.013 119.015  0.00  0.00     0.028 C 
ATOM     10  C   LIG d   1      -2.113  82.216 119.469  0.00  0.00     0.006 C 
ENDBRANCH   8   9
BRANCH   8  11
ATOM     11  C   LIG d   1      -0.693  80.104 118.882  0.00  0.00     0.028 C 
ATOM     12  C   LIG d   1       0.227  79.428 119.911  0.00  0.00     0.006 C 
ENDBRANCH   8  11
ENDBRANCH   7   8
ENDBRANCH   1   7
BRANCH   6  13
ATOM     13  N   LIG d   1      -0.453  76.838 117.464  0.00  0.00    -0.311 N 
ATOM     14  C   LIG d   1      -0.822  76.061 118.480  0.00  0.00     0.210 C 
ATOM     15  C   LIG d   1       0.310  75.657 119.430  0.00  0.00     0.109 C 
ATOM     16  O   LIG d   1      -1.973  75.640 118.667  0.00  0.00    -0.276 OA
ATOM     17  H   LIG d   1       0.508  77.105 117.371  0.00  0.00     0.149 HD
ENDBRANCH   6  13
BRANCH   5  18
ATOM     18  N   LIG d   1      -0.658  75.807 114.596  0.00  0.00     0.381 N 
ATOM     19  H   LIG d   1      -1.546  75.373 114.441  0.00  0.00    -0.090 HD
ATOM     20  H   LIG d   1      -0.192  75.314 115.337  0.00  0.00    -0.090 HD
ATOM     21  H   LIG d   1      -0.111  75.766 113.764  0.00  0.00    -0.090 HD
ENDBRANCH   5  18
BRANCH   3  22
ATOM     22  C   LIG d   1      -2.553  80.031 113.368  0.00  0.00     0.382 C 
ATOM     23  O   LIG d   1      -3.215  81.063 113.631  0.00  0.00    -0.241 OA
ATOM     24  O   LIG d   1      -2.242  79.786 112.187  0.00  0.00    -0.241 OA
ENDBRANCH   3  22
TORSDOF 7
ENDMDL
MODEL 5
REMARK VINA RESULT:      -4.0      3.397      6.532
REMARK  7 active torsions:
REMARK  status: ('A' for Active; 'I' for Inactive)
REMARK    1  A    between atoms: C_2  and  C_3 
REMARK    2  A    between atoms: C_3  and  O_6 
REMARK    3  A    between atoms: C_3  and  C_4 
REMARK    4  A    between atoms: C_7  and  O_6 
REMARK    5  A    between atoms: C_9  and  C_10 
REMARK    6  A    between atoms: N_15  and  C_14 
REMARK    7  A    between atoms: N_20  and  C_19 
REMARK       I    between atoms: C_22  and  N_20 
ROOT
ATOM      1  C   LIG d   1      -1.225  79.648 115.058  0.00  0.00     0.161 C 
ATOM      2  C   LIG d   1      -1.620  78.442 115.660  0.00  0.00     0.016 C 
ATOM      3  C   LIG d   1      -2.035  77.306 114.928  0.00  0.00     0.038 C 
ATOM      4  C   LIG d   1      -1.940  77.250 113.529  0.00  0.00     0.028 C 
ATOM      5  C   LIG d   1      -2.025  78.618 112.861  0.00  0.00    -0.047 C 
ATOM      6  C   LIG d   1      -1.009  79.569 113.532  0.00  0.00     0.091 C 
ENDROOT
BRANCH   1   7
ATOM      7  O   LIG d   1      -0.042  80.154 115.706  0.00  0.00    -0.368 OA
BRANCH   7   8
ATOM      8  C   LIG d   1       0.146  79.760 117.088  0.00  0.00     0.119 C 
BRANCH   8   9
ATOM      9  C   LIG d   1      -0.135  80.996 117.964  0.00  0.00     0.028 C 
ATOM     10  C   LIG d   1      -1.545  80.972 118.577  0.00  0.00     0.006 C 
ENDBRANCH   8   9
BRANCH   8  11
ATOM     11  C   LIG d   1       1.605  79.388 117.368  0.00  0.00     0.028 C 
ATOM     12  C   LIG d   1       1.882  79.147 118.860  0.00  0.00     0.006 C 
ENDBRANCH   8  11
ENDBRANCH   7   8
ENDBRANCH   1   7
BRANCH   6  13
ATOM     13  N   LIG d   1      -1.086  80.952 112.994  0.00  0.00    -0.311 N 
ATOM     14  C   LIG d   1      -0.115  81.516 112.277  0.00  0.00     0.210 C 
ATOM     15  C   LIG d   1      -0.389  82.957 111.837  0.00  0.00     0.109 C 
ATOM     16  O   LIG d   1       0.933  80.947 111.936  0.00  0.00    -0.276 OA
ATOM     17  H   LIG d   1      -1.916  81.475 113.197  0.00  0.00     0.149 HD
ENDBRANCH   6  13
BRANCH   5  18
ATOM     18  N   LIG d   1      -1.774  78.426 111.420  0.00  0.00     0.381 N 
ATOM     19  H   LIG d   1      -2.531  77.917 111.009  0.00  0.00    -0.090 HD
ATOM     20  H   LIG d   1      -0.933  77.888 111.305  0.00  0.00    -0.090 HD
ATOM     21  H   LIG d   1      -1.675  79.310 110.970  0.00  0.00    -0.090 HD
ENDBRANCH   5  18
BRANCH   3  22
ATOM     22  C   LIG d   1      -2.591  76.224 115.594  0.00  0.00     0.382 C 
ATOM     23  O   LIG d   1      -2.206  75.937 116.753  0.00  0.00    -0.241 OA
ATOM     24  O   LIG d   1      -3.440  75.506 115.034  0.00  0.00    -0.241 OA
ENDBRANCH   3  22
TORSDOF 7
ENDMDL
MODEL 6
REMARK VINA RESULT:      -4.0      1.353      1.590
REMARK  7 active torsions:
REMARK  status: ('A' for Active; 'I' for Inactive)
REMARK    1  A    between atoms: C_2  and  C_3 
REMARK    2  A    between atoms: C_3  and  O_6 
REMARK    3  A    between atoms: C_3  and  C_4 
REMARK    4  A    between atoms: C_7  and  O_6 
REMARK    5  A    between atoms: C_9  and  C_10 
REMARK    6  A    between atoms: N_15  and  C_14 
REMARK    7  A    between atoms: N_20  and  C_19 
REMARK       I    between atoms: C_22  and  N_20 
ROOT
ATOM      1  C   LIG d   1       1.975  81.992 113.820  0.00  0.00     0.161 C 
ATOM      2  C   LIG d   1       2.784  82.805 113.008  0.00  0.00     0.016 C 
ATOM      3  C   LIG d   1       2.595  82.946 111.614  0.00  0.00     0.038 C 
ATOM      4  C   LIG d   1       1.482  82.398 110.958  0.00  0.00     0.028 C 
ATOM      5  C   LIG d   1       0.923  81.158 111.647  0.00  0.00    -0.047 C 
ATOM      6  C   LIG d   1       0.690  81.476 113.141  0.00  0.00     0.091 C 
ENDROOT
BRANCH   1   7
ATOM      7  O   LIG d   1       1.653  82.688 115.040  0.00  0.00    -0.368 OA
BRANCH   7   8
ATOM      8  C   LIG d   1       2.259  82.170 116.250  0.00  0.00     0.119 C 
BRANCH   8   9
ATOM      9  C   LIG d   1       3.182  81.006 115.842  0.00  0.00     0.028 C 
ATOM     10  C   LIG d   1       3.915  80.389 117.045  0.00  0.00     0.006 C 
ENDBRANCH   8   9
BRANCH   8  11
ATOM     11  C   LIG d   1       1.211  81.551 117.178  0.00  0.00     0.028 C 
ATOM     12  C   LIG d   1       0.597  82.572 118.149  0.00  0.00     0.006 C 
ENDBRANCH   8  11
ENDBRANCH   7   8
ENDBRANCH   1   7
BRANCH   6  13
ATOM     13  N   LIG d   1       0.222  80.290 113.906  0.00  0.00    -0.311 N 
ATOM     14  C   LIG d   1      -1.064  79.985 114.071  0.00  0.00     0.210 C 
ATOM     15  C   LIG d   1      -1.328  78.731 114.911  0.00  0.00     0.109 C 
ATOM     16  O   LIG d   1      -2.010  80.614 113.575  0.00  0.00    -0.276 OA
ATOM     17  H   LIG d   1       0.924  79.707 114.317  0.00  0.00     0.149 HD
ENDBRANCH   6  13
BRANCH   5  18
ATOM     18  N   LIG d   1      -0.312  80.774 110.938  0.00  0.00     0.381 N 
ATOM     19  H   LIG d   1      -0.625  81.533 110.365  0.00  0.00    -0.090 HD
ATOM     20  H   LIG d   1      -1.027  80.575 111.615  0.00  0.00    -0.090 HD
ATOM     21  H   LIG d   1      -0.146  79.970 110.373  0.00  0.00    -0.090 HD
ENDBRANCH   5  18
BRANCH   3  22
ATOM     22  C   LIG d   1       3.547  83.608 110.855  0.00  0.00     0.382 C 
ATOM     23  O   LIG d   1       3.933  83.118 109.767  0.00  0.00    -0.241 OA
ATOM     24  O   LIG d   1       4.057  84.668 111.266  0.00  0.00    -0.241 OA
ENDBRANCH   3  22
TORSDOF 7
ENDMDL
MODEL 7
REMARK VINA RESULT:      -3.8      2.638      4.877
REMARK  7 active torsions:
REMARK  status: ('A' for Active; 'I' for Inactive)
REMARK    1  A    between atoms: C_2  and  C_3 
REMARK    2  A    between atoms: C_3  and  O_6 
REMARK    3  A    between atoms: C_3  and  C_4 
REMARK    4  A    between atoms: C_7  and  O_6 
REMARK    5  A    between atoms: C_9  and  C_10 
REMARK    6  A    between atoms: N_15  and  C_14 
REMARK    7  A    between atoms: N_20  and  C_19 
REMARK       I    between atoms: C_22  and  N_20 
ROOT
ATOM      1  C   LIG d   1       0.123  81.659 113.216  0.00  0.00     0.161 C 
ATOM      2  C   LIG d   1      -0.092  82.344 112.010  0.00  0.00     0.016 C 
ATOM      3  C   LIG d   1       0.802  83.310 111.493  0.00  0.00     0.038 C 
ATOM      4  C   LIG d   1       2.056  83.547 112.077  0.00  0.00     0.028 C 
ATOM      5  C   LIG d   1       2.095  83.245 113.571  0.00  0.00    -0.047 C 
ATOM      6  C   LIG d   1       1.538  81.823 113.810  0.00  0.00     0.091 C 
ENDROOT
BRANCH   1   7
ATOM      7  O   LIG d   1      -0.190  80.262 113.047  0.00  0.00    -0.368 OA
BRANCH   7   8
ATOM      8  C   LIG d   1      -1.431  79.810 113.645  0.00  0.00     0.119 C 
BRANCH   8   9
ATOM      9  C   LIG d   1      -1.145  78.468 114.346  0.00  0.00     0.028 C 
ATOM     10  C   LIG d   1      -0.762  78.648 115.824  0.00  0.00     0.006 C 
ENDBRANCH   8   9
BRANCH   8  11
ATOM     11  C   LIG d   1      -2.481  79.494 112.576  0.00  0.00     0.028 C 
ATOM     12  C   LIG d   1      -2.249  78.135 111.896  0.00  0.00     0.006 C 
ENDBRANCH   8  11
ENDBRANCH   7   8
ENDBRANCH   1   7
BRANCH   6  13
ATOM     13  N   LIG d   1       1.462  81.479 115.254  0.00  0.00    -0.311 N 
ATOM     14  C   LIG d   1       2.486  80.979 115.943  0.00  0.00     0.210 C 
ATOM     15  C   LIG d   1       2.189  80.676 117.415  0.00  0.00     0.109 C 
ATOM     16  O   LIG d   1       3.622  80.787 115.483  0.00  0.00    -0.276 OA
ATOM     17  H   LIG d   1       0.586  81.632 115.714  0.00  0.00     0.149 HD
ENDBRANCH   6  13
BRANCH   5  18
ATOM     18  N   LIG d   1       3.491  83.402 114.021  0.00  0.00     0.381 N 
ATOM     19  H   LIG d   1       3.665  82.801 114.802  0.00  0.00    -0.090 HD
ATOM     20  H   LIG d   1       3.632  84.352 114.317  0.00  0.00    -0.090 HD
ATOM     21  H   LIG d   1       4.116  83.182 113.277  0.00  0.00    -0.090 HD
ENDBRANCH   5  18
BRANCH   3  22
ATOM     22  C   LIG d   1       0.428  84.079 110.402  0.00  0.00     0.382 C 
ATOM     23  O   LIG d   1       1.212  84.214 109.431  0.00  0.00    -0.241 OA
ATOM     24  O   LIG d   1      -0.665  84.676 110.395  0.00  0.00    -0.241 OA
ENDBRANCH   3  22
TORSDOF 7
ENDMDL
MODEL 8
REMARK VINA RESULT:      -3.8      6.100      8.162
REMARK  7 active torsions:
REMARK  status: ('A' for Active; 'I' for Inactive)
REMARK    1  A    between atoms: C_2  and  C_3 
REMARK    2  A    between atoms: C_3  and  O_6 
REMARK    3  A    between atoms: C_3  and  C_4 
REMARK    4  A    between atoms: C_7  and  O_6 
REMARK    5  A    between atoms: C_9  and  C_10 
REMARK    6  A    between atoms: N_15  and  C_14 
REMARK    7  A    between atoms: N_20  and  C_19 
REMARK       I    between atoms: C_22  and  N_20 
ROOT
ATOM      1  C   LIG d   1      -3.309  77.410 115.993  0.00  0.00     0.161 C 
ATOM      2  C   LIG d   1      -3.203  77.019 114.648  0.00  0.00     0.016 C 
ATOM      3  C   LIG d   1      -2.295  77.606 113.737  0.00  0.00     0.038 C 
ATOM      4  C   LIG d   1      -1.320  78.526 114.150  0.00  0.00     0.028 C 
ATOM      5  C   LIG d   1      -1.722  79.320 115.389  0.00  0.00    -0.047 C 
ATOM      6  C   LIG d   1      -2.178  78.335 116.489  0.00  0.00     0.091 C 
ENDROOT
BRANCH   1   7
ATOM      7  O   LIG d   1      -3.409  76.244 116.835  0.00  0.00    -0.368 OA
BRANCH   7   8
ATOM      8  C   LIG d   1      -2.155  75.633 117.227  0.00  0.00     0.119 C 
BRANCH   8   9
ATOM      9  C   LIG d   1      -2.117  74.220 116.614  0.00  0.00     0.028 C 
ATOM     10  C   LIG d   1      -1.357  74.181 115.277  0.00  0.00     0.006 C 
ENDBRANCH   8   9
BRANCH   8  11
ATOM     11  C   LIG d   1      -2.090  75.419 118.742  0.00  0.00     0.028 C 
ATOM     12  C   LIG d   1      -3.347  75.923 119.470  0.00  0.00     0.006 C 
ENDBRANCH   8  11
ENDBRANCH   7   8
ENDBRANCH   1   7
BRANCH   6  13
ATOM     13  N   LIG d   1      -2.668  79.033 117.707  0.00  0.00    -0.311 N 
ATOM     14  C   LIG d   1      -1.908  79.266 118.775  0.00  0.00     0.210 C 
ATOM     15  C   LIG d   1      -2.616  79.981 119.929  0.00  0.00     0.109 C 
ATOM     16  O   LIG d   1      -0.705  78.976 118.863  0.00  0.00    -0.276 OA
ATOM     17  H   LIG d   1      -3.625  79.330 117.708  0.00  0.00     0.149 HD
ENDBRANCH   6  13
BRANCH   5  18
ATOM     18  N   LIG d   1      -0.563  80.139 115.789  0.00  0.00     0.381 N 
ATOM     19  H   LIG d   1       0.104  80.169 115.044  0.00  0.00    -0.090 HD
ATOM     20  H   LIG d   1      -0.125  79.714 116.587  0.00  0.00    -0.090 HD
ATOM     21  H   LIG d   1      -0.860  81.062 116.017  0.00  0.00    -0.090 HD
ENDBRANCH   5  18
BRANCH   3  22
ATOM     22  C   LIG d   1      -2.383  77.302 112.387  0.00  0.00     0.382 C 
ATOM     23  O   LIG d   1      -3.239  77.875 111.670  0.00  0.00    -0.241 OA
ATOM     24  O   LIG d   1      -1.649  76.430 111.886  0.00  0.00    -0.241 OA
ENDBRANCH   3  22
TORSDOF 7
ENDMDL
MODEL 9
REMARK VINA RESULT:      -3.8      2.128      4.744
REMARK  7 active torsions:
REMARK  status: ('A' for Active; 'I' for Inactive)
REMARK    1  A    between atoms: C_2  and  C_3 
REMARK    2  A    between atoms: C_3  and  O_6 
REMARK    3  A    between atoms: C_3  and  C_4 
REMARK    4  A    between atoms: C_7  and  O_6 
REMARK    5  A    between atoms: C_9  and  C_10 
REMARK    6  A    between atoms: N_15  and  C_14 
REMARK    7  A    between atoms: N_20  and  C_19 
REMARK       I    between atoms: C_22  and  N_20 
ROOT
ATOM      1  C   LIG d   1       1.489  82.525 112.920  0.00  0.00     0.161 C 
ATOM      2  C   LIG d   1       2.662  82.998 113.531  0.00  0.00     0.016 C 
ATOM      3  C   LIG d   1       3.102  82.571 114.805  0.00  0.00     0.038 C 
ATOM      4  C   LIG d   1       2.474  81.522 115.493  0.00  0.00     0.028 C 
ATOM      5  C   LIG d   1       0.997  81.367 115.144  0.00  0.00    -0.047 C 
ATOM      6  C   LIG d   1       0.850  81.300 113.606  0.00  0.00     0.091 C 
ENDROOT
BRANCH   1   7
ATOM      7  O   LIG d   1       1.742  82.244 111.529  0.00  0.00    -0.368 OA
BRANCH   7   8
ATOM      8  C   LIG d   1       3.114  82.395 111.087  0.00  0.00     0.119 C 
BRANCH   8   9
ATOM      9  C   LIG d   1       3.155  83.578 110.101  0.00  0.00     0.028 C 
ATOM     10  C   LIG d   1       4.156  84.664 110.530  0.00  0.00     0.006 C 
ENDBRANCH   8   9
BRANCH   8  11
ATOM     11  C   LIG d   1       3.576  81.178 110.280  0.00  0.00     0.028 C 
ATOM     12  C   LIG d   1       2.405  80.365 109.705  0.00  0.00     0.006 C 
ENDBRANCH   8  11
ENDBRANCH   7   8
ENDBRANCH   1   7
BRANCH   6  13
ATOM     13  N   LIG d   1      -0.570  81.232 113.175  0.00  0.00    -0.311 N 
ATOM     14  C   LIG d   1      -1.300  80.119 113.226  0.00  0.00     0.210 C 
ATOM     15  C   LIG d   1      -2.736  80.264 112.714  0.00  0.00     0.109 C 
ATOM     16  O   LIG d   1      -0.903  79.033 113.675  0.00  0.00    -0.276 OA
ATOM     17  H   LIG d   1      -0.982  82.076 112.826  0.00  0.00     0.149 HD
ENDBRANCH   6  13
BRANCH   5  18
ATOM     18  N   LIG d   1       0.503  80.156 115.826  0.00  0.00     0.381 N 
ATOM     19  H   LIG d   1       0.954  80.059 116.713  0.00  0.00    -0.090 HD
ATOM     20  H   LIG d   1       0.730  79.353 115.267  0.00  0.00    -0.090 HD
ATOM     21  H   LIG d   1      -0.484  80.215 115.951  0.00  0.00    -0.090 HD
ENDBRANCH   5  18
BRANCH   3  22
ATOM     22  C   LIG d   1       4.159  83.223 115.421  0.00  0.00     0.382 C 
ATOM     23  O   LIG d   1       3.954  84.279 116.066  0.00  0.00    -0.241 OA
ATOM     24  O   LIG d   1       5.322  82.792 115.303  0.00  0.00    -0.241 OA
ENDBRANCH   3  22
TORSDOF 7
ENDMDL
