MODEL 1
REMARK VINA RESULT:      -5.4      0.000      0.000
REMARK  7 active torsions:
REMARK  status: ('A' for Active; 'I' for Inactive)
REMARK    1  A    between atoms: C_2  and  C_3 
REMARK    2  A    between atoms: C_3  and  O_6 
REMARK    3  A    between atoms: C_3  and  C_4 
REMARK    4  A    between atoms: C_7  and  O_6 
REMARK    5  A    between atoms: C_9  and  C_10 
REMARK    6  A    between atoms: N_15  and  C_14 
REMARK    7  A    between atoms: N_20  and  C_19 
REMARK       I    between atoms: C_22  and  N_20 
ROOT
ATOM      1  C   LIG d   1       0.569  82.508 112.323  0.00  0.00     0.161 C 
ATOM      2  C   LIG d   1      -0.710  82.175 112.799  0.00  0.00     0.016 C 
ATOM      3  C   LIG d   1      -1.432  81.041 112.361  0.00  0.00     0.038 C 
ATOM      4  C   LIG d   1      -0.857  80.074 111.523  0.00  0.00     0.028 C 
ATOM      5  C   LIG d   1       0.242  80.628 110.623  0.00  0.00    -0.047 C 
ATOM      6  C   LIG d   1       1.258  81.405 111.492  0.00  0.00     0.091 C 
ENDROOT
BRANCH   1   7
ATOM      7  O   LIG d   1       1.412  82.906 113.423  0.00  0.00    -0.368 OA
BRANCH   7   8
ATOM      8  C   LIG d   1       0.897  82.636 114.750  0.00  0.00     0.119 C 
BRANCH   8   9
ATOM      9  C   LIG d   1       1.121  83.901 115.600  0.00  0.00     0.028 C 
ATOM     10  C   LIG d   1       0.051  84.072 116.691  0.00  0.00     0.006 C 
ENDBRANCH   8   9
BRANCH   8  11
ATOM     11  C   LIG d   1       1.702  81.533 115.445  0.00  0.00     0.028 C 
ATOM     12  C   LIG d   1       0.945  80.197 115.514  0.00  0.00     0.006 C 
ENDBRANCH   8  11
ENDBRANCH   7   8
ENDBRANCH   1   7
BRANCH   6  13
ATOM     13  N   LIG d   1       2.321  82.052 110.680  0.00  0.00    -0.311 N 
ATOM     14  C   LIG d   1       3.460  81.446 110.347  0.00  0.00     0.210 C 
ATOM     15  C   LIG d   1       4.428  82.299 109.521  0.00  0.00     0.109 C 
ATOM     16  O   LIG d   1       3.745  80.273 110.629  0.00  0.00    -0.276 OA
ATOM     17  H   LIG d   1       2.158  82.993 110.381  0.00  0.00     0.149 HD
ENDBRANCH   6  13
BRANCH   5  18
ATOM     18  N   LIG d   1       0.847  79.490 109.905  0.00  0.00     0.381 N 
ATOM     19  H   LIG d   1       0.143  78.810 109.696  0.00  0.00    -0.090 HD
ATOM     20  H   LIG d   1       1.535  79.060 110.498  0.00  0.00    -0.090 HD
ATOM     21  H   LIG d   1       1.274  79.807 109.063  0.00  0.00    -0.090 HD
ENDBRANCH   5  18
BRANCH   3  22
ATOM     22  C   LIG d   1      -2.759  80.887 112.731  0.00  0.00     0.382 C 
ATOM     23  O   LIG d   1      -3.439  81.889 113.059  0.00  0.00    -0.241 OA
ATOM     24  O   LIG d   1      -3.273  79.753 112.785  0.00  0.00    -0.241 OA
ENDBRANCH   3  22
TORSDOF 7
ENDMDL
MODEL 2
REMARK VINA RESULT:      -5.2      1.612      1.726
REMARK  7 active torsions:
REMARK  status: ('A' for Active; 'I' for Inactive)
REMARK    1  A    between atoms: C_2  and  C_3 
REMARK    2  A    between atoms: C_3  and  O_6 
REMARK    3  A    between atoms: C_3  and  C_4 
REMARK    4  A    between atoms: C_7  and  O_6 
REMARK    5  A    between atoms: C_9  and  C_10 
REMARK    6  A    between atoms: N_15  and  C_14 
REMARK    7  A    between atoms: N_20  and  C_19 
REMARK       I    between atoms: C_22  and  N_20 
ROOT
ATOM      1  C   LIG d   1      -0.747  82.837 112.114  0.00  0.00     0.161 C 
ATOM      2  C   LIG d   1      -1.748  82.047 112.703  0.00  0.00     0.016 C 
ATOM      3  C   LIG d   1      -1.781  80.637 112.611  0.00  0.00     0.038 C 
ATOM      4  C   LIG d   1      -0.726  79.906 112.046  0.00  0.00     0.028 C 
ATOM      5  C   LIG d   1       0.057  80.685 110.995  0.00  0.00    -0.047 C 
ATOM      6  C   LIG d   1       0.472  82.051 111.588  0.00  0.00     0.091 C 
ENDROOT
BRANCH   1   7
ATOM      7  O   LIG d   1      -0.324  83.860 113.037  0.00  0.00    -0.368 OA
BRANCH   7   8
ATOM      8  C   LIG d   1       0.318  83.396 114.251  0.00  0.00     0.119 C 
BRANCH   8   9
ATOM      9  C   LIG d   1      -0.309  84.166 115.429  0.00  0.00     0.028 C 
ATOM     10  C   LIG d   1      -1.600  83.506 115.941  0.00  0.00     0.006 C 
ENDBRANCH   8   9
BRANCH   8  11
ATOM     11  C   LIG d   1       1.805  83.764 114.270  0.00  0.00     0.028 C 
ATOM     12  C   LIG d   1       2.368  83.893 115.694  0.00  0.00     0.006 C 
ENDBRANCH   8  11
ENDBRANCH   7   8
ENDBRANCH   1   7
BRANCH   6  13
ATOM     13  N   LIG d   1       1.170  82.911 110.597  0.00  0.00    -0.311 N 
ATOM     14  C   LIG d   1       2.495  83.000 110.508  0.00  0.00     0.210 C 
ATOM     15  C   LIG d   1       3.008  83.960 109.430  0.00  0.00     0.109 C 
ATOM     16  O   LIG d   1       3.296  82.349 111.197  0.00  0.00    -0.276 OA
ATOM     17  H   LIG d   1       0.597  83.450 109.978  0.00  0.00     0.149 HD
ENDBRANCH   6  13
BRANCH   5  18
ATOM     18  N   LIG d   1       1.208  79.856 110.590  0.00  0.00     0.381 N 
ATOM     19  H   LIG d   1       1.945  80.442 110.253  0.00  0.00    -0.090 HD
ATOM     20  H   LIG d   1       0.923  79.247 109.844  0.00  0.00    -0.090 HD
ATOM     21  H   LIG d   1       1.529  79.318 111.365  0.00  0.00    -0.090 HD
ENDBRANCH   5  18
BRANCH   3  22
ATOM     22  C   LIG d   1      -2.899  79.946 113.052  0.00  0.00     0.382 C 
ATOM     23  O   LIG d   1      -3.394  80.205 114.176  0.00  0.00    -0.241 OA
ATOM     24  O   LIG d   1      -3.393  79.035 112.360  0.00  0.00    -0.241 OA
ENDBRANCH   3  22
TORSDOF 7
ENDMDL
MODEL 3
REMARK VINA RESULT:      -5.0      1.950      4.911
REMARK  7 active torsions:
REMARK  status: ('A' for Active; 'I' for Inactive)
REMARK    1  A    between atoms: C_2  and  C_3 
REMARK    2  A    between atoms: C_3  and  O_6 
REMARK    3  A    between atoms: C_3  and  C_4 
REMARK    4  A    between atoms: C_7  and  O_6 
REMARK    5  A    between atoms: C_9  and  C_10 
REMARK    6  A    between atoms: N_15  and  C_14 
REMARK    7  A    between atoms: N_20  and  C_19 
REMARK       I    between atoms: C_22  and  N_20 
ROOT
ATOM      1  C   LIG d   1       0.699  82.826 112.234  0.00  0.00     0.161 C 
ATOM      2  C   LIG d   1       1.791  83.318 111.501  0.00  0.00     0.016 C 
ATOM      3  C   LIG d   1       2.367  82.630 110.408  0.00  0.00     0.038 C 
ATOM      4  C   LIG d   1       1.790  81.466 109.877  0.00  0.00     0.028 C 
ATOM      5  C   LIG d   1       0.988  80.668 110.898  0.00  0.00    -0.047 C 
ATOM      6  C   LIG d   1      -0.014  81.613 111.600  0.00  0.00     0.091 C 
ENDROOT
BRANCH   1   7
ATOM      7  O   LIG d   1      -0.244  83.889 112.479  0.00  0.00    -0.368 OA
BRANCH   7   8
ATOM      8  C   LIG d   1      -0.179  84.511 113.786  0.00  0.00     0.119 C 
BRANCH   8   9
ATOM      9  C   LIG d   1       0.643  83.582 114.700  0.00  0.00     0.028 C 
ATOM     10  C   LIG d   1       1.844  84.300 115.338  0.00  0.00     0.006 C 
ENDBRANCH   8   9
BRANCH   8  11
ATOM     11  C   LIG d   1      -1.565  84.593 114.433  0.00  0.00     0.028 C 
ATOM     12  C   LIG d   1      -1.763  83.556 115.550  0.00  0.00     0.006 C 
ENDBRANCH   8  11
ENDBRANCH   7   8
ENDBRANCH   1   7
BRANCH   6  13
ATOM     13  N   LIG d   1      -0.781  80.930 112.674  0.00  0.00    -0.311 N 
ATOM     14  C   LIG d   1      -2.100  81.042 112.817  0.00  0.00     0.210 C 
ATOM     15  C   LIG d   1      -2.690  80.271 114.002  0.00  0.00     0.109 C 
ATOM     16  O   LIG d   1      -2.843  81.680 112.055  0.00  0.00    -0.276 OA
ATOM     17  H   LIG d   1      -0.261  80.366 113.318  0.00  0.00     0.149 HD
ENDBRANCH   6  13
BRANCH   5  18
ATOM     18  N   LIG d   1       0.330  79.559 110.180  0.00  0.00     0.381 N 
ATOM     19  H   LIG d   1      -0.661  79.618 110.301  0.00  0.00    -0.090 HD
ATOM     20  H   LIG d   1       0.644  78.688 110.570  0.00  0.00    -0.090 HD
ATOM     21  H   LIG d   1       0.557  79.599 109.211  0.00  0.00    -0.090 HD
ENDBRANCH   5  18
BRANCH   3  22
ATOM     22  C   LIG d   1       3.557  83.084 109.860  0.00  0.00     0.382 C 
ATOM     23  O   LIG d   1       4.416  82.262 109.457  0.00  0.00    -0.241 OA
ATOM     24  O   LIG d   1       3.802  84.304 109.805  0.00  0.00    -0.241 OA
ENDBRANCH   3  22
TORSDOF 7
ENDMDL
MODEL 4
REMARK VINA RESULT:      -4.8      2.362      4.664
REMARK  7 active torsions:
REMARK  status: ('A' for Active; 'I' for Inactive)
REMARK    1  A    between atoms: C_2  and  C_3 
REMARK    2  A    between atoms: C_3  and  O_6 
REMARK    3  A    between atoms: C_3  and  C_4 
REMARK    4  A    between atoms: C_7  and  O_6 
REMARK    5  A    between atoms: C_9  and  C_10 
REMARK    6  A    between atoms: N_15  and  C_14 
REMARK    7  A    between atoms: N_20  and  C_19 
REMARK       I    between atoms: C_22  and  N_20 
ROOT
ATOM      1  C   LIG d   1       0.346  81.270 114.164  0.00  0.00     0.161 C 
ATOM      2  C   LIG d   1       1.009  82.369 113.592  0.00  0.00     0.016 C 
ATOM      3  C   LIG d   1       1.112  82.575 112.197  0.00  0.00     0.038 C 
ATOM      4  C   LIG d   1       0.425  81.770 111.276  0.00  0.00     0.028 C 
ATOM      5  C   LIG d   1       0.160  80.358 111.785  0.00  0.00    -0.047 C 
ATOM      6  C   LIG d   1      -0.504  80.442 113.178  0.00  0.00     0.091 C 
ENDROOT
BRANCH   1   7
ATOM      7  O   LIG d   1      -0.461  81.710 115.274  0.00  0.00    -0.368 OA
BRANCH   7   8
ATOM      8  C   LIG d   1      -1.542  82.620 114.955  0.00  0.00     0.119 C 
BRANCH   8   9
ATOM      9  C   LIG d   1      -1.336  83.896 115.794  0.00  0.00     0.028 C 
ATOM     10  C   LIG d   1      -0.340  83.686 116.947  0.00  0.00     0.006 C 
ENDBRANCH   8   9
BRANCH   8  11
ATOM     11  C   LIG d   1      -2.895  82.056 115.399  0.00  0.00     0.028 C 
ATOM     12  C   LIG d   1      -2.757  80.839 116.327  0.00  0.00     0.006 C 
ENDBRANCH   8  11
ENDBRANCH   7   8
ENDBRANCH   1   7
BRANCH   6  13
ATOM     13  N   LIG d   1      -0.721  79.103 113.785  0.00  0.00    -0.311 N 
ATOM     14  C   LIG d   1      -1.879  78.449 113.723  0.00  0.00     0.210 C 
ATOM     15  C   LIG d   1      -1.893  77.091 114.432  0.00  0.00     0.109 C 
ATOM     16  O   LIG d   1      -2.886  78.849 113.120  0.00  0.00    -0.276 OA
ATOM     17  H   LIG d   1       0.054  78.690 114.267  0.00  0.00     0.149 HD
ENDBRANCH   6  13
BRANCH   5  18
ATOM     18  N   LIG d   1      -0.680  79.674 110.784  0.00  0.00     0.381 N 
ATOM     19  H   LIG d   1      -0.402  78.716 110.706  0.00  0.00    -0.090 HD
ATOM     20  H   LIG d   1      -0.546  80.114 109.891  0.00  0.00    -0.090 HD
ATOM     21  H   LIG d   1      -1.639  79.728 111.049  0.00  0.00    -0.090 HD
ENDBRANCH   5  18
BRANCH   3  22
ATOM     22  C   LIG d   1       1.943  83.572 111.709  0.00  0.00     0.382 C 
ATOM     23  O   LIG d   1       3.025  83.828 112.291  0.00  0.00    -0.241 OA
ATOM     24  O   LIG d   1       1.603  84.250 110.721  0.00  0.00    -0.241 OA
ENDBRANCH   3  22
TORSDOF 7
ENDMDL
MODEL 5
REMARK VINA RESULT:      -4.7      2.476      4.347
REMARK  7 active torsions:
REMARK  status: ('A' for Active; 'I' for Inactive)
REMARK    1  A    between atoms: C_2  and  C_3 
REMARK    2  A    between atoms: C_3  and  O_6 
REMARK    3  A    between atoms: C_3  and  C_4 
REMARK    4  A    between atoms: C_7  and  O_6 
REMARK    5  A    between atoms: C_9  and  C_10 
REMARK    6  A    between atoms: N_15  and  C_14 
REMARK    7  A    between atoms: N_20  and  C_19 
REMARK       I    between atoms: C_22  and  N_20 
ROOT
ATOM      1  C   LIG d   1       0.498  82.453 112.185  0.00  0.00     0.161 C 
ATOM      2  C   LIG d   1      -0.441  81.437 111.945  0.00  0.00     0.016 C 
ATOM      3  C   LIG d   1      -1.679  81.346 112.623  0.00  0.00     0.038 C 
ATOM      4  C   LIG d   1      -2.130  82.358 113.483  0.00  0.00     0.028 C 
ATOM      5  C   LIG d   1      -0.999  83.145 114.137  0.00  0.00    -0.047 C 
ATOM      6  C   LIG d   1      -0.024  83.628 113.039  0.00  0.00     0.091 C 
ENDROOT
BRANCH   1   7
ATOM      7  O   LIG d   1       1.023  82.939 110.933  0.00  0.00    -0.368 OA
BRANCH   7   8
ATOM      8  C   LIG d   1       2.369  82.519 110.601  0.00  0.00     0.119 C 
BRANCH   8   9
ATOM      9  C   LIG d   1       3.093  83.733 109.986  0.00  0.00     0.028 C 
ATOM     10  C   LIG d   1       3.662  84.680 111.056  0.00  0.00     0.006 C 
ENDBRANCH   8   9
BRANCH   8  11
ATOM     11  C   LIG d   1       2.365  81.451 109.504  0.00  0.00     0.028 C 
ATOM     12  C   LIG d   1       2.433  80.021 110.064  0.00  0.00     0.006 C 
ENDBRANCH   8  11
ENDBRANCH   7   8
ENDBRANCH   1   7
BRANCH   6  13
ATOM     13  N   LIG d   1       1.157  84.335 113.601  0.00  0.00    -0.311 N 
ATOM     14  C   LIG d   1       2.022  83.766 114.438  0.00  0.00     0.210 C 
ATOM     15  C   LIG d   1       3.157  84.678 114.913  0.00  0.00     0.109 C 
ATOM     16  O   LIG d   1       1.976  82.583 114.807  0.00  0.00    -0.276 OA
ATOM     17  H   LIG d   1       1.288  85.290 113.329  0.00  0.00     0.149 HD
ENDBRANCH   6  13
BRANCH   5  18
ATOM     18  N   LIG d   1      -1.609  84.253 114.897  0.00  0.00     0.381 N 
ATOM     19  H   LIG d   1      -1.134  84.366 115.770  0.00  0.00    -0.090 HD
ATOM     20  H   LIG d   1      -2.569  84.026 115.087  0.00  0.00    -0.090 HD
ATOM     21  H   LIG d   1      -1.557  85.097 114.370  0.00  0.00    -0.090 HD
ENDBRANCH   5  18
BRANCH   3  22
ATOM     22  C   LIG d   1      -2.463  80.212 112.472  0.00  0.00     0.382 C 
ATOM     23  O   LIG d   1      -3.347  79.943 113.321  0.00  0.00    -0.241 OA
ATOM     24  O   LIG d   1      -2.268  79.431 111.521  0.00  0.00    -0.241 OA
ENDBRANCH   3  22
TORSDOF 7
ENDMDL
MODEL 6
REMARK VINA RESULT:      -4.4      1.953      4.775
REMARK  7 active torsions:
REMARK  status: ('A' for Active; 'I' for Inactive)
REMARK    1  A    between atoms: C_2  and  C_3 
REMARK    2  A    between atoms: C_3  and  O_6 
REMARK    3  A    between atoms: C_3  and  C_4 
REMARK    4  A    between atoms: C_7  and  O_6 
REMARK    5  A    between atoms: C_9  and  C_10 
REMARK    6  A    between atoms: N_15  and  C_14 
REMARK    7  A    between atoms: N_20  and  C_19 
REMARK       I    between atoms: C_22  and  N_20 
ROOT
ATOM      1  C   LIG d   1       0.517  82.098 113.457  0.00  0.00     0.161 C 
ATOM      2  C   LIG d   1       1.479  82.738 112.658  0.00  0.00     0.016 C 
ATOM      3  C   LIG d   1       1.654  82.464 111.282  0.00  0.00     0.038 C 
ATOM      4  C   LIG d   1       0.773  81.633 110.573  0.00  0.00     0.028 C 
ATOM      5  C   LIG d   1       0.101  80.578 111.446  0.00  0.00    -0.047 C 
ATOM      6  C   LIG d   1      -0.526  81.271 112.677  0.00  0.00     0.091 C 
ENDROOT
BRANCH   1   7
ATOM      7  O   LIG d   1      -0.139  83.065 114.300  0.00  0.00    -0.368 OA
BRANCH   7   8
ATOM      8  C   LIG d   1       0.437  83.260 115.615  0.00  0.00     0.119 C 
BRANCH   8   9
ATOM      9  C   LIG d   1       0.851  81.875 116.149  0.00  0.00     0.028 C 
ATOM     10  C   LIG d   1       2.075  81.945 117.077  0.00  0.00     0.006 C 
ENDBRANCH   8   9
BRANCH   8  11
ATOM     11  C   LIG d   1      -0.605  83.782 116.609  0.00  0.00     0.028 C 
ATOM     12  C   LIG d   1      -1.697  82.749 116.926  0.00  0.00     0.006 C 
ENDBRANCH   8  11
ENDBRANCH   7   8
ENDBRANCH   1   7
BRANCH   6  13
ATOM     13  N   LIG d   1      -1.131  80.301 113.626  0.00  0.00    -0.311 N 
ATOM     14  C   LIG d   1      -2.421  80.308 113.959  0.00  0.00     0.210 C 
ATOM     15  C   LIG d   1      -2.834  79.233 114.969  0.00  0.00     0.109 C 
ATOM     16  O   LIG d   1      -3.268  81.082 113.489  0.00  0.00    -0.276 OA
ATOM     17  H   LIG d   1      -0.522  79.618 114.031  0.00  0.00     0.149 HD
ENDBRANCH   6  13
BRANCH   5  18
ATOM     18  N   LIG d   1      -0.890  79.875 110.610  0.00  0.00     0.381 N 
ATOM     19  H   LIG d   1      -1.416  80.539 110.078  0.00  0.00    -0.090 HD
ATOM     20  H   LIG d   1      -1.525  79.377 111.209  0.00  0.00    -0.090 HD
ATOM     21  H   LIG d   1      -0.430  79.237 109.999  0.00  0.00    -0.090 HD
ENDBRANCH   5  18
BRANCH   3  22
ATOM     22  C   LIG d   1       2.746  82.992 110.609  0.00  0.00     0.382 C 
ATOM     23  O   LIG d   1       2.571  83.700 109.588  0.00  0.00    -0.241 OA
ATOM     24  O   LIG d   1       3.905  82.733 110.985  0.00  0.00    -0.241 OA
ENDBRANCH   3  22
TORSDOF 7
ENDMDL
MODEL 7
REMARK VINA RESULT:      -4.3      1.502      2.156
REMARK  7 active torsions:
REMARK  status: ('A' for Active; 'I' for Inactive)
REMARK    1  A    between atoms: C_2  and  C_3 
REMARK    2  A    between atoms: C_3  and  O_6 
REMARK    3  A    between atoms: C_3  and  C_4 
REMARK    4  A    between atoms: C_7  and  O_6 
REMARK    5  A    between atoms: C_9  and  C_10 
REMARK    6  A    between atoms: N_15  and  C_14 
REMARK    7  A    between atoms: N_20  and  C_19 
REMARK       I    between atoms: C_22  and  N_20 
ROOT
ATOM      1  C   LIG d   1       0.350  81.481 113.725  0.00  0.00     0.161 C 
ATOM      2  C   LIG d   1      -0.733  80.698 114.159  0.00  0.00     0.016 C 
ATOM      3  C   LIG d   1      -1.532  79.924 113.287  0.00  0.00     0.038 C 
ATOM      4  C   LIG d   1      -1.207  79.760 111.932  0.00  0.00     0.028 C 
ATOM      5  C   LIG d   1      -0.422  80.931 111.352  0.00  0.00    -0.047 C 
ATOM      6  C   LIG d   1       0.788  81.227 112.267  0.00  0.00     0.091 C 
ENDROOT
BRANCH   1   7
ATOM      7  O   LIG d   1       1.466  81.310 114.620  0.00  0.00    -0.368 OA
BRANCH   7   8
ATOM      8  C   LIG d   1       1.746  82.420 115.509  0.00  0.00     0.119 C 
BRANCH   8   9
ATOM      9  C   LIG d   1       2.326  81.835 116.812  0.00  0.00     0.028 C 
ATOM     10  C   LIG d   1       2.380  80.298 116.791  0.00  0.00     0.006 C 
ENDBRANCH   8   9
BRANCH   8  11
ATOM     11  C   LIG d   1       0.459  83.138 115.925  0.00  0.00     0.028 C 
ATOM     12  C   LIG d   1       0.642  84.658 116.061  0.00  0.00     0.006 C 
ENDBRANCH   8  11
ENDBRANCH   7   8
ENDBRANCH   1   7
BRANCH   6  13
ATOM     13  N   LIG d   1       1.562  82.413 111.817  0.00  0.00    -0.311 N 
ATOM     14  C   LIG d   1       2.679  82.329 111.097  0.00  0.00     0.210 C 
ATOM     15  C   LIG d   1       3.331  83.673 110.756  0.00  0.00     0.109 C 
ATOM     16  O   LIG d   1       3.174  81.271 110.680  0.00  0.00    -0.276 OA
ATOM     17  H   LIG d   1       1.214  83.313 112.084  0.00  0.00     0.149 HD
ENDBRANCH   6  13
BRANCH   5  18
ATOM     18  N   LIG d   1      -0.032  80.568 109.977  0.00  0.00     0.381 N 
ATOM     19  H   LIG d   1       0.954  80.400 109.937  0.00  0.00    -0.090 HD
ATOM     20  H   LIG d   1      -0.245  81.336 109.365  0.00  0.00    -0.090 HD
ATOM     21  H   LIG d   1      -0.527  79.754 109.685  0.00  0.00    -0.090 HD
ENDBRANCH   5  18
BRANCH   3  22
ATOM     22  C   LIG d   1      -2.695  79.335 113.762  0.00  0.00     0.382 C 
ATOM     23  O   LIG d   1      -3.337  79.877 114.693  0.00  0.00    -0.241 OA
ATOM     24  O   LIG d   1      -3.085  78.246 113.300  0.00  0.00    -0.241 OA
ENDBRANCH   3  22
TORSDOF 7
ENDMDL
MODEL 8
REMARK VINA RESULT:      -4.1      2.444      4.948
REMARK  7 active torsions:
REMARK  status: ('A' for Active; 'I' for Inactive)
REMARK    1  A    between atoms: C_2  and  C_3 
REMARK    2  A    between atoms: C_3  and  O_6 
REMARK    3  A    between atoms: C_3  and  C_4 
REMARK    4  A    between atoms: C_7  and  O_6 
REMARK    5  A    between atoms: C_9  and  C_10 
REMARK    6  A    between atoms: N_15  and  C_14 
REMARK    7  A    between atoms: N_20  and  C_19 
REMARK       I    between atoms: C_22  and  N_20 
ROOT
ATOM      1  C   LIG d   1       0.828  82.011 113.388  0.00  0.00     0.161 C 
ATOM      2  C   LIG d   1      -0.012  81.088 112.742  0.00  0.00     0.016 C 
ATOM      3  C   LIG d   1      -1.422  81.115 112.844  0.00  0.00     0.038 C 
ATOM      4  C   LIG d   1      -2.099  82.166 113.482  0.00  0.00     0.028 C 
ATOM      5  C   LIG d   1      -1.277  82.842 114.574  0.00  0.00    -0.047 C 
ATOM      6  C   LIG d   1       0.103  83.230 113.996  0.00  0.00     0.091 C 
ENDROOT
BRANCH   1   7
ATOM      7  O   LIG d   1       1.864  82.445 112.484  0.00  0.00    -0.368 OA
BRANCH   7   8
ATOM      8  C   LIG d   1       1.584  82.286 111.071  0.00  0.00     0.119 C 
BRANCH   8   9
ATOM      9  C   LIG d   1       2.863  81.742 110.404  0.00  0.00     0.028 C 
ATOM     10  C   LIG d   1       2.884  80.205 110.344  0.00  0.00     0.006 C 
ENDBRANCH   8   9
BRANCH   8  11
ATOM     11  C   LIG d   1       1.321  83.638 110.400  0.00  0.00     0.028 C 
ATOM     12  C   LIG d   1      -0.174  83.988 110.333  0.00  0.00     0.006 C 
ENDBRANCH   8  11
ENDBRANCH   7   8
ENDBRANCH   1   7
BRANCH   6  13
ATOM     13  N   LIG d   1       1.001  83.821 115.022  0.00  0.00    -0.311 N 
ATOM     14  C   LIG d   1       1.069  83.382 116.278  0.00  0.00     0.210 C 
ATOM     15  C   LIG d   1       2.046  84.146 117.178  0.00  0.00     0.109 C 
ATOM     16  O   LIG d   1       0.437  82.413 116.723  0.00  0.00    -0.276 OA
ATOM     17  H   LIG d   1       1.573  84.592 114.738  0.00  0.00     0.149 HD
ENDBRANCH   6  13
BRANCH   5  18
ATOM     18  N   LIG d   1      -2.048  84.002 115.058  0.00  0.00     0.381 N 
ATOM     19  H   LIG d   1      -1.445  84.794 115.153  0.00  0.00    -0.090 HD
ATOM     20  H   LIG d   1      -2.428  83.785 115.963  0.00  0.00    -0.090 HD
ATOM     21  H   LIG d   1      -2.786  84.211 114.422  0.00  0.00    -0.090 HD
ENDBRANCH   5  18
BRANCH   3  22
ATOM     22  C   LIG d   1      -2.168  80.062 112.339  0.00  0.00     0.382 C 
ATOM     23  O   LIG d   1      -1.796  79.475 111.294  0.00  0.00    -0.241 OA
ATOM     24  O   LIG d   1      -3.231  79.719 112.890  0.00  0.00    -0.241 OA
ENDBRANCH   3  22
TORSDOF 7
ENDMDL
MODEL 9
REMARK VINA RESULT:      -4.0      3.125      4.882
REMARK  7 active torsions:
REMARK  status: ('A' for Active; 'I' for Inactive)
REMARK    1  A    between atoms: C_2  and  C_3 
REMARK    2  A    between atoms: C_3  and  O_6 
REMARK    3  A    between atoms: C_3  and  C_4 
REMARK    4  A    between atoms: C_7  and  O_6 
REMARK    5  A    between atoms: C_9  and  C_10 
REMARK    6  A    between atoms: N_15  and  C_14 
REMARK    7  A    between atoms: N_20  and  C_19 
REMARK       I    between atoms: C_22  and  N_20 
ROOT
ATOM      1  C   LIG d   1       0.475  80.786 114.595  0.00  0.00     0.161 C 
ATOM      2  C   LIG d   1       0.295  81.526 113.416  0.00  0.00     0.016 C 
ATOM      3  C   LIG d   1      -0.712  81.242 112.464  0.00  0.00     0.038 C 
ATOM      4  C   LIG d   1      -1.709  80.284 112.704  0.00  0.00     0.028 C 
ATOM      5  C   LIG d   1      -1.266  79.173 113.649  0.00  0.00    -0.047 C 
ATOM      6  C   LIG d   1      -0.671  79.808 114.927  0.00  0.00     0.091 C 
ENDROOT
BRANCH   1   7
ATOM      7  O   LIG d   1       0.708  81.679 115.702  0.00  0.00    -0.368 OA
BRANCH   7   8
ATOM      8  C   LIG d   1      -0.473  82.235 116.332  0.00  0.00     0.119 C 
BRANCH   8   9
ATOM      9  C   LIG d   1      -0.471  83.752 116.060  0.00  0.00     0.028 C 
ATOM     10  C   LIG d   1      -1.558  84.169 115.055  0.00  0.00     0.006 C 
ENDBRANCH   8   9
BRANCH   8  11
ATOM     11  C   LIG d   1      -0.409  82.096 117.856  0.00  0.00     0.028 C 
ATOM     12  C   LIG d   1      -1.322  83.096 118.583  0.00  0.00     0.006 C 
ENDBRANCH   8  11
ENDBRANCH   7   8
ENDBRANCH   1   7
BRANCH   6  13
ATOM     13  N   LIG d   1      -0.137  78.791 115.869  0.00  0.00    -0.311 N 
ATOM     14  C   LIG d   1      -0.823  78.323 116.911  0.00  0.00     0.210 C 
ATOM     15  C   LIG d   1      -0.079  77.294 117.767  0.00  0.00     0.109 C 
ATOM     16  O   LIG d   1      -1.990  78.640 117.188  0.00  0.00    -0.276 OA
ATOM     17  H   LIG d   1       0.792  78.456 115.701  0.00  0.00     0.149 HD
ENDBRANCH   6  13
BRANCH   5  18
ATOM     18  N   LIG d   1      -2.441  78.323 113.919  0.00  0.00     0.381 N 
ATOM     19  H   LIG d   1      -2.387  77.955 114.848  0.00  0.00    -0.090 HD
ATOM     20  H   LIG d   1      -2.441  77.553 113.274  0.00  0.00    -0.090 HD
ATOM     21  H   LIG d   1      -3.278  78.854 113.813  0.00  0.00    -0.090 HD
ENDBRANCH   5  18
BRANCH   3  22
ATOM     22  C   LIG d   1      -0.704  81.893 111.240  0.00  0.00     0.382 C 
ATOM     23  O   LIG d   1      -0.069  81.404 110.274  0.00  0.00    -0.241 OA
ATOM     24  O   LIG d   1      -1.287  82.985 111.101  0.00  0.00    -0.241 OA
ENDBRANCH   3  22
TORSDOF 7
ENDMDL
