MODEL 1
REMARK VINA RESULT:      -5.2      0.000      0.000
REMARK  7 active torsions:
REMARK  status: ('A' for Active; 'I' for Inactive)
REMARK    1  A    between atoms: C_2  and  C_3 
REMARK    2  A    between atoms: C_3  and  O_6 
REMARK    3  A    between atoms: C_3  and  C_4 
REMARK    4  A    between atoms: C_7  and  O_6 
REMARK    5  A    between atoms: C_9  and  C_10 
REMARK    6  A    between atoms: N_15  and  C_14 
REMARK    7  A    between atoms: N_20  and  C_19 
REMARK       I    between atoms: C_22  and  N_20 
ROOT
ATOM      1  C   LIG d   1       0.388  83.206 111.990  0.00  0.00     0.161 C 
ATOM      2  C   LIG d   1      -0.828  82.741 112.517  0.00  0.00     0.016 C 
ATOM      3  C   LIG d   1      -1.269  81.403 112.395  0.00  0.00     0.038 C 
ATOM      4  C   LIG d   1      -0.446  80.398 111.865  0.00  0.00     0.028 C 
ATOM      5  C   LIG d   1       0.581  80.919 110.866  0.00  0.00    -0.047 C 
ATOM      6  C   LIG d   1       1.348  82.100 111.505  0.00  0.00     0.091 C 
ENDROOT
BRANCH   1   7
ATOM      7  O   LIG d   1       1.045  84.054 112.952  0.00  0.00    -0.368 OA
BRANCH   7   8
ATOM      8  C   LIG d   1       2.257  83.525 113.545  0.00  0.00     0.119 C 
BRANCH   8   9
ATOM      9  C   LIG d   1       1.918  83.099 114.987  0.00  0.00     0.028 C 
ATOM     10  C   LIG d   1       2.133  81.594 115.220  0.00  0.00     0.006 C 
ENDBRANCH   8   9
BRANCH   8  11
ATOM     11  C   LIG d   1       3.329  84.609 113.683  0.00  0.00     0.028 C 
ATOM     12  C   LIG d   1       4.747  84.083 113.408  0.00  0.00     0.006 C 
ENDBRANCH   8  11
ENDBRANCH   7   8
ENDBRANCH   1   7
BRANCH   6  13
ATOM     13  N   LIG d   1       2.315  82.723 110.564  0.00  0.00    -0.311 N 
ATOM     14  C   LIG d   1       3.580  82.326 110.444  0.00  0.00     0.210 C 
ATOM     15  C   LIG d   1       4.412  83.118 109.430  0.00  0.00     0.109 C 
ATOM     16  O   LIG d   1       4.084  81.373 111.057  0.00  0.00    -0.276 OA
ATOM     17  H   LIG d   1       1.981  83.484 110.005  0.00  0.00     0.149 HD
ENDBRANCH   6  13
BRANCH   5  18
ATOM     18  N   LIG d   1       1.458  79.792 110.498  0.00  0.00     0.381 N 
ATOM     19  H   LIG d   1       1.094  78.941 110.880  0.00  0.00    -0.090 HD
ATOM     20  H   LIG d   1       2.370  79.948 110.889  0.00  0.00    -0.090 HD
ATOM     21  H   LIG d   1       1.521  79.718 109.506  0.00  0.00    -0.090 HD
ENDBRANCH   5  18
BRANCH   3  22
ATOM     22  C   LIG d   1      -2.560  81.067 112.771  0.00  0.00     0.382 C 
ATOM     23  O   LIG d   1      -2.939  79.872 112.717  0.00  0.00    -0.241 OA
ATOM     24  O   LIG d   1      -3.366  81.951 113.121  0.00  0.00    -0.241 OA
ENDBRANCH   3  22
TORSDOF 7
ENDMDL
MODEL 2
REMARK VINA RESULT:      -4.7      2.362      5.833
REMARK  7 active torsions:
REMARK  status: ('A' for Active; 'I' for Inactive)
REMARK    1  A    between atoms: C_2  and  C_3 
REMARK    2  A    between atoms: C_3  and  O_6 
REMARK    3  A    between atoms: C_3  and  C_4 
REMARK    4  A    between atoms: C_7  and  O_6 
REMARK    5  A    between atoms: C_9  and  C_10 
REMARK    6  A    between atoms: N_15  and  C_14 
REMARK    7  A    between atoms: N_20  and  C_19 
REMARK       I    between atoms: C_22  and  N_20 
ROOT
ATOM      1  C   LIG d   1       1.689  82.840 111.912  0.00  0.00     0.161 C 
ATOM      2  C   LIG d   1       3.024  83.251 112.061  0.00  0.00     0.016 C 
ATOM      3  C   LIG d   1       3.815  82.932 113.188  0.00  0.00     0.038 C 
ATOM      4  C   LIG d   1       3.368  82.046 114.181  0.00  0.00     0.028 C 
ATOM      5  C   LIG d   1       1.851  82.012 114.324  0.00  0.00    -0.047 C 
ATOM      6  C   LIG d   1       1.221  81.780 112.931  0.00  0.00     0.091 C 
ENDROOT
BRANCH   1   7
ATOM      7  O   LIG d   1       1.470  82.371 110.566  0.00  0.00    -0.368 OA
BRANCH   7   8
ATOM      8  C   LIG d   1       1.874  81.007 110.292  0.00  0.00     0.119 C 
BRANCH   8   9
ATOM      9  C   LIG d   1       3.150  81.067 109.431  0.00  0.00     0.028 C 
ATOM     10  C   LIG d   1       4.404  80.634 110.208  0.00  0.00     0.006 C 
ENDBRANCH   8   9
BRANCH   8  11
ATOM     11  C   LIG d   1       0.837  80.281 109.430  0.00  0.00     0.028 C 
ATOM     12  C   LIG d   1       0.977  78.752 109.492  0.00  0.00     0.006 C 
ENDBRANCH   8  11
ENDBRANCH   7   8
ENDBRANCH   1   7
BRANCH   6  13
ATOM     13  N   LIG d   1      -0.265  81.817 112.968  0.00  0.00    -0.311 N 
ATOM     14  C   LIG d   1      -1.030  80.751 112.741  0.00  0.00     0.210 C 
ATOM     15  C   LIG d   1      -2.538  81.012 112.808  0.00  0.00     0.109 C 
ATOM     16  O   LIG d   1      -0.604  79.608 112.522  0.00  0.00    -0.276 OA
ATOM     17  H   LIG d   1      -0.694  82.699 113.169  0.00  0.00     0.149 HD
ENDBRANCH   6  13
BRANCH   5  18
ATOM     18  N   LIG d   1       1.518  80.951 115.293  0.00  0.00     0.381 N 
ATOM     19  H   LIG d   1       2.272  80.295 115.349  0.00  0.00    -0.090 HD
ATOM     20  H   LIG d   1       0.700  80.463 114.972  0.00  0.00    -0.090 HD
ATOM     21  H   LIG d   1       1.347  81.349 116.189  0.00  0.00    -0.090 HD
ENDBRANCH   5  18
BRANCH   3  22
ATOM     22  C   LIG d   1       5.054  83.533 113.351  0.00  0.00     0.382 C 
ATOM     23  O   LIG d   1       5.294  84.203 114.384  0.00  0.00    -0.241 OA
ATOM     24  O   LIG d   1       5.918  83.450 112.459  0.00  0.00    -0.241 OA
ENDBRANCH   3  22
TORSDOF 7
ENDMDL
MODEL 3
REMARK VINA RESULT:      -4.6      1.764      4.862
REMARK  7 active torsions:
REMARK  status: ('A' for Active; 'I' for Inactive)
REMARK    1  A    between atoms: C_2  and  C_3 
REMARK    2  A    between atoms: C_3  and  O_6 
REMARK    3  A    between atoms: C_3  and  C_4 
REMARK    4  A    between atoms: C_7  and  O_6 
REMARK    5  A    between atoms: C_9  and  C_10 
REMARK    6  A    between atoms: N_15  and  C_14 
REMARK    7  A    between atoms: N_20  and  C_19 
REMARK       I    between atoms: C_22  and  N_20 
ROOT
ATOM      1  C   LIG d   1       1.714  81.902 112.927  0.00  0.00     0.161 C 
ATOM      2  C   LIG d   1       2.777  82.589 112.318  0.00  0.00     0.016 C 
ATOM      3  C   LIG d   1       2.885  82.772 110.920  0.00  0.00     0.038 C 
ATOM      4  C   LIG d   1       1.853  82.408 110.042  0.00  0.00     0.028 C 
ATOM      5  C   LIG d   1       0.993  81.261 110.561  0.00  0.00    -0.047 C 
ATOM      6  C   LIG d   1       0.523  81.595 111.996  0.00  0.00     0.091 C 
ENDROOT
BRANCH   1   7
ATOM      7  O   LIG d   1       1.267  82.626 114.090  0.00  0.00    -0.368 OA
BRANCH   7   8
ATOM      8  C   LIG d   1       2.293  83.003 115.040  0.00  0.00     0.119 C 
BRANCH   8   9
ATOM      9  C   LIG d   1       2.591  81.770 115.915  0.00  0.00     0.028 C 
ATOM     10  C   LIG d   1       4.053  81.307 115.799  0.00  0.00     0.006 C 
ENDBRANCH   8   9
BRANCH   8  11
ATOM     11  C   LIG d   1       1.788  84.076 116.010  0.00  0.00     0.028 C 
ATOM     12  C   LIG d   1       2.911  84.680 116.868  0.00  0.00     0.006 C 
ENDBRANCH   8  11
ENDBRANCH   7   8
ENDBRANCH   1   7
BRANCH   6  13
ATOM     13  N   LIG d   1      -0.255  80.487 112.610  0.00  0.00    -0.311 N 
ATOM     14  C   LIG d   1      -1.586  80.455 112.641  0.00  0.00     0.210 C 
ATOM     15  C   LIG d   1      -2.187  79.232 113.340  0.00  0.00     0.109 C 
ATOM     16  O   LIG d   1      -2.326  81.308 112.128  0.00  0.00    -0.276 OA
ATOM     17  H   LIG d   1       0.266  79.738 113.022  0.00  0.00     0.149 HD
ENDBRANCH   6  13
BRANCH   5  18
ATOM     18  N   LIG d   1      -0.124  81.077 109.615  0.00  0.00     0.381 N 
ATOM     19  H   LIG d   1      -0.212  80.109 109.379  0.00  0.00    -0.090 HD
ATOM     20  H   LIG d   1       0.076  81.590 108.774  0.00  0.00    -0.090 HD
ATOM     21  H   LIG d   1      -0.972  81.407 110.021  0.00  0.00    -0.090 HD
ENDBRANCH   5  18
BRANCH   3  22
ATOM     22  C   LIG d   1       4.054  83.289 110.383  0.00  0.00     0.382 C 
ATOM     23  O   LIG d   1       4.010  84.300 109.642  0.00  0.00    -0.241 OA
ATOM     24  O   LIG d   1       5.148  82.731 110.595  0.00  0.00    -0.241 OA
ENDBRANCH   3  22
TORSDOF 7
ENDMDL
MODEL 4
REMARK VINA RESULT:      -4.2      5.948      7.774
REMARK  7 active torsions:
REMARK  status: ('A' for Active; 'I' for Inactive)
REMARK    1  A    between atoms: C_2  and  C_3 
REMARK    2  A    between atoms: C_3  and  O_6 
REMARK    3  A    between atoms: C_3  and  C_4 
REMARK    4  A    between atoms: C_7  and  O_6 
REMARK    5  A    between atoms: C_9  and  C_10 
REMARK    6  A    between atoms: N_15  and  C_14 
REMARK    7  A    between atoms: N_20  and  C_19 
REMARK       I    between atoms: C_22  and  N_20 
ROOT
ATOM      1  C   LIG d   1      -0.833  77.505 116.124  0.00  0.00     0.161 C 
ATOM      2  C   LIG d   1      -1.273  78.152 114.958  0.00  0.00     0.016 C 
ATOM      3  C   LIG d   1      -2.346  77.683 114.166  0.00  0.00     0.038 C 
ATOM      4  C   LIG d   1      -3.155  76.611 114.572  0.00  0.00     0.028 C 
ATOM      5  C   LIG d   1      -2.435  75.621 115.482  0.00  0.00    -0.047 C 
ATOM      6  C   LIG d   1      -1.773  76.397 116.643  0.00  0.00     0.091 C 
ENDROOT
BRANCH   1   7
ATOM      7  O   LIG d   1      -0.585  78.477 117.159  0.00  0.00    -0.368 OA
BRANCH   7   8
ATOM      8  C   LIG d   1       0.776  78.554 117.649  0.00  0.00     0.119 C 
BRANCH   8   9
ATOM      9  C   LIG d   1       0.731  78.357 119.176  0.00  0.00     0.028 C 
ATOM     10  C   LIG d   1       1.891  77.489 119.691  0.00  0.00     0.006 C 
ENDBRANCH   8   9
BRANCH   8  11
ATOM     11  C   LIG d   1       1.366  79.951 117.438  0.00  0.00     0.028 C 
ATOM     12  C   LIG d   1       0.941  80.948 118.528  0.00  0.00     0.006 C 
ENDBRANCH   8  11
ENDBRANCH   7   8
ENDBRANCH   1   7
BRANCH   6  13
ATOM     13  N   LIG d   1      -0.977  75.512 117.534  0.00  0.00    -0.311 N 
ATOM     14  C   LIG d   1      -1.211  75.386 118.839  0.00  0.00     0.210 C 
ATOM     15  C   LIG d   1      -0.260  74.437 119.577  0.00  0.00     0.109 C 
ATOM     16  O   LIG d   1      -2.135  75.943 119.450  0.00  0.00    -0.276 OA
ATOM     17  H   LIG d   1      -0.227  74.998 117.115  0.00  0.00     0.149 HD
ENDBRANCH   6  13
BRANCH   5  18
ATOM     18  N   LIG d   1      -3.430  74.633 115.940  0.00  0.00     0.381 N 
ATOM     19  H   LIG d   1      -3.460  73.862 115.303  0.00  0.00    -0.090 HD
ATOM     20  H   LIG d   1      -4.337  75.066 115.953  0.00  0.00    -0.090 HD
ATOM     21  H   LIG d   1      -3.195  74.310 116.852  0.00  0.00    -0.090 HD
ENDBRANCH   5  18
BRANCH   3  22
ATOM     22  C   LIG d   1      -2.595  78.265 112.932  0.00  0.00     0.382 C 
ATOM     23  O   LIG d   1      -2.377  77.619 111.879  0.00  0.00    -0.241 OA
ATOM     24  O   LIG d   1      -2.992  79.443 112.858  0.00  0.00    -0.241 OA
ENDBRANCH   3  22
TORSDOF 7
ENDMDL
MODEL 5
REMARK VINA RESULT:      -4.1      2.561      5.841
REMARK  7 active torsions:
REMARK  status: ('A' for Active; 'I' for Inactive)
REMARK    1  A    between atoms: C_2  and  C_3 
REMARK    2  A    between atoms: C_3  and  O_6 
REMARK    3  A    between atoms: C_3  and  C_4 
REMARK    4  A    between atoms: C_7  and  O_6 
REMARK    5  A    between atoms: C_9  and  C_10 
REMARK    6  A    between atoms: N_15  and  C_14 
REMARK    7  A    between atoms: N_20  and  C_19 
REMARK       I    between atoms: C_22  and  N_20 
ROOT
ATOM      1  C   LIG d   1       1.711  82.145 113.203  0.00  0.00     0.161 C 
ATOM      2  C   LIG d   1       2.247  82.103 111.905  0.00  0.00     0.016 C 
ATOM      3  C   LIG d   1       3.634  82.036 111.637  0.00  0.00     0.038 C 
ATOM      4  C   LIG d   1       4.578  81.853 112.658  0.00  0.00     0.028 C 
ATOM      5  C   LIG d   1       4.123  82.396 114.008  0.00  0.00    -0.047 C 
ATOM      6  C   LIG d   1       2.720  81.833 114.328  0.00  0.00     0.091 C 
ENDROOT
BRANCH   1   7
ATOM      7  O   LIG d   1       0.574  81.263 113.290  0.00  0.00    -0.368 OA
BRANCH   7   8
ATOM      8  C   LIG d   1      -0.335  81.283 112.163  0.00  0.00     0.119 C 
BRANCH   8   9
ATOM      9  C   LIG d   1      -1.632  81.975 112.626  0.00  0.00     0.028 C 
ATOM     10  C   LIG d   1      -2.783  80.978 112.847  0.00  0.00     0.006 C 
ENDBRANCH   8   9
BRANCH   8  11
ATOM     11  C   LIG d   1      -0.754  79.866 111.760  0.00  0.00     0.028 C 
ATOM     12  C   LIG d   1      -0.197  79.447 110.390  0.00  0.00     0.006 C 
ENDBRANCH   8  11
ENDBRANCH   7   8
ENDBRANCH   1   7
BRANCH   6  13
ATOM     13  N   LIG d   1       2.165  82.381 115.594  0.00  0.00    -0.311 N 
ATOM     14  C   LIG d   1       2.295  81.777 116.774  0.00  0.00     0.210 C 
ATOM     15  C   LIG d   1       1.630  82.502 117.948  0.00  0.00     0.109 C 
ATOM     16  O   LIG d   1       2.926  80.727 116.964  0.00  0.00    -0.276 OA
ATOM     17  H   LIG d   1       1.664  83.246 115.535  0.00  0.00     0.149 HD
ENDBRANCH   6  13
BRANCH   5  18
ATOM     18  N   LIG d   1       5.140  82.015 115.007  0.00  0.00     0.381 N 
ATOM     19  H   LIG d   1       5.160  81.020 115.108  0.00  0.00    -0.090 HD
ATOM     20  H   LIG d   1       4.892  82.417 115.893  0.00  0.00    -0.090 HD
ATOM     21  H   LIG d   1       6.037  82.346 114.724  0.00  0.00    -0.090 HD
ENDBRANCH   5  18
BRANCH   3  22
ATOM     22  C   LIG d   1       4.091  82.194 110.337  0.00  0.00     0.382 C 
ATOM     23  O   LIG d   1       4.876  81.349 109.842  0.00  0.00    -0.241 OA
ATOM     24  O   LIG d   1       3.764  83.193 109.669  0.00  0.00    -0.241 OA
ENDBRANCH   3  22
TORSDOF 7
ENDMDL
MODEL 6
REMARK VINA RESULT:      -4.1      3.170      6.400
REMARK  7 active torsions:
REMARK  status: ('A' for Active; 'I' for Inactive)
REMARK    1  A    between atoms: C_2  and  C_3 
REMARK    2  A    between atoms: C_3  and  O_6 
REMARK    3  A    between atoms: C_3  and  C_4 
REMARK    4  A    between atoms: C_7  and  O_6 
REMARK    5  A    between atoms: C_9  and  C_10 
REMARK    6  A    between atoms: N_15  and  C_14 
REMARK    7  A    between atoms: N_20  and  C_19 
REMARK       I    between atoms: C_22  and  N_20 
ROOT
ATOM      1  C   LIG d   1       1.955  82.172 114.385  0.00  0.00     0.161 C 
ATOM      2  C   LIG d   1       2.821  82.383 113.299  0.00  0.00     0.016 C 
ATOM      3  C   LIG d   1       4.217  82.165 113.363  0.00  0.00     0.038 C 
ATOM      4  C   LIG d   1       4.824  81.573 114.480  0.00  0.00     0.028 C 
ATOM      5  C   LIG d   1       4.065  81.812 115.781  0.00  0.00    -0.047 C 
ATOM      6  C   LIG d   1       2.583  81.420 115.577  0.00  0.00     0.091 C 
ENDROOT
BRANCH   1   7
ATOM      7  O   LIG d   1       0.765  81.494 113.936  0.00  0.00    -0.368 OA
BRANCH   7   8
ATOM      8  C   LIG d   1       0.287  81.852 112.616  0.00  0.00     0.119 C 
BRANCH   8   9
ATOM      9  C   LIG d   1      -0.830  82.898 112.796  0.00  0.00     0.028 C 
ATOM     10  C   LIG d   1      -0.380  84.313 112.395  0.00  0.00     0.006 C 
ENDBRANCH   8   9
BRANCH   8  11
ATOM     11  C   LIG d   1      -0.381  80.661 111.923  0.00  0.00     0.028 C 
ATOM     12  C   LIG d   1      -1.742  80.299 112.539  0.00  0.00     0.006 C 
ENDBRANCH   8  11
ENDBRANCH   7   8
ENDBRANCH   1   7
BRANCH   6  13
ATOM     13  N   LIG d   1       1.752  81.703 116.775  0.00  0.00    -0.311 N 
ATOM     14  C   LIG d   1       1.554  80.822 117.755  0.00  0.00     0.210 C 
ATOM     15  C   LIG d   1       0.647  81.309 118.889  0.00  0.00     0.109 C 
ATOM     16  O   LIG d   1       2.070  79.695 117.807  0.00  0.00    -0.276 OA
ATOM     17  H   LIG d   1       1.321  82.605 116.829  0.00  0.00     0.149 HD
ENDBRANCH   6  13
BRANCH   5  18
ATOM     18  N   LIG d   1       4.731  81.027 116.837  0.00  0.00     0.381 N 
ATOM     19  H   LIG d   1       4.707  80.055 116.601  0.00  0.00    -0.090 HD
ATOM     20  H   LIG d   1       4.232  81.154 117.700  0.00  0.00    -0.090 HD
ATOM     21  H   LIG d   1       5.674  81.328 116.942  0.00  0.00    -0.090 HD
ENDBRANCH   5  18
BRANCH   3  22
ATOM     22  C   LIG d   1       5.025  82.579 112.315  0.00  0.00     0.382 C 
ATOM     23  O   LIG d   1       5.953  83.397 112.525  0.00  0.00    -0.241 OA
ATOM     24  O   LIG d   1       4.811  82.178 111.156  0.00  0.00    -0.241 OA
ENDBRANCH   3  22
TORSDOF 7
ENDMDL
MODEL 7
REMARK VINA RESULT:      -3.9      1.846      2.788
REMARK  7 active torsions:
REMARK  status: ('A' for Active; 'I' for Inactive)
REMARK    1  A    between atoms: C_2  and  C_3 
REMARK    2  A    between atoms: C_3  and  O_6 
REMARK    3  A    between atoms: C_3  and  C_4 
REMARK    4  A    between atoms: C_7  and  O_6 
REMARK    5  A    between atoms: C_9  and  C_10 
REMARK    6  A    between atoms: N_15  and  C_14 
REMARK    7  A    between atoms: N_20  and  C_19 
REMARK       I    between atoms: C_22  and  N_20 
ROOT
ATOM      1  C   LIG d   1       1.734  82.269 113.601  0.00  0.00     0.161 C 
ATOM      2  C   LIG d   1       0.525  81.598 113.351  0.00  0.00     0.016 C 
ATOM      3  C   LIG d   1       0.013  81.374 112.052  0.00  0.00     0.038 C 
ATOM      4  C   LIG d   1       0.756  81.674 110.901  0.00  0.00     0.028 C 
ATOM      5  C   LIG d   1       1.755  82.809 111.104  0.00  0.00    -0.047 C 
ATOM      6  C   LIG d   1       2.611  82.506 112.354  0.00  0.00     0.091 C 
ENDROOT
BRANCH   1   7
ATOM      7  O   LIG d   1       2.481  81.568 114.614  0.00  0.00    -0.368 OA
BRANCH   7   8
ATOM      8  C   LIG d   1       2.300  82.031 115.975  0.00  0.00     0.119 C 
BRANCH   8   9
ATOM      9  C   LIG d   1       2.052  83.551 115.918  0.00  0.00     0.028 C 
ATOM     10  C   LIG d   1       3.193  84.355 116.564  0.00  0.00     0.006 C 
ENDBRANCH   8   9
BRANCH   8  11
ATOM     11  C   LIG d   1       3.580  81.859 116.798  0.00  0.00     0.028 C 
ATOM     12  C   LIG d   1       4.669  81.074 116.049  0.00  0.00     0.006 C 
ENDBRANCH   8  11
ENDBRANCH   7   8
ENDBRANCH   1   7
BRANCH   6  13
ATOM     13  N   LIG d   1       3.558  83.606 112.673  0.00  0.00    -0.311 N 
ATOM     14  C   LIG d   1       4.853  83.411 112.919  0.00  0.00     0.210 C 
ATOM     15  C   LIG d   1       5.647  84.680 113.246  0.00  0.00     0.109 C 
ATOM     16  O   LIG d   1       5.425  82.312 112.866  0.00  0.00    -0.276 OA
ATOM     17  H   LIG d   1       3.184  84.534 112.707  0.00  0.00     0.149 HD
ENDBRANCH   6  13
BRANCH   5  18
ATOM     18  N   LIG d   1       2.555  82.924 109.869  0.00  0.00     0.381 N 
ATOM     19  H   LIG d   1       2.184  82.315 109.167  0.00  0.00    -0.090 HD
ATOM     20  H   LIG d   1       3.499  82.640 110.066  0.00  0.00    -0.090 HD
ATOM     21  H   LIG d   1       2.544  83.865 109.543  0.00  0.00    -0.090 HD
ENDBRANCH   5  18
BRANCH   3  22
ATOM     22  C   LIG d   1      -1.272  80.879 111.896  0.00  0.00     0.382 C 
ATOM     23  O   LIG d   1      -2.255  81.548 112.299  0.00  0.00    -0.241 OA
ATOM     24  O   LIG d   1      -1.460  79.753 111.398  0.00  0.00    -0.241 OA
ENDBRANCH   3  22
TORSDOF 7
ENDMDL
MODEL 8
REMARK VINA RESULT:      -3.9      2.767      5.699
REMARK  7 active torsions:
REMARK  status: ('A' for Active; 'I' for Inactive)
REMARK    1  A    between atoms: C_2  and  C_3 
REMARK    2  A    between atoms: C_3  and  O_6 
REMARK    3  A    between atoms: C_3  and  C_4 
REMARK    4  A    between atoms: C_7  and  O_6 
REMARK    5  A    between atoms: C_9  and  C_10 
REMARK    6  A    between atoms: N_15  and  C_14 
REMARK    7  A    between atoms: N_20  and  C_19 
REMARK       I    between atoms: C_22  and  N_20 
ROOT
ATOM      1  C   LIG d   1       4.021  83.958 113.483  0.00  0.00     0.161 C 
ATOM      2  C   LIG d   1       5.057  83.423 114.266  0.00  0.00     0.016 C 
ATOM      3  C   LIG d   1       4.897  82.294 115.103  0.00  0.00     0.038 C 
ATOM      4  C   LIG d   1       3.722  81.528 115.097  0.00  0.00     0.028 C 
ATOM      5  C   LIG d   1       2.482  82.323 114.704  0.00  0.00    -0.047 C 
ATOM      6  C   LIG d   1       2.764  83.069 113.379  0.00  0.00     0.091 C 
ENDROOT
BRANCH   1   7
ATOM      7  O   LIG d   1       4.517  84.279 112.169  0.00  0.00    -0.368 OA
BRANCH   7   8
ATOM      8  C   LIG d   1       4.007  83.471 111.080  0.00  0.00     0.119 C 
BRANCH   8   9
ATOM      9  C   LIG d   1       5.066  82.397 110.766  0.00  0.00     0.028 C 
ATOM     10  C   LIG d   1       4.437  81.057 110.347  0.00  0.00     0.006 C 
ENDBRANCH   8   9
BRANCH   8  11
ATOM     11  C   LIG d   1       3.869  84.292 109.795  0.00  0.00     0.028 C 
ATOM     12  C   LIG d   1       2.405  84.586 109.430  0.00  0.00     0.006 C 
ENDBRANCH   8  11
ENDBRANCH   7   8
ENDBRANCH   1   7
BRANCH   6  13
ATOM     13  N   LIG d   1       1.631  83.939 112.967  0.00  0.00    -0.311 N 
ATOM     14  C   LIG d   1       0.623  83.518 112.204  0.00  0.00     0.210 C 
ATOM     15  C   LIG d   1      -0.430  84.581 111.880  0.00  0.00     0.109 C 
ATOM     16  O   LIG d   1       0.486  82.356 111.793  0.00  0.00    -0.276 OA
ATOM     17  H   LIG d   1       1.647  84.889 113.282  0.00  0.00     0.149 HD
ENDBRANCH   6  13
BRANCH   5  18
ATOM     18  N   LIG d   1       1.356  81.375 114.605  0.00  0.00     0.381 N 
ATOM     19  H   LIG d   1       0.512  81.819 114.904  0.00  0.00    -0.090 HD
ATOM     20  H   LIG d   1       1.535  80.594 115.212  0.00  0.00    -0.090 HD
ATOM     21  H   LIG d   1       1.259  81.058 113.665  0.00  0.00    -0.090 HD
ENDBRANCH   5  18
BRANCH   3  22
ATOM     22  C   LIG d   1       5.907  81.945 115.987  0.00  0.00     0.382 C 
ATOM     23  O   LIG d   1       5.885  80.825 116.552  0.00  0.00    -0.241 OA
ATOM     24  O   LIG d   1       6.815  82.753 116.260  0.00  0.00    -0.241 OA
ENDBRANCH   3  22
TORSDOF 7
ENDMDL
MODEL 9
REMARK VINA RESULT:      -3.8      5.706      7.451
REMARK  7 active torsions:
REMARK  status: ('A' for Active; 'I' for Inactive)
REMARK    1  A    between atoms: C_2  and  C_3 
REMARK    2  A    between atoms: C_3  and  O_6 
REMARK    3  A    between atoms: C_3  and  C_4 
REMARK    4  A    between atoms: C_7  and  O_6 
REMARK    5  A    between atoms: C_9  and  C_10 
REMARK    6  A    between atoms: N_15  and  C_14 
REMARK    7  A    between atoms: N_20  and  C_19 
REMARK       I    between atoms: C_22  and  N_20 
ROOT
ATOM      1  C   LIG d   1      -1.402  77.961 116.584  0.00  0.00     0.161 C 
ATOM      2  C   LIG d   1      -1.489  76.938 117.543  0.00  0.00     0.016 C 
ATOM      3  C   LIG d   1      -0.998  75.629 117.332  0.00  0.00     0.038 C 
ATOM      4  C   LIG d   1      -0.246  75.294 116.196  0.00  0.00     0.028 C 
ATOM      5  C   LIG d   1      -0.568  76.155 114.980  0.00  0.00    -0.047 C 
ATOM      6  C   LIG d   1      -0.485  77.645 115.383  0.00  0.00     0.091 C 
ENDROOT
BRANCH   1   7
ATOM      7  O   LIG d   1      -0.993  79.190 117.217  0.00  0.00    -0.368 OA
BRANCH   7   8
ATOM      8  C   LIG d   1      -0.479  79.072 118.566  0.00  0.00     0.119 C 
BRANCH   8   9
ATOM      9  C   LIG d   1      -1.171  80.151 119.421  0.00  0.00     0.028 C 
ATOM     10  C   LIG d   1      -2.626  79.786 119.762  0.00  0.00     0.006 C 
ENDBRANCH   8   9
BRANCH   8  11
ATOM     11  C   LIG d   1       1.015  79.404 118.625  0.00  0.00     0.028 C 
ATOM     12  C   LIG d   1       1.907  78.156 118.525  0.00  0.00     0.006 C 
ENDBRANCH   8  11
ENDBRANCH   7   8
ENDBRANCH   1   7
BRANCH   6  13
ATOM     13  N   LIG d   1      -0.869  78.555 114.273  0.00  0.00    -0.311 N 
ATOM     14  C   LIG d   1      -2.116  78.676 113.822  0.00  0.00     0.210 C 
ATOM     15  C   LIG d   1      -2.291  79.655 112.657  0.00  0.00     0.109 C 
ATOM     16  O   LIG d   1      -3.100  78.089 114.297  0.00  0.00    -0.276 OA
ATOM     17  H   LIG d   1      -0.138  79.092 113.850  0.00  0.00     0.149 HD
ENDBRANCH   6  13
BRANCH   5  18
ATOM     18  N   LIG d   1       0.382  75.791 113.912  0.00  0.00     0.381 N 
ATOM     19  H   LIG d   1       1.171  75.319 114.307  0.00  0.00    -0.090 HD
ATOM     20  H   LIG d   1       0.707  76.631 113.467  0.00  0.00    -0.090 HD
ATOM     21  H   LIG d   1      -0.065  75.204 113.243  0.00  0.00    -0.090 HD
ENDBRANCH   5  18
BRANCH   3  22
ATOM     22  C   LIG d   1      -1.294  74.628 118.245  0.00  0.00     0.382 C 
ATOM     23  O   LIG d   1      -2.463  74.180 118.328  0.00  0.00    -0.241 OA
ATOM     24  O   LIG d   1      -0.416  74.200 119.018  0.00  0.00    -0.241 OA
ENDBRANCH   3  22
TORSDOF 7
ENDMDL
