MODEL 1
REMARK VINA RESULT:      -5.5      0.000      0.000
REMARK  7 active torsions:
REMARK  status: ('A' for Active; 'I' for Inactive)
REMARK    1  A    between atoms: C_2  and  C_3 
REMARK    2  A    between atoms: C_3  and  O_6 
REMARK    3  A    between atoms: C_3  and  C_4 
REMARK    4  A    between atoms: C_7  and  O_6 
REMARK    5  A    between atoms: C_9  and  C_10 
REMARK    6  A    between atoms: N_15  and  C_14 
REMARK    7  A    between atoms: N_20  and  C_19 
REMARK       I    between atoms: C_22  and  N_20 
ROOT
ATOM      1  C   LIG d   1       0.339  81.993 112.697  0.00  0.00     0.161 C 
ATOM      2  C   LIG d   1       1.315  82.867 112.190  0.00  0.00     0.016 C 
ATOM      3  C   LIG d   1       1.817  82.792 110.870  0.00  0.00     0.038 C 
ATOM      4  C   LIG d   1       1.264  81.926 109.915  0.00  0.00     0.028 C 
ATOM      5  C   LIG d   1       0.626  80.682 110.522  0.00  0.00    -0.047 C 
ATOM      6  C   LIG d   1      -0.355  81.113 111.636  0.00  0.00     0.091 C 
ENDROOT
BRANCH   1   7
ATOM      7  O   LIG d   1      -0.639  82.736 113.450  0.00  0.00    -0.368 OA
BRANCH   7   8
ATOM      8  C   LIG d   1      -0.491  82.707 114.891  0.00  0.00     0.119 C 
BRANCH   8   9
ATOM      9  C   LIG d   1      -1.748  82.031 115.472  0.00  0.00     0.028 C 
ATOM     10  C   LIG d   1      -3.042  82.766 115.083  0.00  0.00     0.006 C 
ENDBRANCH   8   9
BRANCH   8  11
ATOM     11  C   LIG d   1      -0.482  84.121 115.479  0.00  0.00     0.028 C 
ATOM     12  C   LIG d   1       0.305  84.214 116.796  0.00  0.00     0.006 C 
ENDBRANCH   8  11
ENDBRANCH   7   8
ENDBRANCH   1   7
BRANCH   6  13
ATOM     13  N   LIG d   1      -0.960  79.953 112.340  0.00  0.00    -0.311 N 
ATOM     14  C   LIG d   1      -2.272  79.806 112.519  0.00  0.00     0.210 C 
ATOM     15  C   LIG d   1      -2.683  78.547 113.288  0.00  0.00     0.109 C 
ATOM     16  O   LIG d   1      -3.136  80.583 112.085  0.00  0.00    -0.276 OA
ATOM     17  H   LIG d   1      -0.334  79.258 112.697  0.00  0.00     0.149 HD
ENDBRANCH   6  13
BRANCH   5  18
ATOM     18  N   LIG d   1      -0.030  79.938 109.430  0.00  0.00     0.381 N 
ATOM     19  H   LIG d   1      -0.903  80.371 109.203  0.00  0.00    -0.090 HD
ATOM     20  H   LIG d   1      -0.214  79.000 109.739  0.00  0.00    -0.090 HD
ATOM     21  H   LIG d   1       0.559  79.922 108.627  0.00  0.00    -0.090 HD
ENDBRANCH   5  18
BRANCH   3  22
ATOM     22  C   LIG d   1       2.912  83.562 110.507  0.00  0.00     0.382 C 
ATOM     23  O   LIG d   1       4.055  83.265 110.930  0.00  0.00    -0.241 OA
ATOM     24  O   LIG d   1       2.764  84.574 109.796  0.00  0.00    -0.241 OA
ENDBRANCH   3  22
TORSDOF 7
ENDMDL
MODEL 2
REMARK VINA RESULT:      -5.3      1.870      4.800
REMARK  7 active torsions:
REMARK  status: ('A' for Active; 'I' for Inactive)
REMARK    1  A    between atoms: C_2  and  C_3 
REMARK    2  A    between atoms: C_3  and  O_6 
REMARK    3  A    between atoms: C_3  and  C_4 
REMARK    4  A    between atoms: C_7  and  O_6 
REMARK    5  A    between atoms: C_9  and  C_10 
REMARK    6  A    between atoms: N_15  and  C_14 
REMARK    7  A    between atoms: N_20  and  C_19 
REMARK       I    between atoms: C_22  and  N_20 
ROOT
ATOM      1  C   LIG d   1       0.359  83.351 111.948  0.00  0.00     0.161 C 
ATOM      2  C   LIG d   1      -0.857  82.819 112.409  0.00  0.00     0.016 C 
ATOM      3  C   LIG d   1      -1.295  81.508 112.111  0.00  0.00     0.038 C 
ATOM      4  C   LIG d   1      -0.472  80.583 111.452  0.00  0.00     0.028 C 
ATOM      5  C   LIG d   1       0.555  81.233 110.532  0.00  0.00    -0.047 C 
ATOM      6  C   LIG d   1       1.320  82.320 111.322  0.00  0.00     0.091 C 
ENDROOT
BRANCH   1   7
ATOM      7  O   LIG d   1       1.015  84.065 113.014  0.00  0.00    -0.368 OA
BRANCH   7   8
ATOM      8  C   LIG d   1       0.856  83.511 114.344  0.00  0.00     0.119 C 
BRANCH   8   9
ATOM      9  C   LIG d   1       0.351  84.643 115.259  0.00  0.00     0.028 C 
ATOM     10  C   LIG d   1      -0.420  84.112 116.479  0.00  0.00     0.006 C 
ENDBRANCH   8   9
BRANCH   8  11
ATOM     11  C   LIG d   1       2.203  83.084 114.934  0.00  0.00     0.028 C 
ATOM     12  C   LIG d   1       3.095  84.278 115.311  0.00  0.00     0.006 C 
ENDBRANCH   8  11
ENDBRANCH   7   8
ENDBRANCH   1   7
BRANCH   6  13
ATOM     13  N   LIG d   1       2.287  83.063 110.472  0.00  0.00    -0.311 N 
ATOM     14  C   LIG d   1       3.570  82.728 110.356  0.00  0.00     0.210 C 
ATOM     15  C   LIG d   1       4.397  83.640 109.445  0.00  0.00     0.109 C 
ATOM     16  O   LIG d   1       4.095  81.742 110.895  0.00  0.00    -0.276 OA
ATOM     17  H   LIG d   1       1.938  83.859 109.974  0.00  0.00     0.149 HD
ENDBRANCH   6  13
BRANCH   5  18
ATOM     18  N   LIG d   1       1.434  80.165 110.018  0.00  0.00     0.381 N 
ATOM     19  H   LIG d   1       0.880  79.397 109.695  0.00  0.00    -0.090 HD
ATOM     20  H   LIG d   1       2.020  79.839 110.766  0.00  0.00    -0.090 HD
ATOM     21  H   LIG d   1       1.996  80.515 109.273  0.00  0.00    -0.090 HD
ENDBRANCH   5  18
BRANCH   3  22
ATOM     22  C   LIG d   1      -2.587  81.124 112.438  0.00  0.00     0.382 C 
ATOM     23  O   LIG d   1      -3.403  81.974 112.870  0.00  0.00    -0.241 OA
ATOM     24  O   LIG d   1      -2.933  79.931 112.349  0.00  0.00    -0.241 OA
ENDBRANCH   3  22
TORSDOF 7
ENDMDL
MODEL 3
REMARK VINA RESULT:      -5.0      2.514      5.924
REMARK  7 active torsions:
REMARK  status: ('A' for Active; 'I' for Inactive)
REMARK    1  A    between atoms: C_2  and  C_3 
REMARK    2  A    between atoms: C_3  and  O_6 
REMARK    3  A    between atoms: C_3  and  C_4 
REMARK    4  A    between atoms: C_7  and  O_6 
REMARK    5  A    between atoms: C_9  and  C_10 
REMARK    6  A    between atoms: N_15  and  C_14 
REMARK    7  A    between atoms: N_20  and  C_19 
REMARK       I    between atoms: C_22  and  N_20 
ROOT
ATOM      1  C   LIG d   1      -0.447  81.415 111.804  0.00  0.00     0.161 C 
ATOM      2  C   LIG d   1      -1.024  80.136 111.734  0.00  0.00     0.016 C 
ATOM      3  C   LIG d   1      -1.867  79.608 112.738  0.00  0.00     0.038 C 
ATOM      4  C   LIG d   1      -2.316  80.387 113.816  0.00  0.00     0.028 C 
ATOM      5  C   LIG d   1      -1.357  81.513 114.189  0.00  0.00    -0.047 C 
ATOM      6  C   LIG d   1      -1.013  82.321 112.917  0.00  0.00     0.091 C 
ENDROOT
BRANCH   1   7
ATOM      7  O   LIG d   1      -0.553  82.069 110.523  0.00  0.00    -0.368 OA
BRANCH   7   8
ATOM      8  C   LIG d   1       0.684  82.234 109.788  0.00  0.00     0.119 C 
BRANCH   8   9
ATOM      9  C   LIG d   1       1.788  81.490 110.564  0.00  0.00     0.028 C 
ATOM     10  C   LIG d   1       3.094  82.298 110.648  0.00  0.00     0.006 C 
ENDBRANCH   8   9
BRANCH   8  11
ATOM     11  C   LIG d   1       1.126  83.701 109.762  0.00  0.00     0.028 C 
ATOM     12  C   LIG d   1      -0.058  84.680 109.805  0.00  0.00     0.006 C 
ENDBRANCH   8  11
ENDBRANCH   7   8
ENDBRANCH   1   7
BRANCH   6  13
ATOM     13  N   LIG d   1      -0.015  83.391 113.178  0.00  0.00    -0.311 N 
ATOM     14  C   LIG d   1       1.169  83.166 113.745  0.00  0.00     0.210 C 
ATOM     15  C   LIG d   1       2.039  84.412 113.941  0.00  0.00     0.109 C 
ATOM     16  O   LIG d   1       1.594  82.049 114.075  0.00  0.00    -0.276 OA
ATOM     17  H   LIG d   1      -0.265  84.323 112.913  0.00  0.00     0.149 HD
ENDBRANCH   6  13
BRANCH   5  18
ATOM     18  N   LIG d   1      -2.011  82.326 115.232  0.00  0.00     0.381 N 
ATOM     19  H   LIG d   1      -1.381  83.034 115.554  0.00  0.00    -0.090 HD
ATOM     20  H   LIG d   1      -2.243  81.733 116.009  0.00  0.00    -0.090 HD
ATOM     21  H   LIG d   1      -2.837  82.748 114.868  0.00  0.00    -0.090 HD
ENDBRANCH   5  18
BRANCH   3  22
ATOM     22  C   LIG d   1      -2.239  78.273 112.691  0.00  0.00     0.382 C 
ATOM     23  O   LIG d   1      -3.265  77.930 112.055  0.00  0.00    -0.241 OA
ATOM     24  O   LIG d   1      -1.588  77.413 113.313  0.00  0.00    -0.241 OA
ENDBRANCH   3  22
TORSDOF 7
ENDMDL
MODEL 4
REMARK VINA RESULT:      -4.7      1.881      4.948
REMARK  7 active torsions:
REMARK  status: ('A' for Active; 'I' for Inactive)
REMARK    1  A    between atoms: C_2  and  C_3 
REMARK    2  A    between atoms: C_3  and  O_6 
REMARK    3  A    between atoms: C_3  and  C_4 
REMARK    4  A    between atoms: C_7  and  O_6 
REMARK    5  A    between atoms: C_9  and  C_10 
REMARK    6  A    between atoms: N_15  and  C_14 
REMARK    7  A    between atoms: N_20  and  C_19 
REMARK       I    between atoms: C_22  and  N_20 
ROOT
ATOM      1  C   LIG d   1      -1.617  81.977 113.017  0.00  0.00     0.161 C 
ATOM      2  C   LIG d   1      -2.227  80.944 113.749  0.00  0.00     0.016 C 
ATOM      3  C   LIG d   1      -2.173  79.584 113.368  0.00  0.00     0.038 C 
ATOM      4  C   LIG d   1      -1.373  79.143 112.304  0.00  0.00     0.028 C 
ATOM      5  C   LIG d   1      -1.146  80.207 111.235  0.00  0.00    -0.047 C 
ATOM      6  C   LIG d   1      -0.647  81.502 111.915  0.00  0.00     0.091 C 
ENDROOT
BRANCH   1   7
ATOM      7  O   LIG d   1      -0.950  82.884 113.916  0.00  0.00    -0.368 OA
BRANCH   7   8
ATOM      8  C   LIG d   1      -0.113  82.276 114.931  0.00  0.00     0.119 C 
BRANCH   8   9
ATOM      9  C   LIG d   1      -0.243  83.127 116.209  0.00  0.00     0.028 C 
ATOM     10  C   LIG d   1      -1.565  82.872 116.952  0.00  0.00     0.006 C 
ENDBRANCH   8   9
BRANCH   8  11
ATOM     11  C   LIG d   1       1.368  82.345 114.546  0.00  0.00     0.028 C 
ATOM     12  C   LIG d   1       1.765  83.703 113.945  0.00  0.00     0.006 C 
ENDBRANCH   8  11
ENDBRANCH   7   8
ENDBRANCH   1   7
BRANCH   6  13
ATOM     13  N   LIG d   1      -0.480  82.621 110.951  0.00  0.00    -0.311 N 
ATOM     14  C   LIG d   1       0.687  82.941 110.394  0.00  0.00     0.210 C 
ATOM     15  C   LIG d   1       0.642  84.141 109.443  0.00  0.00     0.109 C 
ATOM     16  O   LIG d   1       1.749  82.326 110.573  0.00  0.00    -0.276 OA
ATOM     17  H   LIG d   1      -1.297  83.154 110.725  0.00  0.00     0.149 HD
ENDBRANCH   6  13
BRANCH   5  18
ATOM     18  N   LIG d   1      -0.185  79.660 110.258  0.00  0.00     0.381 N 
ATOM     19  H   LIG d   1       0.361  78.940 110.687  0.00  0.00    -0.090 HD
ATOM     20  H   LIG d   1       0.435  80.395 109.966  0.00  0.00    -0.090 HD
ATOM     21  H   LIG d   1      -0.672  79.293 109.470  0.00  0.00    -0.090 HD
ENDBRANCH   5  18
BRANCH   3  22
ATOM     22  C   LIG d   1      -2.958  78.653 114.031  0.00  0.00     0.382 C 
ATOM     23  O   LIG d   1      -3.225  77.555 113.485  0.00  0.00    -0.241 OA
ATOM     24  O   LIG d   1      -3.440  78.915 115.150  0.00  0.00    -0.241 OA
ENDBRANCH   3  22
TORSDOF 7
ENDMDL
MODEL 5
REMARK VINA RESULT:      -4.7      2.575      5.957
REMARK  7 active torsions:
REMARK  status: ('A' for Active; 'I' for Inactive)
REMARK    1  A    between atoms: C_2  and  C_3 
REMARK    2  A    between atoms: C_3  and  O_6 
REMARK    3  A    between atoms: C_3  and  C_4 
REMARK    4  A    between atoms: C_7  and  O_6 
REMARK    5  A    between atoms: C_9  and  C_10 
REMARK    6  A    between atoms: N_15  and  C_14 
REMARK    7  A    between atoms: N_20  and  C_19 
REMARK       I    between atoms: C_22  and  N_20 
ROOT
ATOM      1  C   LIG d   1       0.881  81.754 113.105  0.00  0.00     0.161 C 
ATOM      2  C   LIG d   1      -0.365  81.525 112.499  0.00  0.00     0.016 C 
ATOM      3  C   LIG d   1      -1.533  81.193 113.223  0.00  0.00     0.038 C 
ATOM      4  C   LIG d   1      -1.568  81.216 114.625  0.00  0.00     0.028 C 
ATOM      5  C   LIG d   1      -0.212  80.948 115.269  0.00  0.00    -0.047 C 
ATOM      6  C   LIG d   1       0.837  81.893 114.641  0.00  0.00     0.091 C 
ENDROOT
BRANCH   1   7
ATOM      7  O   LIG d   1       1.506  82.912 112.515  0.00  0.00    -0.368 OA
BRANCH   7   8
ATOM      8  C   LIG d   1       1.658  82.889 111.074  0.00  0.00     0.119 C 
BRANCH   8   9
ATOM      9  C   LIG d   1       2.850  81.968 110.749  0.00  0.00     0.028 C 
ATOM     10  C   LIG d   1       2.500  80.907 109.691  0.00  0.00     0.006 C 
ENDBRANCH   8   9
BRANCH   8  11
ATOM     11  C   LIG d   1       2.051  84.267 110.533  0.00  0.00     0.028 C 
ATOM     12  C   LIG d   1       3.569  84.426 110.355  0.00  0.00     0.006 C 
ENDBRANCH   8  11
ENDBRANCH   7   8
ENDBRANCH   1   7
BRANCH   6  13
ATOM     13  N   LIG d   1       2.208  81.639 115.155  0.00  0.00    -0.311 N 
ATOM     14  C   LIG d   1       2.732  82.283 116.197  0.00  0.00     0.210 C 
ATOM     15  C   LIG d   1       4.168  81.883 116.549  0.00  0.00     0.109 C 
ATOM     16  O   LIG d   1       2.132  83.124 116.883  0.00  0.00    -0.276 OA
ATOM     17  H   LIG d   1       2.754  80.950 114.676  0.00  0.00     0.149 HD
ENDBRANCH   6  13
BRANCH   5  18
ATOM     18  N   LIG d   1      -0.365  81.138 116.724  0.00  0.00     0.381 N 
ATOM     19  H   LIG d   1      -1.317  80.984 116.988  0.00  0.00    -0.090 HD
ATOM     20  H   LIG d   1      -0.122  82.086 116.955  0.00  0.00    -0.090 HD
ATOM     21  H   LIG d   1       0.230  80.507 117.214  0.00  0.00    -0.090 HD
ENDBRANCH   5  18
BRANCH   3  22
ATOM     22  C   LIG d   1      -2.673  80.793 112.542  0.00  0.00     0.382 C 
ATOM     23  O   LIG d   1      -2.985  79.579 112.499  0.00  0.00    -0.241 OA
ATOM     24  O   LIG d   1      -3.370  81.627 111.933  0.00  0.00    -0.241 OA
ENDBRANCH   3  22
TORSDOF 7
ENDMDL
MODEL 6
REMARK VINA RESULT:      -4.6      2.553      3.346
REMARK  7 active torsions:
REMARK  status: ('A' for Active; 'I' for Inactive)
REMARK    1  A    between atoms: C_2  and  C_3 
REMARK    2  A    between atoms: C_3  and  O_6 
REMARK    3  A    between atoms: C_3  and  C_4 
REMARK    4  A    between atoms: C_7  and  O_6 
REMARK    5  A    between atoms: C_9  and  C_10 
REMARK    6  A    between atoms: N_15  and  C_14 
REMARK    7  A    between atoms: N_20  and  C_19 
REMARK       I    between atoms: C_22  and  N_20 
ROOT
ATOM      1  C   LIG d   1      -0.775  81.108 114.738  0.00  0.00     0.161 C 
ATOM      2  C   LIG d   1      -0.653  82.420 114.250  0.00  0.00     0.016 C 
ATOM      3  C   LIG d   1      -0.703  82.747 112.875  0.00  0.00     0.038 C 
ATOM      4  C   LIG d   1      -1.032  81.795 111.898  0.00  0.00     0.028 C 
ATOM      5  C   LIG d   1      -0.664  80.369 112.294  0.00  0.00    -0.047 C 
ATOM      6  C   LIG d   1      -1.244  80.072 113.696  0.00  0.00     0.091 C 
ENDROOT
BRANCH   1   7
ATOM      7  O   LIG d   1      -1.644  81.093 115.887  0.00  0.00    -0.368 OA
BRANCH   7   8
ATOM      8  C   LIG d   1      -1.029  81.424 117.156  0.00  0.00     0.119 C 
BRANCH   8   9
ATOM      9  C   LIG d   1      -0.388  80.136 117.709  0.00  0.00     0.028 C 
ATOM     10  C   LIG d   1      -1.391  78.974 117.803  0.00  0.00     0.006 C 
ENDBRANCH   8   9
BRANCH   8  11
ATOM     11  C   LIG d   1      -2.078  81.832 118.194  0.00  0.00     0.028 C 
ATOM     12  C   LIG d   1      -3.345  82.428 117.559  0.00  0.00     0.006 C 
ENDBRANCH   8  11
ENDBRANCH   7   8
ENDBRANCH   1   7
BRANCH   6  13
ATOM     13  N   LIG d   1      -0.859  78.726 114.195  0.00  0.00    -0.311 N 
ATOM     14  C   LIG d   1      -1.592  77.632 113.993  0.00  0.00     0.210 C 
ATOM     15  C   LIG d   1      -1.023  76.350 114.610  0.00  0.00     0.109 C 
ATOM     16  O   LIG d   1      -2.642  77.595 113.335  0.00  0.00    -0.276 OA
ATOM     17  H   LIG d   1      -0.005  78.659 114.713  0.00  0.00     0.149 HD
ENDBRANCH   6  13
BRANCH   5  18
ATOM     18  N   LIG d   1      -1.185  79.468 111.249  0.00  0.00     0.381 N 
ATOM     19  H   LIG d   1      -1.890  79.938 110.717  0.00  0.00    -0.090 HD
ATOM     20  H   LIG d   1      -1.604  78.667 111.689  0.00  0.00    -0.090 HD
ATOM     21  H   LIG d   1      -0.445  79.177 110.649  0.00  0.00    -0.090 HD
ENDBRANCH   5  18
BRANCH   3  22
ATOM     22  C   LIG d   1      -0.384  84.031 112.462  0.00  0.00     0.382 C 
ATOM     23  O   LIG d   1      -0.960  84.531 111.466  0.00  0.00    -0.241 OA
ATOM     24  O   LIG d   1       0.506  84.679 113.046  0.00  0.00    -0.241 OA
ENDBRANCH   3  22
TORSDOF 7
ENDMDL
MODEL 7
REMARK VINA RESULT:      -4.3      3.462      5.011
REMARK  7 active torsions:
REMARK  status: ('A' for Active; 'I' for Inactive)
REMARK    1  A    between atoms: C_2  and  C_3 
REMARK    2  A    between atoms: C_3  and  O_6 
REMARK    3  A    between atoms: C_3  and  C_4 
REMARK    4  A    between atoms: C_7  and  O_6 
REMARK    5  A    between atoms: C_9  and  C_10 
REMARK    6  A    between atoms: N_15  and  C_14 
REMARK    7  A    between atoms: N_20  and  C_19 
REMARK       I    between atoms: C_22  and  N_20 
ROOT
ATOM      1  C   LIG d   1      -0.163  80.889 115.448  0.00  0.00     0.161 C 
ATOM      2  C   LIG d   1      -0.831  81.573 114.419  0.00  0.00     0.016 C 
ATOM      3  C   LIG d   1      -1.814  80.974 113.598  0.00  0.00     0.038 C 
ATOM      4  C   LIG d   1      -2.307  79.685 113.850  0.00  0.00     0.028 C 
ATOM      5  C   LIG d   1      -1.304  78.782 114.560  0.00  0.00    -0.047 C 
ATOM      6  C   LIG d   1      -0.766  79.516 115.810  0.00  0.00     0.091 C 
ENDROOT
BRANCH   1   7
ATOM      7  O   LIG d   1      -0.082  81.725 116.619  0.00  0.00    -0.368 OA
BRANCH   7   8
ATOM      8  C   LIG d   1      -0.957  82.881 116.638  0.00  0.00     0.119 C 
BRANCH   8   9
ATOM      9  C   LIG d   1      -0.114  84.091 117.084  0.00  0.00     0.028 C 
ATOM     10  C   LIG d   1       0.441  83.928 118.509  0.00  0.00     0.006 C 
ENDBRANCH   8   9
BRANCH   8  11
ATOM     11  C   LIG d   1      -2.050  82.735 117.700  0.00  0.00     0.028 C 
ATOM     12  C   LIG d   1      -3.361  82.168 117.132  0.00  0.00     0.006 C 
ENDBRANCH   8  11
ENDBRANCH   7   8
ENDBRANCH   1   7
BRANCH   6  13
ATOM     13  N   LIG d   1       0.284  78.736 116.517  0.00  0.00    -0.311 N 
ATOM     14  C   LIG d   1       0.024  77.897 117.518  0.00  0.00     0.210 C 
ATOM     15  C   LIG d   1       1.253  77.209 118.120  0.00  0.00     0.109 C 
ATOM     16  O   LIG d   1      -1.111  77.633 117.944  0.00  0.00    -0.276 OA
ATOM     17  H   LIG d   1       1.229  78.865 116.215  0.00  0.00     0.149 HD
ENDBRANCH   6  13
BRANCH   5  18
ATOM     18  N   LIG d   1      -1.993  77.519 114.883  0.00  0.00     0.381 N 
ATOM     19  H   LIG d   1      -1.372  76.911 115.379  0.00  0.00    -0.090 HD
ATOM     20  H   LIG d   1      -2.261  77.066 114.027  0.00  0.00    -0.090 HD
ATOM     21  H   LIG d   1      -2.801  77.703 115.436  0.00  0.00    -0.090 HD
ENDBRANCH   5  18
BRANCH   3  22
ATOM     22  C   LIG d   1      -2.286  81.654 112.485  0.00  0.00     0.382 C 
ATOM     23  O   LIG d   1      -3.439  81.419 112.050  0.00  0.00    -0.241 OA
ATOM     24  O   LIG d   1      -1.558  82.466 111.885  0.00  0.00    -0.241 OA
ENDBRANCH   3  22
TORSDOF 7
ENDMDL
MODEL 8
REMARK VINA RESULT:      -4.3      1.297      1.997
REMARK  7 active torsions:
REMARK  status: ('A' for Active; 'I' for Inactive)
REMARK    1  A    between atoms: C_2  and  C_3 
REMARK    2  A    between atoms: C_3  and  O_6 
REMARK    3  A    between atoms: C_3  and  C_4 
REMARK    4  A    between atoms: C_7  and  O_6 
REMARK    5  A    between atoms: C_9  and  C_10 
REMARK    6  A    between atoms: N_15  and  C_14 
REMARK    7  A    between atoms: N_20  and  C_19 
REMARK       I    between atoms: C_22  and  N_20 
ROOT
ATOM      1  C   LIG d   1      -0.561  82.591 113.034  0.00  0.00     0.161 C 
ATOM      2  C   LIG d   1       0.625  83.219 112.617  0.00  0.00     0.016 C 
ATOM      3  C   LIG d   1       1.412  82.756 111.537  0.00  0.00     0.038 C 
ATOM      4  C   LIG d   1       0.984  81.715 110.700  0.00  0.00     0.028 C 
ATOM      5  C   LIG d   1       0.044  80.732 111.389  0.00  0.00    -0.047 C 
ATOM      6  C   LIG d   1      -1.102  81.520 112.063  0.00  0.00     0.091 C 
ENDROOT
BRANCH   1   7
ATOM      7  O   LIG d   1      -1.572  83.583 113.300  0.00  0.00    -0.368 OA
BRANCH   7   8
ATOM      8  C   LIG d   1      -1.900  83.802 114.694  0.00  0.00     0.119 C 
BRANCH   8   9
ATOM      9  C   LIG d   1      -0.708  83.303 115.534  0.00  0.00     0.028 C 
ATOM     10  C   LIG d   1       0.055  84.454 116.211  0.00  0.00     0.006 C 
ENDBRANCH   8   9
BRANCH   8  11
ATOM     11  C   LIG d   1      -3.090  82.941 115.128  0.00  0.00     0.028 C 
ATOM     12  C   LIG d   1      -2.917  82.351 116.536  0.00  0.00     0.006 C 
ENDBRANCH   8  11
ENDBRANCH   7   8
ENDBRANCH   1   7
BRANCH   6  13
ATOM     13  N   LIG d   1      -2.021  80.640 112.831  0.00  0.00    -0.311 N 
ATOM     14  C   LIG d   1      -1.646  79.948 113.906  0.00  0.00     0.210 C 
ATOM     15  C   LIG d   1      -2.745  79.087 114.536  0.00  0.00     0.109 C 
ATOM     16  O   LIG d   1      -0.516  79.990 114.415  0.00  0.00    -0.276 OA
ATOM     17  H   LIG d   1      -2.965  80.572 112.506  0.00  0.00     0.149 HD
ENDBRANCH   6  13
BRANCH   5  18
ATOM     18  N   LIG d   1      -0.433  79.780 110.367  0.00  0.00     0.381 N 
ATOM     19  H   LIG d   1      -0.953  79.046 110.804  0.00  0.00    -0.090 HD
ATOM     20  H   LIG d   1       0.362  79.373 109.906  0.00  0.00    -0.090 HD
ATOM     21  H   LIG d   1      -1.005  80.252 109.702  0.00  0.00    -0.090 HD
ENDBRANCH   5  18
BRANCH   3  22
ATOM     22  C   LIG d   1       2.662  83.312 111.311  0.00  0.00     0.382 C 
ATOM     23  O   LIG d   1       2.768  84.536 111.060  0.00  0.00    -0.241 OA
ATOM     24  O   LIG d   1       3.681  82.595 111.310  0.00  0.00    -0.241 OA
ENDBRANCH   3  22
TORSDOF 7
ENDMDL
MODEL 9
REMARK VINA RESULT:      -4.1      2.474      5.655
REMARK  7 active torsions:
REMARK  status: ('A' for Active; 'I' for Inactive)
REMARK    1  A    between atoms: C_2  and  C_3 
REMARK    2  A    between atoms: C_3  and  O_6 
REMARK    3  A    between atoms: C_3  and  C_4 
REMARK    4  A    between atoms: C_7  and  O_6 
REMARK    5  A    between atoms: C_9  and  C_10 
REMARK    6  A    between atoms: N_15  and  C_14 
REMARK    7  A    between atoms: N_20  and  C_19 
REMARK       I    between atoms: C_22  and  N_20 
ROOT
ATOM      1  C   LIG d   1      -2.009  80.544 114.856  0.00  0.00     0.161 C 
ATOM      2  C   LIG d   1      -2.481  79.312 115.340  0.00  0.00     0.016 C 
ATOM      3  C   LIG d   1      -2.504  78.129 114.566  0.00  0.00     0.038 C 
ATOM      4  C   LIG d   1      -1.912  78.062 113.296  0.00  0.00     0.028 C 
ATOM      5  C   LIG d   1      -1.877  79.404 112.572  0.00  0.00    -0.047 C 
ATOM      6  C   LIG d   1      -1.256  80.464 113.511  0.00  0.00     0.091 C 
ENDROOT
BRANCH   1   7
ATOM      7  O   LIG d   1      -1.185  81.177 115.854  0.00  0.00    -0.368 OA
BRANCH   7   8
ATOM      8  C   LIG d   1      -1.800  82.258 116.596  0.00  0.00     0.119 C 
BRANCH   8   9
ATOM      9  C   LIG d   1      -1.040  83.552 116.246  0.00  0.00     0.028 C 
ATOM     10  C   LIG d   1       0.427  83.286 115.866  0.00  0.00     0.006 C 
ENDBRANCH   8   9
BRANCH   8  11
ATOM     11  C   LIG d   1      -1.615  82.075 118.105  0.00  0.00     0.028 C 
ATOM     12  C   LIG d   1      -2.306  83.173 118.929  0.00  0.00     0.006 C 
ENDBRANCH   8  11
ENDBRANCH   7   8
ENDBRANCH   1   7
BRANCH   6  13
ATOM     13  N   LIG d   1      -1.261  81.824 112.911  0.00  0.00    -0.311 N 
ATOM     14  C   LIG d   1      -0.217  82.348 112.273  0.00  0.00     0.210 C 
ATOM     15  C   LIG d   1      -0.426  83.772 111.749  0.00  0.00     0.109 C 
ATOM     16  O   LIG d   1       0.853  81.756 112.062  0.00  0.00    -0.276 OA
ATOM     17  H   LIG d   1      -2.100  82.362 113.009  0.00  0.00     0.149 HD
ENDBRANCH   6  13
BRANCH   5  18
ATOM     18  N   LIG d   1      -1.113  79.218 111.325  0.00  0.00     0.381 N 
ATOM     19  H   LIG d   1      -0.132  79.249 111.520  0.00  0.00    -0.090 HD
ATOM     20  H   LIG d   1      -1.332  79.968 110.694  0.00  0.00    -0.090 HD
ATOM     21  H   LIG d   1      -1.348  78.344 110.908  0.00  0.00    -0.090 HD
ENDBRANCH   5  18
BRANCH   3  22
ATOM     22  C   LIG d   1      -3.161  77.006 115.047  0.00  0.00     0.382 C 
ATOM     23  O   LIG d   1      -3.440  76.918 116.267  0.00  0.00    -0.241 OA
ATOM     24  O   LIG d   1      -3.438  76.062 114.284  0.00  0.00    -0.241 OA
ENDBRANCH   3  22
TORSDOF 7
ENDMDL
