MODEL 1
REMARK VINA RESULT:      -5.2      0.000      0.000
REMARK  7 active torsions:
REMARK  status: ('A' for Active; 'I' for Inactive)
REMARK    1  A    between atoms: C_2  and  C_3 
REMARK    2  A    between atoms: C_3  and  O_6 
REMARK    3  A    between atoms: C_3  and  C_4 
REMARK    4  A    between atoms: C_7  and  O_6 
REMARK    5  A    between atoms: C_9  and  C_10 
REMARK    6  A    between atoms: N_15  and  C_14 
REMARK    7  A    between atoms: N_20  and  C_19 
REMARK       I    between atoms: C_22  and  N_20 
ROOT
ATOM      1  C   LIG d   1       1.408  81.328 112.482  0.00  0.00     0.161 C 
ATOM      2  C   LIG d   1       2.578  81.685 111.791  0.00  0.00     0.016 C 
ATOM      3  C   LIG d   1       2.790  81.404 110.422  0.00  0.00     0.038 C 
ATOM      4  C   LIG d   1       1.777  80.876 109.608  0.00  0.00     0.028 C 
ATOM      5  C   LIG d   1       0.760  80.037 110.374  0.00  0.00    -0.047 C 
ATOM      6  C   LIG d   1       0.247  80.851 111.584  0.00  0.00     0.091 C 
ENDROOT
BRANCH   1   7
ATOM      7  O   LIG d   1       0.979  82.422 113.316  0.00  0.00    -0.368 OA
BRANCH   7   8
ATOM      8  C   LIG d   1       1.435  83.740 112.922  0.00  0.00     0.119 C 
BRANCH   8   9
ATOM      9  C   LIG d   1       2.174  84.353 114.127  0.00  0.00     0.028 C 
ATOM     10  C   LIG d   1       3.644  84.678 113.811  0.00  0.00     0.006 C 
ENDBRANCH   8   9
BRANCH   8  11
ATOM     11  C   LIG d   1       0.256  84.679 112.649  0.00  0.00     0.028 C 
ATOM     12  C   LIG d   1      -0.545  84.281 111.400  0.00  0.00     0.006 C 
ENDBRANCH   8  11
ENDBRANCH   7   8
ENDBRANCH   1   7
BRANCH   6  13
ATOM     13  N   LIG d   1      -0.689  80.072 112.435  0.00  0.00    -0.311 N 
ATOM     14  C   LIG d   1      -1.936  80.460 112.699  0.00  0.00     0.210 C 
ATOM     15  C   LIG d   1      -2.725  79.520 113.615  0.00  0.00     0.109 C 
ATOM     16  O   LIG d   1      -2.473  81.477 112.235  0.00  0.00    -0.276 OA
ATOM     17  H   LIG d   1      -0.345  79.217 112.827  0.00  0.00     0.149 HD
ENDBRANCH   6  13
BRANCH   5  18
ATOM     18  N   LIG d   1      -0.312  79.665 109.431  0.00  0.00     0.381 N 
ATOM     19  H   LIG d   1      -0.792  80.487 109.124  0.00  0.00    -0.090 HD
ATOM     20  H   LIG d   1      -0.971  79.073 109.905  0.00  0.00    -0.090 HD
ATOM     21  H   LIG d   1       0.074  79.185 108.648  0.00  0.00    -0.090 HD
ENDBRANCH   5  18
BRANCH   3  22
ATOM     22  C   LIG d   1       4.042  81.614 109.863  0.00  0.00     0.382 C 
ATOM     23  O   LIG d   1       4.824  80.648 109.695  0.00  0.00    -0.241 OA
ATOM     24  O   LIG d   1       4.415  82.765 109.565  0.00  0.00    -0.241 OA
ENDBRANCH   3  22
TORSDOF 7
ENDMDL
MODEL 2
REMARK VINA RESULT:      -5.0      1.577      4.816
REMARK  7 active torsions:
REMARK  status: ('A' for Active; 'I' for Inactive)
REMARK    1  A    between atoms: C_2  and  C_3 
REMARK    2  A    between atoms: C_3  and  O_6 
REMARK    3  A    between atoms: C_3  and  C_4 
REMARK    4  A    between atoms: C_7  and  O_6 
REMARK    5  A    between atoms: C_9  and  C_10 
REMARK    6  A    between atoms: N_15  and  C_14 
REMARK    7  A    between atoms: N_20  and  C_19 
REMARK       I    between atoms: C_22  and  N_20 
ROOT
ATOM      1  C   LIG d   1       0.570  81.858 111.957  0.00  0.00     0.161 C 
ATOM      2  C   LIG d   1      -0.662  81.504 112.531  0.00  0.00     0.016 C 
ATOM      3  C   LIG d   1      -1.357  80.316 112.210  0.00  0.00     0.038 C 
ATOM      4  C   LIG d   1      -0.790  79.321 111.399  0.00  0.00     0.028 C 
ATOM      5  C   LIG d   1       0.228  79.861 110.401  0.00  0.00    -0.047 C 
ATOM      6  C   LIG d   1       1.257  80.733 111.156  0.00  0.00     0.091 C 
ENDROOT
BRANCH   1   7
ATOM      7  O   LIG d   1       1.457  82.361 112.976  0.00  0.00    -0.368 OA
BRANCH   7   8
ATOM      8  C   LIG d   1       1.370  83.780 113.253  0.00  0.00     0.119 C 
BRANCH   8   9
ATOM      9  C   LIG d   1       2.299  84.504 112.259  0.00  0.00     0.028 C 
ATOM     10  C   LIG d   1       3.773  84.460 112.695  0.00  0.00     0.006 C 
ENDBRANCH   8   9
BRANCH   8  11
ATOM     11  C   LIG d   1       1.925  84.112 114.642  0.00  0.00     0.028 C 
ATOM     12  C   LIG d   1       2.227  82.859 115.478  0.00  0.00     0.006 C 
ENDBRANCH   8  11
ENDBRANCH   7   8
ENDBRANCH   1   7
BRANCH   6  13
ATOM     13  N   LIG d   1       2.241  81.369 110.241  0.00  0.00    -0.311 N 
ATOM     14  C   LIG d   1       3.546  81.433 110.498  0.00  0.00     0.210 C 
ATOM     15  C   LIG d   1       4.381  82.149 109.431  0.00  0.00     0.109 C 
ATOM     16  O   LIG d   1       4.097  80.936 111.492  0.00  0.00    -0.276 OA
ATOM     17  H   LIG d   1       1.885  81.770 109.395  0.00  0.00     0.149 HD
ENDBRANCH   6  13
BRANCH   5  18
ATOM     18  N   LIG d   1       0.840  78.704 109.719  0.00  0.00     0.381 N 
ATOM     19  H   LIG d   1       0.761  78.815 108.728  0.00  0.00    -0.090 HD
ATOM     20  H   LIG d   1       0.345  77.871 109.984  0.00  0.00    -0.090 HD
ATOM     21  H   LIG d   1       1.800  78.626 109.976  0.00  0.00    -0.090 HD
ENDBRANCH   5  18
BRANCH   3  22
ATOM     22  C   LIG d   1      -2.652  80.131 112.669  0.00  0.00     0.382 C 
ATOM     23  O   LIG d   1      -3.214  79.018 112.532  0.00  0.00    -0.241 OA
ATOM     24  O   LIG d   1      -3.282  81.077 113.180  0.00  0.00    -0.241 OA
ENDBRANCH   3  22
TORSDOF 7
ENDMDL
MODEL 3
REMARK VINA RESULT:      -4.9      2.454      4.871
REMARK  7 active torsions:
REMARK  status: ('A' for Active; 'I' for Inactive)
REMARK    1  A    between atoms: C_2  and  C_3 
REMARK    2  A    between atoms: C_3  and  O_6 
REMARK    3  A    between atoms: C_3  and  C_4 
REMARK    4  A    between atoms: C_7  and  O_6 
REMARK    5  A    between atoms: C_9  and  C_10 
REMARK    6  A    between atoms: N_15  and  C_14 
REMARK    7  A    between atoms: N_20  and  C_19 
REMARK       I    between atoms: C_22  and  N_20 
ROOT
ATOM      1  C   LIG d   1       0.619  80.478 111.412  0.00  0.00     0.161 C 
ATOM      2  C   LIG d   1      -0.166  79.522 110.747  0.00  0.00     0.016 C 
ATOM      3  C   LIG d   1      -1.029  78.623 111.415  0.00  0.00     0.038 C 
ATOM      4  C   LIG d   1      -1.281  78.721 112.791  0.00  0.00     0.028 C 
ATOM      5  C   LIG d   1      -0.129  79.342 113.575  0.00  0.00    -0.047 C 
ATOM      6  C   LIG d   1       0.274  80.674 112.904  0.00  0.00     0.091 C 
ENDROOT
BRANCH   1   7
ATOM      7  O   LIG d   1       0.553  81.737 110.713  0.00  0.00    -0.368 OA
BRANCH   7   8
ATOM      8  C   LIG d   1       1.643  82.018 109.801  0.00  0.00     0.119 C 
BRANCH   8   9
ATOM      9  C   LIG d   1       2.938  81.494 110.452  0.00  0.00     0.028 C 
ATOM     10  C   LIG d   1       3.735  80.572 109.514  0.00  0.00     0.006 C 
ENDBRANCH   8   9
BRANCH   8  11
ATOM     11  C   LIG d   1       1.855  83.525 109.633  0.00  0.00     0.028 C 
ATOM     12  C   LIG d   1       3.004  84.065 110.499  0.00  0.00     0.006 C 
ENDBRANCH   8  11
ENDBRANCH   7   8
ENDBRANCH   1   7
BRANCH   6  13
ATOM     13  N   LIG d   1       1.450  81.306 113.558  0.00  0.00    -0.311 N 
ATOM     14  C   LIG d   1       1.554  82.616 113.771  0.00  0.00     0.210 C 
ATOM     15  C   LIG d   1       2.857  83.061 114.442  0.00  0.00     0.109 C 
ATOM     16  O   LIG d   1       0.677  83.449 113.497  0.00  0.00    -0.276 OA
ATOM     17  H   LIG d   1       2.195  80.699 113.841  0.00  0.00     0.149 HD
ENDBRANCH   6  13
BRANCH   5  18
ATOM     18  N   LIG d   1      -0.579  79.510 114.970  0.00  0.00     0.381 N 
ATOM     19  H   LIG d   1      -1.390  78.947 115.134  0.00  0.00    -0.090 HD
ATOM     20  H   LIG d   1      -0.828  80.472 115.117  0.00  0.00    -0.090 HD
ATOM     21  H   LIG d   1       0.149  79.247 115.597  0.00  0.00    -0.090 HD
ENDBRANCH   5  18
BRANCH   3  22
ATOM     22  C   LIG d   1      -1.620  77.586 110.709  0.00  0.00     0.382 C 
ATOM     23  O   LIG d   1      -1.004  76.505 110.549  0.00  0.00    -0.241 OA
ATOM     24  O   LIG d   1      -2.744  77.734 110.193  0.00  0.00    -0.241 OA
ENDBRANCH   3  22
TORSDOF 7
ENDMDL
MODEL 4
REMARK VINA RESULT:      -4.7      2.054      2.621
REMARK  7 active torsions:
REMARK  status: ('A' for Active; 'I' for Inactive)
REMARK    1  A    between atoms: C_2  and  C_3 
REMARK    2  A    between atoms: C_3  and  O_6 
REMARK    3  A    between atoms: C_3  and  C_4 
REMARK    4  A    between atoms: C_7  and  O_6 
REMARK    5  A    between atoms: C_9  and  C_10 
REMARK    6  A    between atoms: N_15  and  C_14 
REMARK    7  A    between atoms: N_20  and  C_19 
REMARK       I    between atoms: C_22  and  N_20 
ROOT
ATOM      1  C   LIG d   1       1.743  81.384 112.349  0.00  0.00     0.161 C 
ATOM      2  C   LIG d   1       2.880  81.978 111.776  0.00  0.00     0.016 C 
ATOM      3  C   LIG d   1       2.817  82.965 110.766  0.00  0.00     0.038 C 
ATOM      4  C   LIG d   1       1.601  83.538 110.363  0.00  0.00     0.028 C 
ATOM      5  C   LIG d   1       0.404  82.612 110.552  0.00  0.00    -0.047 C 
ATOM      6  C   LIG d   1       0.408  82.076 112.001  0.00  0.00     0.091 C 
ENDROOT
BRANCH   1   7
ATOM      7  O   LIG d   1       1.904  81.296 113.778  0.00  0.00    -0.368 OA
BRANCH   7   8
ATOM      8  C   LIG d   1       2.932  82.137 114.356  0.00  0.00     0.119 C 
BRANCH   8   9
ATOM      9  C   LIG d   1       3.649  81.313 115.443  0.00  0.00     0.028 C 
ATOM     10  C   LIG d   1       2.671  80.736 116.482  0.00  0.00     0.006 C 
ENDBRANCH   8   9
BRANCH   8  11
ATOM     11  C   LIG d   1       2.324  83.336 115.091  0.00  0.00     0.028 C 
ATOM     12  C   LIG d   1       3.344  84.454 115.354  0.00  0.00     0.006 C 
ENDBRANCH   8  11
ENDBRANCH   7   8
ENDBRANCH   1   7
BRANCH   6  13
ATOM     13  N   LIG d   1      -0.683  81.096 112.246  0.00  0.00    -0.311 N 
ATOM     14  C   LIG d   1      -1.899  81.442 112.666  0.00  0.00     0.210 C 
ATOM     15  C   LIG d   1      -2.868  80.275 112.874  0.00  0.00     0.109 C 
ATOM     16  O   LIG d   1      -2.276  82.609 112.855  0.00  0.00    -0.276 OA
ATOM     17  H   LIG d   1      -0.473  80.130 112.087  0.00  0.00     0.149 HD
ENDBRANCH   6  13
BRANCH   5  18
ATOM     18  N   LIG d   1      -0.810  83.382 110.223  0.00  0.00     0.381 N 
ATOM     19  H   LIG d   1      -1.434  82.817 109.683  0.00  0.00    -0.090 HD
ATOM     20  H   LIG d   1      -0.550  84.180 109.671  0.00  0.00    -0.090 HD
ATOM     21  H   LIG d   1      -1.262  83.681 111.060  0.00  0.00    -0.090 HD
ENDBRANCH   5  18
BRANCH   3  22
ATOM     22  C   LIG d   1       3.978  83.361 110.119  0.00  0.00     0.382 C 
ATOM     23  O   LIG d   1       4.825  82.503 109.770  0.00  0.00    -0.241 OA
ATOM     24  O   LIG d   1       4.209  84.568 109.918  0.00  0.00    -0.241 OA
ENDBRANCH   3  22
TORSDOF 7
ENDMDL
MODEL 5
REMARK VINA RESULT:      -4.2      4.489      7.017
REMARK  7 active torsions:
REMARK  status: ('A' for Active; 'I' for Inactive)
REMARK    1  A    between atoms: C_2  and  C_3 
REMARK    2  A    between atoms: C_3  and  O_6 
REMARK    3  A    between atoms: C_3  and  C_4 
REMARK    4  A    between atoms: C_7  and  O_6 
REMARK    5  A    between atoms: C_9  and  C_10 
REMARK    6  A    between atoms: N_15  and  C_14 
REMARK    7  A    between atoms: N_20  and  C_19 
REMARK       I    between atoms: C_22  and  N_20 
ROOT
ATOM      1  C   LIG d   1      -1.994  77.716 114.289  0.00  0.00     0.161 C 
ATOM      2  C   LIG d   1      -2.160  77.534 112.906  0.00  0.00     0.016 C 
ATOM      3  C   LIG d   1      -1.441  78.268 111.934  0.00  0.00     0.038 C 
ATOM      4  C   LIG d   1      -0.393  79.132 112.282  0.00  0.00     0.028 C 
ATOM      5  C   LIG d   1      -0.533  79.722 113.681  0.00  0.00    -0.047 C 
ATOM      6  C   LIG d   1      -0.776  78.575 114.688  0.00  0.00     0.091 C 
ENDROOT
BRANCH   1   7
ATOM      7  O   LIG d   1      -1.942  76.435 114.947  0.00  0.00    -0.368 OA
BRANCH   7   8
ATOM      8  C   LIG d   1      -0.631  75.996 115.384  0.00  0.00     0.119 C 
BRANCH   8   9
ATOM      9  C   LIG d   1      -0.248  74.769 114.534  0.00  0.00     0.028 C 
ATOM     10  C   LIG d   1       0.754  75.117 113.420  0.00  0.00     0.006 C 
ENDBRANCH   8   9
BRANCH   8  11
ATOM     11  C   LIG d   1      -0.665  75.494 116.830  0.00  0.00     0.028 C 
ATOM     12  C   LIG d   1       0.317  74.339 117.082  0.00  0.00     0.006 C 
ENDBRANCH   8  11
ENDBRANCH   7   8
ENDBRANCH   1   7
BRANCH   6  13
ATOM     13  N   LIG d   1      -1.008  79.072 116.069  0.00  0.00    -0.311 N 
ATOM     14  C   LIG d   1      -0.046  79.171 116.984  0.00  0.00     0.210 C 
ATOM     15  C   LIG d   1      -0.504  79.689 118.351  0.00  0.00     0.109 C 
ATOM     16  O   LIG d   1       1.150  78.910 116.784  0.00  0.00    -0.276 OA
ATOM     17  H   LIG d   1      -1.944  79.336 116.307  0.00  0.00     0.149 HD
ENDBRANCH   6  13
BRANCH   5  18
ATOM     18  N   LIG d   1       0.693  80.492 113.965  0.00  0.00     0.381 N 
ATOM     19  H   LIG d   1       0.714  80.750 114.931  0.00  0.00    -0.090 HD
ATOM     20  H   LIG d   1       0.685  81.332 113.414  0.00  0.00    -0.090 HD
ATOM     21  H   LIG d   1       1.497  79.947 113.742  0.00  0.00    -0.090 HD
ENDBRANCH   5  18
BRANCH   3  22
ATOM     22  C   LIG d   1      -1.798  78.169 110.597  0.00  0.00     0.382 C 
ATOM     23  O   LIG d   1      -1.025  78.602 109.709  0.00  0.00    -0.241 OA
ATOM     24  O   LIG d   1      -2.902  77.694 110.271  0.00  0.00    -0.241 OA
ENDBRANCH   3  22
TORSDOF 7
ENDMDL
MODEL 6
REMARK VINA RESULT:      -4.2      4.529      6.798
REMARK  7 active torsions:
REMARK  status: ('A' for Active; 'I' for Inactive)
REMARK    1  A    between atoms: C_2  and  C_3 
REMARK    2  A    between atoms: C_3  and  O_6 
REMARK    3  A    between atoms: C_3  and  C_4 
REMARK    4  A    between atoms: C_7  and  O_6 
REMARK    5  A    between atoms: C_9  and  C_10 
REMARK    6  A    between atoms: N_15  and  C_14 
REMARK    7  A    between atoms: N_20  and  C_19 
REMARK       I    between atoms: C_22  and  N_20 
ROOT
ATOM      1  C   LIG d   1      -1.664  78.343 114.692  0.00  0.00     0.161 C 
ATOM      2  C   LIG d   1      -2.162  79.581 114.252  0.00  0.00     0.016 C 
ATOM      3  C   LIG d   1      -2.148  79.989 112.899  0.00  0.00     0.038 C 
ATOM      4  C   LIG d   1      -1.770  79.119 111.866  0.00  0.00     0.028 C 
ATOM      5  C   LIG d   1      -0.786  78.042 112.311  0.00  0.00    -0.047 C 
ATOM      6  C   LIG d   1      -1.349  77.336 113.566  0.00  0.00     0.091 C 
ENDROOT
BRANCH   1   7
ATOM      7  O   LIG d   1      -2.574  77.761 115.645  0.00  0.00    -0.368 OA
BRANCH   7   8
ATOM      8  C   LIG d   1      -2.272  77.999 117.042  0.00  0.00     0.119 C 
BRANCH   8   9
ATOM      9  C   LIG d   1      -2.137  76.625 117.727  0.00  0.00     0.028 C 
ATOM     10  C   LIG d   1      -0.727  76.389 118.295  0.00  0.00     0.006 C 
ENDBRANCH   8   9
BRANCH   8  11
ATOM     11  C   LIG d   1      -3.437  78.693 117.754  0.00  0.00     0.028 C 
ATOM     12  C   LIG d   1      -2.973  79.644 118.869  0.00  0.00     0.006 C 
ENDBRANCH   8  11
ENDBRANCH   7   8
ENDBRANCH   1   7
BRANCH   6  13
ATOM     13  N   LIG d   1      -0.410  76.325 114.117  0.00  0.00    -0.311 N 
ATOM     14  C   LIG d   1      -0.806  75.176 114.662  0.00  0.00     0.210 C 
ATOM     15  C   LIG d   1       0.324  74.285 115.187  0.00  0.00     0.109 C 
ATOM     16  O   LIG d   1      -1.985  74.796 114.732  0.00  0.00    -0.276 OA
ATOM     17  H   LIG d   1       0.568  76.538 114.073  0.00  0.00     0.149 HD
ENDBRANCH   6  13
BRANCH   5  18
ATOM     18  N   LIG d   1      -0.585  77.124 111.174  0.00  0.00     0.381 N 
ATOM     19  H   LIG d   1      -0.758  76.182 111.463  0.00  0.00    -0.090 HD
ATOM     20  H   LIG d   1       0.370  77.190 110.868  0.00  0.00    -0.090 HD
ATOM     21  H   LIG d   1      -1.198  77.368 110.427  0.00  0.00    -0.090 HD
ENDBRANCH   5  18
BRANCH   3  22
ATOM     22  C   LIG d   1      -2.478  81.295 112.571  0.00  0.00     0.382 C 
ATOM     23  O   LIG d   1      -1.780  81.930 111.745  0.00  0.00    -0.241 OA
ATOM     24  O   LIG d   1      -3.440  81.862 113.125  0.00  0.00    -0.241 OA
ENDBRANCH   3  22
TORSDOF 7
ENDMDL
MODEL 7
REMARK VINA RESULT:      -4.2      2.903      5.832
REMARK  7 active torsions:
REMARK  status: ('A' for Active; 'I' for Inactive)
REMARK    1  A    between atoms: C_2  and  C_3 
REMARK    2  A    between atoms: C_3  and  O_6 
REMARK    3  A    between atoms: C_3  and  C_4 
REMARK    4  A    between atoms: C_7  and  O_6 
REMARK    5  A    between atoms: C_9  and  C_10 
REMARK    6  A    between atoms: N_15  and  C_14 
REMARK    7  A    between atoms: N_20  and  C_19 
REMARK       I    between atoms: C_22  and  N_20 
ROOT
ATOM      1  C   LIG d   1      -0.608  79.998 113.423  0.00  0.00     0.161 C 
ATOM      2  C   LIG d   1      -1.105  78.874 112.743  0.00  0.00     0.016 C 
ATOM      3  C   LIG d   1      -0.825  78.600 111.384  0.00  0.00     0.038 C 
ATOM      4  C   LIG d   1       0.099  79.358 110.650  0.00  0.00     0.028 C 
ATOM      5  C   LIG d   1       0.235  80.794 111.146  0.00  0.00    -0.047 C 
ATOM      6  C   LIG d   1       0.491  80.776 112.670  0.00  0.00     0.091 C 
ENDROOT
BRANCH   1   7
ATOM      7  O   LIG d   1      -0.143  79.611 114.731  0.00  0.00    -0.368 OA
BRANCH   7   8
ATOM      8  C   LIG d   1      -0.751  78.426 115.300  0.00  0.00     0.119 C 
BRANCH   8   9
ATOM      9  C   LIG d   1      -1.751  78.890 116.376  0.00  0.00     0.028 C 
ATOM     10  C   LIG d   1      -3.213  78.663 115.957  0.00  0.00     0.006 C 
ENDBRANCH   8   9
BRANCH   8  11
ATOM     11  C   LIG d   1       0.280  77.572 116.044  0.00  0.00     0.028 C 
ATOM     12  C   LIG d   1       0.220  76.088 115.651  0.00  0.00     0.006 C 
ENDBRANCH   8  11
ENDBRANCH   7   8
ENDBRANCH   1   7
BRANCH   6  13
ATOM     13  N   LIG d   1       0.553  82.143 113.251  0.00  0.00    -0.311 N 
ATOM     14  C   LIG d   1       1.687  82.824 113.405  0.00  0.00     0.210 C 
ATOM     15  C   LIG d   1       1.529  84.208 114.042  0.00  0.00     0.109 C 
ATOM     16  O   LIG d   1       2.805  82.426 113.044  0.00  0.00    -0.276 OA
ATOM     17  H   LIG d   1      -0.313  82.554 113.542  0.00  0.00     0.149 HD
ENDBRANCH   6  13
BRANCH   5  18
ATOM     18  N   LIG d   1       1.327  81.428 110.384  0.00  0.00     0.381 N 
ATOM     19  H   LIG d   1       1.571  82.302 110.804  0.00  0.00    -0.090 HD
ATOM     20  H   LIG d   1       1.009  81.606 109.447  0.00  0.00    -0.090 HD
ATOM     21  H   LIG d   1       2.122  80.827 110.363  0.00  0.00    -0.090 HD
ENDBRANCH   5  18
BRANCH   3  22
ATOM     22  C   LIG d   1      -1.505  77.581 110.734  0.00  0.00     0.382 C 
ATOM     23  O   LIG d   1      -2.694  77.752 110.373  0.00  0.00    -0.241 OA
ATOM     24  O   LIG d   1      -0.958  76.478 110.544  0.00  0.00    -0.241 OA
ENDBRANCH   3  22
TORSDOF 7
ENDMDL
MODEL 8
REMARK VINA RESULT:      -4.0      3.753      5.547
REMARK  7 active torsions:
REMARK  status: ('A' for Active; 'I' for Inactive)
REMARK    1  A    between atoms: C_2  and  C_3 
REMARK    2  A    between atoms: C_3  and  O_6 
REMARK    3  A    between atoms: C_3  and  C_4 
REMARK    4  A    between atoms: C_7  and  O_6 
REMARK    5  A    between atoms: C_9  and  C_10 
REMARK    6  A    between atoms: N_15  and  C_14 
REMARK    7  A    between atoms: N_20  and  C_19 
REMARK       I    between atoms: C_22  and  N_20 
ROOT
ATOM      1  C   LIG d   1       3.908  81.659 113.816  0.00  0.00     0.161 C 
ATOM      2  C   LIG d   1       4.810  80.735 114.370  0.00  0.00     0.016 C 
ATOM      3  C   LIG d   1       4.673  80.197 115.670  0.00  0.00     0.038 C 
ATOM      4  C   LIG d   1       3.532  80.432 116.453  0.00  0.00     0.028 C 
ATOM      5  C   LIG d   1       2.843  81.755 116.136  0.00  0.00    -0.047 C 
ATOM      6  C   LIG d   1       2.599  81.842 114.612  0.00  0.00     0.091 C 
ENDROOT
BRANCH   1   7
ATOM      7  O   LIG d   1       3.618  81.299 112.451  0.00  0.00    -0.368 OA
BRANCH   7   8
ATOM      8  C   LIG d   1       4.488  81.870 111.442  0.00  0.00     0.119 C 
BRANCH   8   9
ATOM      9  C   LIG d   1       4.042  83.328 111.218  0.00  0.00     0.028 C 
ATOM     10  C   LIG d   1       2.867  83.437 110.231  0.00  0.00     0.006 C 
ENDBRANCH   8   9
BRANCH   8  11
ATOM     11  C   LIG d   1       4.303  81.177 110.089  0.00  0.00     0.028 C 
ATOM     12  C   LIG d   1       5.307  80.036 109.862  0.00  0.00     0.006 C 
ENDBRANCH   8  11
ENDBRANCH   7   8
ENDBRANCH   1   7
BRANCH   6  13
ATOM     13  N   LIG d   1       2.004  83.141 114.207  0.00  0.00    -0.311 N 
ATOM     14  C   LIG d   1       0.958  83.245 113.389  0.00  0.00     0.210 C 
ATOM     15  C   LIG d   1       0.515  84.680 113.084  0.00  0.00     0.109 C 
ATOM     16  O   LIG d   1       0.334  82.285 112.912  0.00  0.00    -0.276 OA
ATOM     17  H   LIG d   1       2.428  83.971 114.572  0.00  0.00     0.149 HD
ENDBRANCH   6  13
BRANCH   5  18
ATOM     18  N   LIG d   1       1.597  81.807 116.925  0.00  0.00     0.381 N 
ATOM     19  H   LIG d   1       1.633  82.576 117.565  0.00  0.00    -0.090 HD
ATOM     20  H   LIG d   1       1.512  80.958 117.456  0.00  0.00    -0.090 HD
ATOM     21  H   LIG d   1       0.813  81.908 116.318  0.00  0.00    -0.090 HD
ENDBRANCH   5  18
BRANCH   3  22
ATOM     22  C   LIG d   1       5.702  79.445 116.215  0.00  0.00     0.382 C 
ATOM     23  O   LIG d   1       6.412  79.925 117.132  0.00  0.00    -0.241 OA
ATOM     24  O   LIG d   1       5.959  78.310 115.771  0.00  0.00    -0.241 OA
ENDBRANCH   3  22
TORSDOF 7
ENDMDL
MODEL 9
REMARK VINA RESULT:      -4.0      2.842      4.855
REMARK  7 active torsions:
REMARK  status: ('A' for Active; 'I' for Inactive)
REMARK    1  A    between atoms: C_2  and  C_3 
REMARK    2  A    between atoms: C_3  and  O_6 
REMARK    3  A    between atoms: C_3  and  C_4 
REMARK    4  A    between atoms: C_7  and  O_6 
REMARK    5  A    between atoms: C_9  and  C_10 
REMARK    6  A    between atoms: N_15  and  C_14 
REMARK    7  A    between atoms: N_20  and  C_19 
REMARK       I    between atoms: C_22  and  N_20 
ROOT
ATOM      1  C   LIG d   1       1.222  81.926 112.877  0.00  0.00     0.161 C 
ATOM      2  C   LIG d   1       1.487  82.486 111.616  0.00  0.00     0.016 C 
ATOM      3  C   LIG d   1       2.653  83.231 111.325  0.00  0.00     0.038 C 
ATOM      4  C   LIG d   1       3.710  83.341 112.240  0.00  0.00     0.028 C 
ATOM      5  C   LIG d   1       3.267  83.220 113.695  0.00  0.00    -0.047 C 
ATOM      6  C   LIG d   1       2.415  81.941 113.855  0.00  0.00     0.091 C 
ENDROOT
BRANCH   1   7
ATOM      7  O   LIG d   1       0.719  80.584 112.720  0.00  0.00    -0.368 OA
BRANCH   7   8
ATOM      8  C   LIG d   1      -0.403  80.426 111.817  0.00  0.00     0.119 C 
BRANCH   8   9
ATOM      9  C   LIG d   1      -1.633  81.067 112.490  0.00  0.00     0.028 C 
ATOM     10  C   LIG d   1      -2.538  80.026 113.171  0.00  0.00     0.006 C 
ENDBRANCH   8   9
BRANCH   8  11
ATOM     11  C   LIG d   1      -0.766  78.949 111.633  0.00  0.00     0.028 C 
ATOM     12  C   LIG d   1      -0.745  78.510 110.160  0.00  0.00     0.006 C 
ENDBRANCH   8  11
ENDBRANCH   7   8
ENDBRANCH   1   7
BRANCH   6  13
ATOM     13  N   LIG d   1       1.871  81.791 115.230  0.00  0.00    -0.311 N 
ATOM     14  C   LIG d   1       2.496  81.121 116.196  0.00  0.00     0.210 C 
ATOM     15  C   LIG d   1       1.752  81.071 117.534  0.00  0.00     0.109 C 
ATOM     16  O   LIG d   1       3.611  80.590 116.082  0.00  0.00    -0.276 OA
ATOM     17  H   LIG d   1       0.985  82.217 115.419  0.00  0.00     0.149 HD
ENDBRANCH   6  13
BRANCH   5  18
ATOM     18  N   LIG d   1       4.482  83.214 114.531  0.00  0.00     0.381 N 
ATOM     19  H   LIG d   1       5.284  83.411 113.966  0.00  0.00    -0.090 HD
ATOM     20  H   LIG d   1       4.596  82.300 114.932  0.00  0.00    -0.090 HD
ATOM     21  H   LIG d   1       4.402  83.894 115.255  0.00  0.00    -0.090 HD
ENDBRANCH   5  18
BRANCH   3  22
ATOM     22  C   LIG d   1       2.751  83.911 110.120  0.00  0.00     0.382 C 
ATOM     23  O   LIG d   1       3.868  84.319 109.720  0.00  0.00    -0.241 OA
ATOM     24  O   LIG d   1       1.731  84.161 109.451  0.00  0.00    -0.241 OA
ENDBRANCH   3  22
TORSDOF 7
ENDMDL
