MODEL 1
REMARK VINA RESULT:      -5.3      0.000      0.000
REMARK  7 active torsions:
REMARK  status: ('A' for Active; 'I' for Inactive)
REMARK    1  A    between atoms: C_2  and  C_3 
REMARK    2  A    between atoms: C_3  and  O_6 
REMARK    3  A    between atoms: C_3  and  C_4 
REMARK    4  A    between atoms: C_7  and  O_6 
REMARK    5  A    between atoms: C_9  and  C_10 
REMARK    6  A    between atoms: N_15  and  C_14 
REMARK    7  A    between atoms: N_20  and  C_19 
REMARK       I    between atoms: C_22  and  N_20 
ROOT
ATOM      1  C   LIG d   1       0.615  81.976 112.079  0.00  0.00     0.161 C 
ATOM      2  C   LIG d   1      -0.635  81.605 112.601  0.00  0.00     0.016 C 
ATOM      3  C   LIG d   1      -1.372  80.491 112.137  0.00  0.00     0.038 C 
ATOM      4  C   LIG d   1      -0.836  79.579 111.216  0.00  0.00     0.028 C 
ATOM      5  C   LIG d   1       0.210  80.194 110.293  0.00  0.00    -0.047 C 
ATOM      6  C   LIG d   1       1.266  80.929 111.151  0.00  0.00     0.091 C 
ENDROOT
BRANCH   1   7
ATOM      7  O   LIG d   1       1.512  82.319 113.154  0.00  0.00    -0.368 OA
BRANCH   7   8
ATOM      8  C   LIG d   1       1.207  83.538 113.875  0.00  0.00     0.119 C 
BRANCH   8   9
ATOM      9  C   LIG d   1       2.001  84.679 113.211  0.00  0.00     0.028 C 
ATOM     10  C   LIG d   1       3.409  84.238 112.775  0.00  0.00     0.006 C 
ENDBRANCH   8   9
BRANCH   8  11
ATOM     11  C   LIG d   1       1.716  83.475 115.317  0.00  0.00     0.028 C 
ATOM     12  C   LIG d   1       1.425  82.126 115.994  0.00  0.00     0.006 C 
ENDBRANCH   8  11
ENDBRANCH   7   8
ENDBRANCH   1   7
BRANCH   6  13
ATOM     13  N   LIG d   1       2.280  81.631 110.322  0.00  0.00    -0.311 N 
ATOM     14  C   LIG d   1       3.590  81.413 110.426  0.00  0.00     0.210 C 
ATOM     15  C   LIG d   1       4.462  82.257 109.492  0.00  0.00     0.109 C 
ATOM     16  O   LIG d   1       4.110  80.577 111.180  0.00  0.00    -0.276 OA
ATOM     17  H   LIG d   1       1.944  82.304 109.662  0.00  0.00     0.149 HD
ENDBRANCH   6  13
BRANCH   5  18
ATOM     18  N   LIG d   1       0.783  79.105 109.480  0.00  0.00     0.381 N 
ATOM     19  H   LIG d   1       0.615  79.282 108.510  0.00  0.00    -0.090 HD
ATOM     20  H   LIG d   1       0.330  78.242 109.726  0.00  0.00    -0.090 HD
ATOM     21  H   LIG d   1       1.763  79.033 109.647  0.00  0.00    -0.090 HD
ENDBRANCH   5  18
BRANCH   3  22
ATOM     22  C   LIG d   1      -2.677  80.303 112.567  0.00  0.00     0.382 C 
ATOM     23  O   LIG d   1      -3.438  81.290 112.709  0.00  0.00    -0.241 OA
ATOM     24  O   LIG d   1      -3.089  79.164 112.856  0.00  0.00    -0.241 OA
ENDBRANCH   3  22
TORSDOF 7
ENDMDL
MODEL 2
REMARK VINA RESULT:      -5.3      2.038      2.934
REMARK  7 active torsions:
REMARK  status: ('A' for Active; 'I' for Inactive)
REMARK    1  A    between atoms: C_2  and  C_3 
REMARK    2  A    between atoms: C_3  and  O_6 
REMARK    3  A    between atoms: C_3  and  C_4 
REMARK    4  A    between atoms: C_7  and  O_6 
REMARK    5  A    between atoms: C_9  and  C_10 
REMARK    6  A    between atoms: N_15  and  C_14 
REMARK    7  A    between atoms: N_20  and  C_19 
REMARK       I    between atoms: C_22  and  N_20 
ROOT
ATOM      1  C   LIG d   1      -1.780  81.290 112.363  0.00  0.00     0.161 C 
ATOM      2  C   LIG d   1      -2.386  80.151 112.917  0.00  0.00     0.016 C 
ATOM      3  C   LIG d   1      -2.060  78.830 112.531  0.00  0.00     0.038 C 
ATOM      4  C   LIG d   1      -0.990  78.553 111.668  0.00  0.00     0.028 C 
ATOM      5  C   LIG d   1      -0.682  79.691 110.700  0.00  0.00    -0.047 C 
ATOM      6  C   LIG d   1      -0.532  81.004 111.501  0.00  0.00     0.091 C 
ENDROOT
BRANCH   1   7
ATOM      7  O   LIG d   1      -1.462  82.231 113.408  0.00  0.00    -0.368 OA
BRANCH   7   8
ATOM      8  C   LIG d   1      -0.098  82.203 113.897  0.00  0.00     0.119 C 
BRANCH   8   9
ATOM      9  C   LIG d   1      -0.147  81.776 115.377  0.00  0.00     0.028 C 
ATOM     10  C   LIG d   1       0.070  80.265 115.560  0.00  0.00     0.006 C 
ENDBRANCH   8   9
BRANCH   8  11
ATOM     11  C   LIG d   1       0.522  83.603 113.899  0.00  0.00     0.028 C 
ATOM     12  C   LIG d   1      -0.434  84.679 113.360  0.00  0.00     0.006 C 
ENDBRANCH   8  11
ENDBRANCH   7   8
ENDBRANCH   1   7
BRANCH   6  13
ATOM     13  N   LIG d   1      -0.313  82.183 110.622  0.00  0.00    -0.311 N 
ATOM     14  C   LIG d   1       0.892  82.674 110.342  0.00  0.00     0.210 C 
ATOM     15  C   LIG d   1       0.893  83.906 109.430  0.00  0.00     0.109 C 
ATOM     16  O   LIG d   1       1.963  82.188 110.735  0.00  0.00    -0.276 OA
ATOM     17  H   LIG d   1      -1.126  82.620 110.234  0.00  0.00     0.149 HD
ENDBRANCH   6  13
BRANCH   5  18
ATOM     18  N   LIG d   1       0.538  79.325 109.956  0.00  0.00     0.381 N 
ATOM     19  H   LIG d   1       1.188  80.086 109.975  0.00  0.00    -0.090 HD
ATOM     20  H   LIG d   1       0.293  79.144 108.999  0.00  0.00    -0.090 HD
ATOM     21  H   LIG d   1       0.953  78.514 110.359  0.00  0.00    -0.090 HD
ENDBRANCH   5  18
BRANCH   3  22
ATOM     22  C   LIG d   1      -2.835  77.772 112.981  0.00  0.00     0.382 C 
ATOM     23  O   LIG d   1      -3.309  77.791 114.142  0.00  0.00    -0.241 OA
ATOM     24  O   LIG d   1      -3.029  76.778 112.255  0.00  0.00    -0.241 OA
ENDBRANCH   3  22
TORSDOF 7
ENDMDL
MODEL 3
REMARK VINA RESULT:      -5.1      2.813      4.834
REMARK  7 active torsions:
REMARK  status: ('A' for Active; 'I' for Inactive)
REMARK    1  A    between atoms: C_2  and  C_3 
REMARK    2  A    between atoms: C_3  and  O_6 
REMARK    3  A    between atoms: C_3  and  C_4 
REMARK    4  A    between atoms: C_7  and  O_6 
REMARK    5  A    between atoms: C_9  and  C_10 
REMARK    6  A    between atoms: N_15  and  C_14 
REMARK    7  A    between atoms: N_20  and  C_19 
REMARK       I    between atoms: C_22  and  N_20 
ROOT
ATOM      1  C   LIG d   1      -1.449  81.670 112.623  0.00  0.00     0.161 C 
ATOM      2  C   LIG d   1      -0.833  82.559 113.520  0.00  0.00     0.016 C 
ATOM      3  C   LIG d   1      -0.107  82.138 114.657  0.00  0.00     0.038 C 
ATOM      4  C   LIG d   1       0.183  80.786 114.893  0.00  0.00     0.028 C 
ATOM      5  C   LIG d   1      -0.845  79.833 114.293  0.00  0.00    -0.047 C 
ATOM      6  C   LIG d   1      -1.051  80.191 112.803  0.00  0.00     0.091 C 
ENDROOT
BRANCH   1   7
ATOM      7  O   LIG d   1      -1.203  82.095 111.268  0.00  0.00    -0.368 OA
BRANCH   7   8
ATOM      8  C   LIG d   1       0.098  82.677 111.009  0.00  0.00     0.119 C 
BRANCH   8   9
ATOM      9  C   LIG d   1      -0.125  83.958 110.182  0.00  0.00     0.028 C 
ATOM     10  C   LIG d   1       1.142  84.400 109.430  0.00  0.00     0.006 C 
ENDBRANCH   8   9
BRANCH   8  11
ATOM     11  C   LIG d   1       0.951  81.765 110.122  0.00  0.00     0.028 C 
ATOM     12  C   LIG d   1       2.023  80.999 110.912  0.00  0.00     0.006 C 
ENDBRANCH   8  11
ENDBRANCH   7   8
ENDBRANCH   1   7
BRANCH   6  13
ATOM     13  N   LIG d   1      -2.102  79.360 112.160  0.00  0.00    -0.311 N 
ATOM     14  C   LIG d   1      -1.882  78.595 111.093  0.00  0.00     0.210 C 
ATOM     15  C   LIG d   1      -3.109  77.836 110.577  0.00  0.00     0.109 C 
ATOM     16  O   LIG d   1      -0.780  78.448 110.543  0.00  0.00    -0.276 OA
ATOM     17  H   LIG d   1      -3.019  79.395 112.561  0.00  0.00     0.149 HD
ENDBRANCH   6  13
BRANCH   5  18
ATOM     18  N   LIG d   1      -0.349  78.458 114.494  0.00  0.00     0.381 N 
ATOM     19  H   LIG d   1      -1.075  77.802 114.285  0.00  0.00    -0.090 HD
ATOM     20  H   LIG d   1      -0.088  78.344 115.458  0.00  0.00    -0.090 HD
ATOM     21  H   LIG d   1       0.439  78.291 113.907  0.00  0.00    -0.090 HD
ENDBRANCH   5  18
BRANCH   3  22
ATOM     22  C   LIG d   1       0.305  83.073 115.595  0.00  0.00     0.382 C 
ATOM     23  O   LIG d   1       1.023  84.040 115.243  0.00  0.00    -0.241 OA
ATOM     24  O   LIG d   1       0.004  82.938 116.796  0.00  0.00    -0.241 OA
ENDBRANCH   3  22
TORSDOF 7
ENDMDL
MODEL 4
REMARK VINA RESULT:      -5.1      2.456      4.135
REMARK  7 active torsions:
REMARK  status: ('A' for Active; 'I' for Inactive)
REMARK    1  A    between atoms: C_2  and  C_3 
REMARK    2  A    between atoms: C_3  and  O_6 
REMARK    3  A    between atoms: C_3  and  C_4 
REMARK    4  A    between atoms: C_7  and  O_6 
REMARK    5  A    between atoms: C_9  and  C_10 
REMARK    6  A    between atoms: N_15  and  C_14 
REMARK    7  A    between atoms: N_20  and  C_19 
REMARK       I    between atoms: C_22  and  N_20 
ROOT
ATOM      1  C   LIG d   1       0.055  80.477 111.154  0.00  0.00     0.161 C 
ATOM      2  C   LIG d   1      -0.769  79.424 110.723  0.00  0.00     0.016 C 
ATOM      3  C   LIG d   1      -1.553  78.640 111.601  0.00  0.00     0.038 C 
ATOM      4  C   LIG d   1      -1.685  78.958 112.961  0.00  0.00     0.028 C 
ATOM      5  C   LIG d   1      -0.481  79.701 113.529  0.00  0.00    -0.047 C 
ATOM      6  C   LIG d   1      -0.162  80.909 112.620  0.00  0.00     0.091 C 
ENDROOT
BRANCH   1   7
ATOM      7  O   LIG d   1      -0.096  81.607 110.272  0.00  0.00    -0.368 OA
BRANCH   7   8
ATOM      8  C   LIG d   1       1.044  81.915 109.431  0.00  0.00     0.119 C 
BRANCH   8   9
ATOM      9  C   LIG d   1       2.198  80.987 109.858  0.00  0.00     0.028 C 
ATOM     10  C   LIG d   1       3.447  81.768 110.298  0.00  0.00     0.006 C 
ENDBRANCH   8   9
BRANCH   8  11
ATOM     11  C   LIG d   1       1.553  83.337 109.682  0.00  0.00     0.028 C 
ATOM     12  C   LIG d   1       0.416  84.347 109.904  0.00  0.00     0.006 C 
ENDBRANCH   8  11
ENDBRANCH   7   8
ENDBRANCH   1   7
BRANCH   6  13
ATOM     13  N   LIG d   1       1.055  81.642 113.057  0.00  0.00    -0.311 N 
ATOM     14  C   LIG d   1       1.063  82.942 113.346  0.00  0.00     0.210 C 
ATOM     15  C   LIG d   1       2.428  83.505 113.757  0.00  0.00     0.109 C 
ATOM     16  O   LIG d   1       0.064  83.677 113.332  0.00  0.00    -0.276 OA
ATOM     17  H   LIG d   1       1.904  81.116 113.125  0.00  0.00     0.149 HD
ENDBRANCH   6  13
BRANCH   5  18
ATOM     18  N   LIG d   1      -0.809  80.090 114.914  0.00  0.00     0.381 N 
ATOM     19  H   LIG d   1      -1.483  80.829 114.907  0.00  0.00    -0.090 HD
ATOM     20  H   LIG d   1       0.024  80.426 115.363  0.00  0.00    -0.090 HD
ATOM     21  H   LIG d   1      -1.170  79.306 115.411  0.00  0.00    -0.090 HD
ENDBRANCH   5  18
BRANCH   3  22
ATOM     22  C   LIG d   1      -2.186  77.501 111.126  0.00  0.00     0.382 C 
ATOM     23  O   LIG d   1      -1.589  76.398 111.149  0.00  0.00    -0.241 OA
ATOM     24  O   LIG d   1      -3.328  77.571 110.634  0.00  0.00    -0.241 OA
ENDBRANCH   3  22
TORSDOF 7
ENDMDL
MODEL 5
REMARK VINA RESULT:      -4.9      2.192      2.737
REMARK  7 active torsions:
REMARK  status: ('A' for Active; 'I' for Inactive)
REMARK    1  A    between atoms: C_2  and  C_3 
REMARK    2  A    between atoms: C_3  and  O_6 
REMARK    3  A    between atoms: C_3  and  C_4 
REMARK    4  A    between atoms: C_7  and  O_6 
REMARK    5  A    between atoms: C_9  and  C_10 
REMARK    6  A    between atoms: N_15  and  C_14 
REMARK    7  A    between atoms: N_20  and  C_19 
REMARK       I    between atoms: C_22  and  N_20 
ROOT
ATOM      1  C   LIG d   1      -0.925  80.410 113.042  0.00  0.00     0.161 C 
ATOM      2  C   LIG d   1      -1.524  79.339 113.726  0.00  0.00     0.016 C 
ATOM      3  C   LIG d   1      -1.914  78.134 113.098  0.00  0.00     0.038 C 
ATOM      4  C   LIG d   1      -1.591  77.857 111.761  0.00  0.00     0.028 C 
ATOM      5  C   LIG d   1      -1.437  79.108 110.903  0.00  0.00    -0.047 C 
ATOM      6  C   LIG d   1      -0.464  80.082 111.606  0.00  0.00     0.091 C 
ENDROOT
BRANCH   1   7
ATOM      7  O   LIG d   1       0.175  80.930 113.815  0.00  0.00    -0.368 OA
BRANCH   7   8
ATOM      8  C   LIG d   1      -0.110  82.099 114.621  0.00  0.00     0.119 C 
BRANCH   8   9
ATOM      9  C   LIG d   1       0.569  83.305 113.943  0.00  0.00     0.028 C 
ATOM     10  C   LIG d   1      -0.440  84.222 113.230  0.00  0.00     0.006 C 
ENDBRANCH   8   9
BRANCH   8  11
ATOM     11  C   LIG d   1       0.539  81.994 116.004  0.00  0.00     0.028 C 
ATOM     12  C   LIG d   1       0.330  80.619 116.657  0.00  0.00     0.006 C 
ENDBRANCH   8  11
ENDBRANCH   7   8
ENDBRANCH   1   7
BRANCH   6  13
ATOM     13  N   LIG d   1      -0.322  81.368 110.875  0.00  0.00    -0.311 N 
ATOM     14  C   LIG d   1       0.854  81.893 110.537  0.00  0.00     0.210 C 
ATOM     15  C   LIG d   1       0.776  83.236 109.804  0.00  0.00     0.109 C 
ATOM     16  O   LIG d   1       1.953  81.359 110.745  0.00  0.00    -0.276 OA
ATOM     17  H   LIG d   1      -1.165  81.853 110.638  0.00  0.00     0.149 HD
ENDBRANCH   6  13
BRANCH   5  18
ATOM     18  N   LIG d   1      -0.966  78.681 109.572  0.00  0.00     0.381 N 
ATOM     19  H   LIG d   1      -1.726  78.702 108.921  0.00  0.00    -0.090 HD
ATOM     20  H   LIG d   1      -0.630  77.736 109.634  0.00  0.00    -0.090 HD
ATOM     21  H   LIG d   1      -0.235  79.281 109.260  0.00  0.00    -0.090 HD
ENDBRANCH   5  18
BRANCH   3  22
ATOM     22  C   LIG d   1      -2.671  77.207 113.799  0.00  0.00     0.382 C 
ATOM     23  O   LIG d   1      -3.438  76.429 113.182  0.00  0.00    -0.241 OA
ATOM     24  O   LIG d   1      -2.629  77.168 115.043  0.00  0.00    -0.241 OA
ENDBRANCH   3  22
TORSDOF 7
ENDMDL
MODEL 6
REMARK VINA RESULT:      -4.9      1.646      2.084
REMARK  7 active torsions:
REMARK  status: ('A' for Active; 'I' for Inactive)
REMARK    1  A    between atoms: C_2  and  C_3 
REMARK    2  A    between atoms: C_3  and  O_6 
REMARK    3  A    between atoms: C_3  and  C_4 
REMARK    4  A    between atoms: C_7  and  O_6 
REMARK    5  A    between atoms: C_9  and  C_10 
REMARK    6  A    between atoms: N_15  and  C_14 
REMARK    7  A    between atoms: N_20  and  C_19 
REMARK       I    between atoms: C_22  and  N_20 
ROOT
ATOM      1  C   LIG d   1      -0.580  82.484 112.078  0.00  0.00     0.161 C 
ATOM      2  C   LIG d   1      -1.559  81.594 112.549  0.00  0.00     0.016 C 
ATOM      3  C   LIG d   1      -1.564  80.213 112.248  0.00  0.00     0.038 C 
ATOM      4  C   LIG d   1      -0.499  79.596 111.576  0.00  0.00     0.028 C 
ATOM      5  C   LIG d   1       0.259  80.540 110.648  0.00  0.00    -0.047 C 
ATOM      6  C   LIG d   1       0.651  81.811 111.436  0.00  0.00     0.091 C 
ENDROOT
BRANCH   1   7
ATOM      7  O   LIG d   1      -0.170  83.367 113.141  0.00  0.00    -0.368 OA
BRANCH   7   8
ATOM      8  C   LIG d   1      -0.321  82.855 114.488  0.00  0.00     0.119 C 
BRANCH   8   9
ATOM      9  C   LIG d   1      -0.699  84.043 115.395  0.00  0.00     0.028 C 
ATOM     10  C   LIG d   1      -0.116  83.908 116.812  0.00  0.00     0.006 C 
ENDBRANCH   8   9
BRANCH   8  11
ATOM     11  C   LIG d   1       1.010  82.333 115.038  0.00  0.00     0.028 C 
ATOM     12  C   LIG d   1       1.085  80.798 115.057  0.00  0.00     0.006 C 
ENDBRANCH   8  11
ENDBRANCH   7   8
ENDBRANCH   1   7
BRANCH   6  13
ATOM     13  N   LIG d   1       1.322  82.824 110.580  0.00  0.00    -0.311 N 
ATOM     14  C   LIG d   1       2.558  83.269 110.803  0.00  0.00     0.210 C 
ATOM     15  C   LIG d   1       3.052  84.327 109.812  0.00  0.00     0.109 C 
ATOM     16  O   LIG d   1       3.303  82.864 111.708  0.00  0.00    -0.276 OA
ATOM     17  H   LIG d   1       0.801  83.183 109.804  0.00  0.00     0.149 HD
ENDBRANCH   6  13
BRANCH   5  18
ATOM     18  N   LIG d   1       1.423  79.805 110.119  0.00  0.00     0.381 N 
ATOM     19  H   LIG d   1       1.565  80.041 109.157  0.00  0.00    -0.090 HD
ATOM     20  H   LIG d   1       1.240  78.819 110.178  0.00  0.00    -0.090 HD
ATOM     21  H   LIG d   1       2.238  80.031 110.647  0.00  0.00    -0.090 HD
ENDBRANCH   5  18
BRANCH   3  22
ATOM     22  C   LIG d   1      -2.664  79.440 112.588  0.00  0.00     0.382 C 
ATOM     23  O   LIG d   1      -3.330  78.868 111.691  0.00  0.00    -0.241 OA
ATOM     24  O   LIG d   1      -3.026  79.343 113.776  0.00  0.00    -0.241 OA
ENDBRANCH   3  22
TORSDOF 7
ENDMDL
MODEL 7
REMARK VINA RESULT:      -4.9      3.017      6.106
REMARK  7 active torsions:
REMARK  status: ('A' for Active; 'I' for Inactive)
REMARK    1  A    between atoms: C_2  and  C_3 
REMARK    2  A    between atoms: C_3  and  O_6 
REMARK    3  A    between atoms: C_3  and  C_4 
REMARK    4  A    between atoms: C_7  and  O_6 
REMARK    5  A    between atoms: C_9  and  C_10 
REMARK    6  A    between atoms: N_15  and  C_14 
REMARK    7  A    between atoms: N_20  and  C_19 
REMARK       I    between atoms: C_22  and  N_20 
ROOT
ATOM      1  C   LIG d   1      -2.100  80.224 112.850  0.00  0.00     0.161 C 
ATOM      2  C   LIG d   1      -1.563  81.492 112.571  0.00  0.00     0.016 C 
ATOM      3  C   LIG d   1      -0.467  82.044 113.273  0.00  0.00     0.038 C 
ATOM      4  C   LIG d   1       0.268  81.298 114.207  0.00  0.00     0.028 C 
ATOM      5  C   LIG d   1      -0.547  80.199 114.879  0.00  0.00    -0.047 C 
ATOM      6  C   LIG d   1      -1.242  79.351 113.790  0.00  0.00     0.091 C 
ENDROOT
BRANCH   1   7
ATOM      7  O   LIG d   1      -2.365  79.524 111.618  0.00  0.00    -0.368 OA
BRANCH   7   8
ATOM      8  C   LIG d   1      -1.344  78.592 111.182  0.00  0.00     0.119 C 
BRANCH   8   9
ATOM      9  C   LIG d   1      -0.823  79.083 109.818  0.00  0.00     0.028 C 
ATOM     10  C   LIG d   1       0.462  79.919 109.946  0.00  0.00     0.006 C 
ENDBRANCH   8   9
BRANCH   8  11
ATOM     11  C   LIG d   1      -1.933  77.204 110.916  0.00  0.00     0.028 C 
ATOM     12  C   LIG d   1      -0.874  76.091 110.952  0.00  0.00     0.006 C 
ENDBRANCH   8  11
ENDBRANCH   7   8
ENDBRANCH   1   7
BRANCH   6  13
ATOM     13  N   LIG d   1      -2.127  78.304 114.364  0.00  0.00    -0.311 N 
ATOM     14  C   LIG d   1      -1.730  77.054 114.597  0.00  0.00     0.210 C 
ATOM     15  C   LIG d   1      -2.807  76.130 115.174  0.00  0.00     0.109 C 
ATOM     16  O   LIG d   1      -0.579  76.632 114.410  0.00  0.00    -0.276 OA
ATOM     17  H   LIG d   1      -3.070  78.569 114.575  0.00  0.00     0.149 HD
ENDBRANCH   6  13
BRANCH   5  18
ATOM     18  N   LIG d   1       0.374  79.414 115.723  0.00  0.00     0.381 N 
ATOM     19  H   LIG d   1       1.288  79.819 115.694  0.00  0.00    -0.090 HD
ATOM     20  H   LIG d   1       0.431  78.479 115.359  0.00  0.00    -0.090 HD
ATOM     21  H   LIG d   1       0.042  79.393 116.662  0.00  0.00    -0.090 HD
ENDBRANCH   5  18
BRANCH   3  22
ATOM     22  C   LIG d   1      -0.120  83.371 113.071  0.00  0.00     0.382 C 
ATOM     23  O   LIG d   1      -1.000  84.264 113.126  0.00  0.00    -0.241 OA
ATOM     24  O   LIG d   1       1.053  83.682 112.791  0.00  0.00    -0.241 OA
ENDBRANCH   3  22
TORSDOF 7
ENDMDL
MODEL 8
REMARK VINA RESULT:      -4.7      2.039      5.082
REMARK  7 active torsions:
REMARK  status: ('A' for Active; 'I' for Inactive)
REMARK    1  A    between atoms: C_2  and  C_3 
REMARK    2  A    between atoms: C_3  and  O_6 
REMARK    3  A    between atoms: C_3  and  C_4 
REMARK    4  A    between atoms: C_7  and  O_6 
REMARK    5  A    between atoms: C_9  and  C_10 
REMARK    6  A    between atoms: N_15  and  C_14 
REMARK    7  A    between atoms: N_20  and  C_19 
REMARK       I    between atoms: C_22  and  N_20 
ROOT
ATOM      1  C   LIG d   1       0.859  80.994 113.000  0.00  0.00     0.161 C 
ATOM      2  C   LIG d   1       1.836  81.913 112.583  0.00  0.00     0.016 C 
ATOM      3  C   LIG d   1       2.058  82.252 111.229  0.00  0.00     0.038 C 
ATOM      4  C   LIG d   1       1.211  81.804 110.204  0.00  0.00     0.028 C 
ATOM      5  C   LIG d   1       0.527  80.478 110.519  0.00  0.00    -0.047 C 
ATOM      6  C   LIG d   1      -0.148  80.580 111.906  0.00  0.00     0.091 C 
ENDROOT
BRANCH   1   7
ATOM      7  O   LIG d   1       0.163  81.509 114.152  0.00  0.00    -0.368 OA
BRANCH   7   8
ATOM      8  C   LIG d   1       0.646  81.060 115.442  0.00  0.00     0.119 C 
BRANCH   8   9
ATOM      9  C   LIG d   1      -0.175  79.817 115.837  0.00  0.00     0.028 C 
ATOM     10  C   LIG d   1      -0.447  79.749 117.349  0.00  0.00     0.006 C 
ENDBRANCH   8   9
BRANCH   8  11
ATOM     11  C   LIG d   1       0.364  82.096 116.534  0.00  0.00     0.028 C 
ATOM     12  C   LIG d   1      -0.077  83.454 115.967  0.00  0.00     0.006 C 
ENDBRANCH   8  11
ENDBRANCH   7   8
ENDBRANCH   1   7
BRANCH   6  13
ATOM     13  N   LIG d   1      -0.770  79.298 112.329  0.00  0.00    -0.311 N 
ATOM     14  C   LIG d   1      -2.082  79.137 112.488  0.00  0.00     0.210 C 
ATOM     15  C   LIG d   1      -2.511  77.740 112.949  0.00  0.00     0.109 C 
ATOM     16  O   LIG d   1      -2.934  80.008 112.260  0.00  0.00    -0.276 OA
ATOM     17  H   LIG d   1      -0.153  78.528 112.505  0.00  0.00     0.149 HD
ENDBRANCH   6  13
BRANCH   5  18
ATOM     18  N   LIG d   1      -0.428  80.200 109.430  0.00  0.00     0.381 N 
ATOM     19  H   LIG d   1      -0.698  81.056 108.988  0.00  0.00    -0.090 HD
ATOM     20  H   LIG d   1      -1.250  79.774 109.820  0.00  0.00    -0.090 HD
ATOM     21  H   LIG d   1      -0.014  79.589 108.761  0.00  0.00    -0.090 HD
ENDBRANCH   5  18
BRANCH   3  22
ATOM     22  C   LIG d   1       3.163  83.016 110.884  0.00  0.00     0.382 C 
ATOM     23  O   LIG d   1       3.238  83.529 109.741  0.00  0.00    -0.241 OA
ATOM     24  O   LIG d   1       4.105  83.162 111.685  0.00  0.00    -0.241 OA
ENDBRANCH   3  22
TORSDOF 7
ENDMDL
MODEL 9
REMARK VINA RESULT:      -4.7      3.358      6.139
REMARK  7 active torsions:
REMARK  status: ('A' for Active; 'I' for Inactive)
REMARK    1  A    between atoms: C_2  and  C_3 
REMARK    2  A    between atoms: C_3  and  O_6 
REMARK    3  A    between atoms: C_3  and  C_4 
REMARK    4  A    between atoms: C_7  and  O_6 
REMARK    5  A    between atoms: C_9  and  C_10 
REMARK    6  A    between atoms: N_15  and  C_14 
REMARK    7  A    between atoms: N_20  and  C_19 
REMARK       I    between atoms: C_22  and  N_20 
ROOT
ATOM      1  C   LIG d   1      -1.741  80.406 113.830  0.00  0.00     0.161 C 
ATOM      2  C   LIG d   1      -1.481  80.933 112.554  0.00  0.00     0.016 C 
ATOM      3  C   LIG d   1      -0.189  81.303 112.114  0.00  0.00     0.038 C 
ATOM      4  C   LIG d   1       0.959  81.029 112.871  0.00  0.00     0.028 C 
ATOM      5  C   LIG d   1       0.694  80.960 114.371  0.00  0.00    -0.047 C 
ATOM      6  C   LIG d   1      -0.486  79.995 114.628  0.00  0.00     0.091 C 
ENDROOT
BRANCH   1   7
ATOM      7  O   LIG d   1      -2.652  79.294 113.722  0.00  0.00    -0.368 OA
BRANCH   7   8
ATOM      8  C   LIG d   1      -2.106  78.074 113.163  0.00  0.00     0.119 C 
BRANCH   8   9
ATOM      9  C   LIG d   1      -3.000  77.669 111.974  0.00  0.00     0.028 C 
ATOM     10  C   LIG d   1      -2.340  77.965 110.617  0.00  0.00     0.006 C 
ENDBRANCH   8   9
BRANCH   8  11
ATOM     11  C   LIG d   1      -2.203  76.913 114.157  0.00  0.00     0.028 C 
ATOM     12  C   LIG d   1      -0.911  76.084 114.233  0.00  0.00     0.006 C 
ENDBRANCH   8  11
ENDBRANCH   7   8
ENDBRANCH   1   7
BRANCH   6  13
ATOM     13  N   LIG d   1      -0.866  79.935 116.063  0.00  0.00    -0.311 N 
ATOM     14  C   LIG d   1      -0.395  79.020 116.909  0.00  0.00     0.210 C 
ATOM     15  C   LIG d   1      -0.931  79.124 118.340  0.00  0.00     0.109 C 
ATOM     16  O   LIG d   1       0.440  78.151 116.617  0.00  0.00    -0.276 OA
ATOM     17  H   LIG d   1      -1.516  80.622 116.393  0.00  0.00     0.149 HD
ENDBRANCH   6  13
BRANCH   5  18
ATOM     18  N   LIG d   1       1.944  80.532 115.025  0.00  0.00     0.381 N 
ATOM     19  H   LIG d   1       2.185  79.608 114.725  0.00  0.00    -0.090 HD
ATOM     20  H   LIG d   1       1.801  80.513 116.020  0.00  0.00    -0.090 HD
ATOM     21  H   LIG d   1       2.681  81.164 114.801  0.00  0.00    -0.090 HD
ENDBRANCH   5  18
BRANCH   3  22
ATOM     22  C   LIG d   1      -0.042  81.993 110.920  0.00  0.00     0.382 C 
ATOM     23  O   LIG d   1       0.871  81.674 110.120  0.00  0.00    -0.241 OA
ATOM     24  O   LIG d   1      -0.782  82.958 110.652  0.00  0.00    -0.241 OA
ENDBRANCH   3  22
TORSDOF 7
ENDMDL
