MODEL 1
REMARK VINA RESULT:      -5.8      0.000      0.000
REMARK  7 active torsions:
REMARK  status: ('A' for Active; 'I' for Inactive)
REMARK    1  A    between atoms: C_2  and  C_3 
REMARK    2  A    between atoms: C_3  and  O_6 
REMARK    3  A    between atoms: C_3  and  C_4 
REMARK    4  A    between atoms: C_7  and  O_6 
REMARK    5  A    between atoms: C_9  and  C_10 
REMARK    6  A    between atoms: N_15  and  C_14 
REMARK    7  A    between atoms: N_20  and  C_19 
REMARK       I    between atoms: C_22  and  N_20 
ROOT
ATOM      1  C   LIG d   1       1.560  81.004 112.377  0.00  0.00     0.161 C 
ATOM      2  C   LIG d   1       2.780  80.923 111.686  0.00  0.00     0.016 C 
ATOM      3  C   LIG d   1       2.923  80.285 110.432  0.00  0.00     0.038 C 
ATOM      4  C   LIG d   1       1.817  79.814 109.709  0.00  0.00     0.028 C 
ATOM      5  C   LIG d   1       0.637  79.424 110.593  0.00  0.00    -0.047 C 
ATOM      6  C   LIG d   1       0.322  80.594 111.554  0.00  0.00     0.091 C 
ENDROOT
BRANCH   1   7
ATOM      7  O   LIG d   1       1.389  82.331 112.912  0.00  0.00    -0.368 OA
BRANCH   7   8
ATOM      8  C   LIG d   1       1.973  83.409 112.141  0.00  0.00     0.119 C 
BRANCH   8   9
ATOM      9  C   LIG d   1       2.641  84.380 113.134  0.00  0.00     0.028 C 
ATOM     10  C   LIG d   1       4.176  84.287 113.104  0.00  0.00     0.006 C 
ENDBRANCH   8   9
BRANCH   8  11
ATOM     11  C   LIG d   1       0.896  84.234 111.430  0.00  0.00     0.028 C 
ATOM     12  C   LIG d   1       0.784  83.904 109.933  0.00  0.00     0.006 C 
ENDBRANCH   8  11
ENDBRANCH   7   8
ENDBRANCH   1   7
BRANCH   6  13
ATOM     13  N   LIG d   1      -0.766  80.263 112.511  0.00  0.00    -0.311 N 
ATOM     14  C   LIG d   1      -1.730  81.117 112.849  0.00  0.00     0.210 C 
ATOM     15  C   LIG d   1      -2.741  80.582 113.868  0.00  0.00     0.109 C 
ATOM     16  O   LIG d   1      -1.862  82.257 112.378  0.00  0.00    -0.276 OA
ATOM     17  H   LIG d   1      -0.753  79.348 112.918  0.00  0.00     0.149 HD
ENDBRANCH   6  13
BRANCH   5  18
ATOM     18  N   LIG d   1      -0.491  79.084 109.706  0.00  0.00     0.381 N 
ATOM     19  H   LIG d   1      -1.169  79.819 109.723  0.00  0.00    -0.090 HD
ATOM     20  H   LIG d   1      -0.927  78.244 110.044  0.00  0.00    -0.090 HD
ATOM     21  H   LIG d   1      -0.163  78.946 108.776  0.00  0.00    -0.090 HD
ENDBRANCH   5  18
BRANCH   3  22
ATOM     22  C   LIG d   1       4.190  80.078 109.907  0.00  0.00     0.382 C 
ATOM     23  O   LIG d   1       4.583  78.913 109.659  0.00  0.00    -0.241 OA
ATOM     24  O   LIG d   1       4.961  81.038 109.720  0.00  0.00    -0.241 OA
ENDBRANCH   3  22
TORSDOF 7
ENDMDL
MODEL 2
REMARK VINA RESULT:      -5.0      1.636      2.142
REMARK  7 active torsions:
REMARK  status: ('A' for Active; 'I' for Inactive)
REMARK    1  A    between atoms: C_2  and  C_3 
REMARK    2  A    between atoms: C_3  and  O_6 
REMARK    3  A    between atoms: C_3  and  C_4 
REMARK    4  A    between atoms: C_7  and  O_6 
REMARK    5  A    between atoms: C_9  and  C_10 
REMARK    6  A    between atoms: N_15  and  C_14 
REMARK    7  A    between atoms: N_20  and  C_19 
REMARK       I    between atoms: C_22  and  N_20 
ROOT
ATOM      1  C   LIG d   1       1.895  80.979 112.668  0.00  0.00     0.161 C 
ATOM      2  C   LIG d   1       3.144  80.989 112.026  0.00  0.00     0.016 C 
ATOM      3  C   LIG d   1       3.305  80.822 110.631  0.00  0.00     0.038 C 
ATOM      4  C   LIG d   1       2.207  80.784 109.758  0.00  0.00     0.028 C 
ATOM      5  C   LIG d   1       0.931  80.264 110.411  0.00  0.00    -0.047 C 
ATOM      6  C   LIG d   1       0.680  81.050 111.719  0.00  0.00     0.091 C 
ENDROOT
BRANCH   1   7
ATOM      7  O   LIG d   1       1.835  82.043 113.638  0.00  0.00    -0.368 OA
BRANCH   7   8
ATOM      8  C   LIG d   1       3.021  82.233 114.449  0.00  0.00     0.119 C 
BRANCH   8   9
ATOM      9  C   LIG d   1       2.841  81.401 115.734  0.00  0.00     0.028 C 
ATOM     10  C   LIG d   1       4.178  81.112 116.438  0.00  0.00     0.006 C 
ENDBRANCH   8   9
BRANCH   8  11
ATOM     11  C   LIG d   1       3.147  83.685 114.920  0.00  0.00     0.028 C 
ATOM     12  C   LIG d   1       3.306  84.676 113.757  0.00  0.00     0.006 C 
ENDBRANCH   8  11
ENDBRANCH   7   8
ENDBRANCH   1   7
BRANCH   6  13
ATOM     13  N   LIG d   1      -0.503  80.548 112.464  0.00  0.00    -0.311 N 
ATOM     14  C   LIG d   1      -1.586  81.285 112.704  0.00  0.00     0.210 C 
ATOM     15  C   LIG d   1      -2.683  80.580 113.508  0.00  0.00     0.109 C 
ATOM     16  O   LIG d   1      -1.755  82.446 112.301  0.00  0.00    -0.276 OA
ATOM     17  H   LIG d   1      -0.464  79.606 112.801  0.00  0.00     0.149 HD
ENDBRANCH   6  13
BRANCH   5  18
ATOM     18  N   LIG d   1      -0.162  80.408 109.431  0.00  0.00     0.381 N 
ATOM     19  H   LIG d   1       0.149  80.958 108.656  0.00  0.00    -0.090 HD
ATOM     20  H   LIG d   1      -0.930  80.885 109.869  0.00  0.00    -0.090 HD
ATOM     21  H   LIG d   1      -0.456  79.510 109.114  0.00  0.00    -0.090 HD
ENDBRANCH   5  18
BRANCH   3  22
ATOM     22  C   LIG d   1       4.574  80.650 110.101  0.00  0.00     0.382 C 
ATOM     23  O   LIG d   1       4.949  79.513 109.727  0.00  0.00    -0.241 OA
ATOM     24  O   LIG d   1       5.365  81.610 110.033  0.00  0.00    -0.241 OA
ENDBRANCH   3  22
TORSDOF 7
ENDMDL
MODEL 3
REMARK VINA RESULT:      -5.0      2.426      5.181
REMARK  7 active torsions:
REMARK  status: ('A' for Active; 'I' for Inactive)
REMARK    1  A    between atoms: C_2  and  C_3 
REMARK    2  A    between atoms: C_3  and  O_6 
REMARK    3  A    between atoms: C_3  and  C_4 
REMARK    4  A    between atoms: C_7  and  O_6 
REMARK    5  A    between atoms: C_9  and  C_10 
REMARK    6  A    between atoms: N_15  and  C_14 
REMARK    7  A    between atoms: N_20  and  C_19 
REMARK       I    between atoms: C_22  and  N_20 
ROOT
ATOM      1  C   LIG d   1      -0.049  81.041 111.998  0.00  0.00     0.161 C 
ATOM      2  C   LIG d   1      -1.161  80.270 112.377  0.00  0.00     0.016 C 
ATOM      3  C   LIG d   1      -1.448  78.998 111.832  0.00  0.00     0.038 C 
ATOM      4  C   LIG d   1      -0.554  78.339 110.976  0.00  0.00     0.028 C 
ATOM      5  C   LIG d   1       0.331  79.290 110.177  0.00  0.00    -0.047 C 
ATOM      6  C   LIG d   1       0.998  80.291 111.148  0.00  0.00     0.091 C 
ENDROOT
BRANCH   1   7
ATOM      7  O   LIG d   1       0.572  81.611 113.168  0.00  0.00    -0.368 OA
BRANCH   7   8
ATOM      8  C   LIG d   1       1.368  80.706 113.972  0.00  0.00     0.119 C 
BRANCH   8   9
ATOM      9  C   LIG d   1       0.667  80.561 115.336  0.00  0.00     0.028 C 
ATOM     10  C   LIG d   1       0.035  79.171 115.526  0.00  0.00     0.006 C 
ENDBRANCH   8   9
BRANCH   8  11
ATOM     11  C   LIG d   1       2.744  81.303 114.285  0.00  0.00     0.028 C 
ATOM     12  C   LIG d   1       2.957  82.680 113.636  0.00  0.00     0.006 C 
ENDBRANCH   8  11
ENDBRANCH   7   8
ENDBRANCH   1   7
BRANCH   6  13
ATOM     13  N   LIG d   1       1.815  81.310 110.439  0.00  0.00    -0.311 N 
ATOM     14  C   LIG d   1       3.123  81.181 110.226  0.00  0.00     0.210 C 
ATOM     15  C   LIG d   1       3.778  82.357 109.493  0.00  0.00     0.109 C 
ATOM     16  O   LIG d   1       3.798  80.191 110.545  0.00  0.00    -0.276 OA
ATOM     17  H   LIG d   1       1.341  82.131 110.118  0.00  0.00     0.149 HD
ENDBRANCH   6  13
BRANCH   5  18
ATOM     18  N   LIG d   1       1.306  78.471 109.431  0.00  0.00     0.381 N 
ATOM     19  H   LIG d   1       1.920  78.008 110.072  0.00  0.00    -0.090 HD
ATOM     20  H   LIG d   1       1.857  79.074 108.846  0.00  0.00    -0.090 HD
ATOM     21  H   LIG d   1       0.829  77.798 108.872  0.00  0.00    -0.090 HD
ENDBRANCH   5  18
BRANCH   3  22
ATOM     22  C   LIG d   1      -2.662  78.388 112.113  0.00  0.00     0.382 C 
ATOM     23  O   LIG d   1      -3.250  78.631 113.194  0.00  0.00    -0.241 OA
ATOM     24  O   LIG d   1      -3.154  77.565 111.318  0.00  0.00    -0.241 OA
ENDBRANCH   3  22
TORSDOF 7
ENDMDL
MODEL 4
REMARK VINA RESULT:      -4.7      2.290      4.158
REMARK  7 active torsions:
REMARK  status: ('A' for Active; 'I' for Inactive)
REMARK    1  A    between atoms: C_2  and  C_3 
REMARK    2  A    between atoms: C_3  and  O_6 
REMARK    3  A    between atoms: C_3  and  C_4 
REMARK    4  A    between atoms: C_7  and  O_6 
REMARK    5  A    between atoms: C_9  and  C_10 
REMARK    6  A    between atoms: N_15  and  C_14 
REMARK    7  A    between atoms: N_20  and  C_19 
REMARK       I    between atoms: C_22  and  N_20 
ROOT
ATOM      1  C   LIG d   1       0.655  81.686 111.828  0.00  0.00     0.161 C 
ATOM      2  C   LIG d   1       1.872  82.142 111.293  0.00  0.00     0.016 C 
ATOM      3  C   LIG d   1       3.099  82.085 111.993  0.00  0.00     0.038 C 
ATOM      4  C   LIG d   1       3.220  81.426 113.226  0.00  0.00     0.028 C 
ATOM      5  C   LIG d   1       1.923  81.398 114.028  0.00  0.00    -0.047 C 
ATOM      6  C   LIG d   1       0.787  80.863 113.126  0.00  0.00     0.091 C 
ENDROOT
BRANCH   1   7
ATOM      7  O   LIG d   1      -0.066  80.937 110.830  0.00  0.00    -0.368 OA
BRANCH   7   8
ATOM      8  C   LIG d   1       0.271  79.532 110.720  0.00  0.00     0.119 C 
BRANCH   8   9
ATOM      9  C   LIG d   1       1.094  79.353 109.430  0.00  0.00     0.028 C 
ATOM     10  C   LIG d   1       2.577  79.061 109.715  0.00  0.00     0.006 C 
ENDBRANCH   8   9
BRANCH   8  11
ATOM     11  C   LIG d   1      -0.981  78.671 110.525  0.00  0.00     0.028 C 
ATOM     12  C   LIG d   1      -1.101  77.550 111.569  0.00  0.00     0.006 C 
ENDBRANCH   8  11
ENDBRANCH   7   8
ENDBRANCH   1   7
BRANCH   6  13
ATOM     13  N   LIG d   1      -0.534  80.882 113.807  0.00  0.00    -0.311 N 
ATOM     14  C   LIG d   1      -1.016  79.852 114.501  0.00  0.00     0.210 C 
ATOM     15  C   LIG d   1      -2.406  80.074 115.106  0.00  0.00     0.109 C 
ATOM     16  O   LIG d   1      -0.410  78.788 114.701  0.00  0.00    -0.276 OA
ATOM     17  H   LIG d   1      -1.078  81.718 113.723  0.00  0.00     0.149 HD
ENDBRANCH   6  13
BRANCH   5  18
ATOM     18  N   LIG d   1       2.155  80.564 115.222  0.00  0.00     0.381 N 
ATOM     19  H   LIG d   1       1.865  81.058 116.042  0.00  0.00    -0.090 HD
ATOM     20  H   LIG d   1       3.139  80.374 115.300  0.00  0.00    -0.090 HD
ATOM     21  H   LIG d   1       1.650  79.709 115.144  0.00  0.00    -0.090 HD
ENDBRANCH   5  18
BRANCH   3  22
ATOM     22  C   LIG d   1       4.214  82.728 111.478  0.00  0.00     0.382 C 
ATOM     23  O   LIG d   1       5.209  82.943 112.212  0.00  0.00    -0.241 OA
ATOM     24  O   LIG d   1       4.221  83.136 110.301  0.00  0.00    -0.241 OA
ENDBRANCH   3  22
TORSDOF 7
ENDMDL
MODEL 5
REMARK VINA RESULT:      -4.5      2.706      5.396
REMARK  7 active torsions:
REMARK  status: ('A' for Active; 'I' for Inactive)
REMARK    1  A    between atoms: C_2  and  C_3 
REMARK    2  A    between atoms: C_3  and  O_6 
REMARK    3  A    between atoms: C_3  and  C_4 
REMARK    4  A    between atoms: C_7  and  O_6 
REMARK    5  A    between atoms: C_9  and  C_10 
REMARK    6  A    between atoms: N_15  and  C_14 
REMARK    7  A    between atoms: N_20  and  C_19 
REMARK       I    between atoms: C_22  and  N_20 
ROOT
ATOM      1  C   LIG d   1       0.946  80.945 112.996  0.00  0.00     0.161 C 
ATOM      2  C   LIG d   1      -0.403  80.860 112.614  0.00  0.00     0.016 C 
ATOM      3  C   LIG d   1      -1.449  80.549 113.513  0.00  0.00     0.038 C 
ATOM      4  C   LIG d   1      -1.233  80.450 114.895  0.00  0.00     0.028 C 
ATOM      5  C   LIG d   1       0.187  80.029 115.258  0.00  0.00    -0.047 C 
ATOM      6  C   LIG d   1       1.186  80.949 114.521  0.00  0.00     0.091 C 
ENDROOT
BRANCH   1   7
ATOM      7  O   LIG d   1       1.554  82.103 112.390  0.00  0.00    -0.368 OA
BRANCH   7   8
ATOM      8  C   LIG d   1       1.956  81.960 111.006  0.00  0.00     0.119 C 
BRANCH   8   9
ATOM      9  C   LIG d   1       3.233  81.098 110.981  0.00  0.00     0.028 C 
ATOM     10  C   LIG d   1       3.067  79.827 110.130  0.00  0.00     0.006 C 
ENDBRANCH   8   9
BRANCH   8  11
ATOM     11  C   LIG d   1       2.365  83.307 110.402  0.00  0.00     0.028 C 
ATOM     12  C   LIG d   1       3.889  83.479 110.307  0.00  0.00     0.006 C 
ENDBRANCH   8  11
ENDBRANCH   7   8
ENDBRANCH   1   7
BRANCH   6  13
ATOM     13  N   LIG d   1       2.600  80.553 114.754  0.00  0.00    -0.311 N 
ATOM     14  C   LIG d   1       3.362  81.083 115.709  0.00  0.00     0.210 C 
ATOM     15  C   LIG d   1       4.796  80.547 115.765  0.00  0.00     0.109 C 
ATOM     16  O   LIG d   1       2.976  81.923 116.537  0.00  0.00    -0.276 OA
ATOM     17  H   LIG d   1       2.984  79.855 114.148  0.00  0.00     0.149 HD
ENDBRANCH   6  13
BRANCH   5  18
ATOM     18  N   LIG d   1       0.311  80.099 116.726  0.00  0.00     0.381 N 
ATOM     19  H   LIG d   1       0.971  80.809 116.977  0.00  0.00    -0.090 HD
ATOM     20  H   LIG d   1       0.652  79.217 117.066  0.00  0.00    -0.090 HD
ATOM     21  H   LIG d   1      -0.575  80.300 117.134  0.00  0.00    -0.090 HD
ENDBRANCH   5  18
BRANCH   3  22
ATOM     22  C   LIG d   1      -2.722  80.295 113.024  0.00  0.00     0.382 C 
ATOM     23  O   LIG d   1      -3.140  79.114 112.950  0.00  0.00    -0.241 OA
ATOM     24  O   LIG d   1      -3.440  81.227 112.617  0.00  0.00    -0.241 OA
ENDBRANCH   3  22
TORSDOF 7
ENDMDL
MODEL 6
REMARK VINA RESULT:      -4.4      2.910      5.223
REMARK  7 active torsions:
REMARK  status: ('A' for Active; 'I' for Inactive)
REMARK    1  A    between atoms: C_2  and  C_3 
REMARK    2  A    between atoms: C_3  and  O_6 
REMARK    3  A    between atoms: C_3  and  C_4 
REMARK    4  A    between atoms: C_7  and  O_6 
REMARK    5  A    between atoms: C_9  and  C_10 
REMARK    6  A    between atoms: N_15  and  C_14 
REMARK    7  A    between atoms: N_20  and  C_19 
REMARK       I    between atoms: C_22  and  N_20 
ROOT
ATOM      1  C   LIG d   1       0.027  79.995 112.690  0.00  0.00     0.161 C 
ATOM      2  C   LIG d   1      -1.129  79.266 112.367  0.00  0.00     0.016 C 
ATOM      3  C   LIG d   1      -1.881  78.537 113.317  0.00  0.00     0.038 C 
ATOM      4  C   LIG d   1      -1.610  78.611 114.691  0.00  0.00     0.028 C 
ATOM      5  C   LIG d   1      -0.152  78.928 115.005  0.00  0.00    -0.047 C 
ATOM      6  C   LIG d   1       0.274  80.179 114.202  0.00  0.00     0.091 C 
ENDROOT
BRANCH   1   7
ATOM      7  O   LIG d   1      -0.001  81.275 112.028  0.00  0.00    -0.368 OA
BRANCH   7   8
ATOM      8  C   LIG d   1       0.574  81.318 110.699  0.00  0.00     0.119 C 
BRANCH   8   9
ATOM      9  C   LIG d   1       2.039  80.854 110.813  0.00  0.00     0.028 C 
ATOM     10  C   LIG d   1       2.966  81.962 111.341  0.00  0.00     0.006 C 
ENDBRANCH   8   9
BRANCH   8  11
ATOM     11  C   LIG d   1       0.643  82.753 110.167  0.00  0.00     0.028 C 
ATOM     12  C   LIG d   1      -0.450  83.659 110.756  0.00  0.00     0.006 C 
ENDBRANCH   8  11
ENDBRANCH   7   8
ENDBRANCH   1   7
BRANCH   6  13
ATOM     13  N   LIG d   1       1.711  80.508 114.386  0.00  0.00    -0.311 N 
ATOM     14  C   LIG d   1       2.155  81.365 115.304  0.00  0.00     0.210 C 
ATOM     15  C   LIG d   1       3.673  81.576 115.312  0.00  0.00     0.109 C 
ATOM     16  O   LIG d   1       1.440  81.946 116.134  0.00  0.00    -0.276 OA
ATOM     17  H   LIG d   1       2.365  80.058 113.776  0.00  0.00     0.149 HD
ENDBRANCH   6  13
BRANCH   5  18
ATOM     18  N   LIG d   1      -0.040  79.113 116.464  0.00  0.00     0.381 N 
ATOM     19  H   LIG d   1      -0.953  79.146 116.873  0.00  0.00    -0.090 HD
ATOM     20  H   LIG d   1       0.419  79.987 116.647  0.00  0.00    -0.090 HD
ATOM     21  H   LIG d   1       0.484  78.365 116.863  0.00  0.00    -0.090 HD
ENDBRANCH   5  18
BRANCH   3  22
ATOM     22  C   LIG d   1      -2.892  77.690 112.890  0.00  0.00     0.382 C 
ATOM     23  O   LIG d   1      -3.232  76.712 113.599  0.00  0.00    -0.241 OA
ATOM     24  O   LIG d   1      -3.438  77.865 111.784  0.00  0.00    -0.241 OA
ENDBRANCH   3  22
TORSDOF 7
ENDMDL
MODEL 7
REMARK VINA RESULT:      -4.2      2.507      4.159
REMARK  7 active torsions:
REMARK  status: ('A' for Active; 'I' for Inactive)
REMARK    1  A    between atoms: C_2  and  C_3 
REMARK    2  A    between atoms: C_3  and  O_6 
REMARK    3  A    between atoms: C_3  and  C_4 
REMARK    4  A    between atoms: C_7  and  O_6 
REMARK    5  A    between atoms: C_9  and  C_10 
REMARK    6  A    between atoms: N_15  and  C_14 
REMARK    7  A    between atoms: N_20  and  C_19 
REMARK       I    between atoms: C_22  and  N_20 
ROOT
ATOM      1  C   LIG d   1       1.088  80.718 112.161  0.00  0.00     0.161 C 
ATOM      2  C   LIG d   1       1.036  81.881 111.375  0.00  0.00     0.016 C 
ATOM      3  C   LIG d   1      -0.098  82.723 111.304  0.00  0.00     0.038 C 
ATOM      4  C   LIG d   1      -1.211  82.538 112.137  0.00  0.00     0.028 C 
ATOM      5  C   LIG d   1      -1.405  81.091 112.577  0.00  0.00    -0.047 C 
ATOM      6  C   LIG d   1      -0.076  80.562 113.162  0.00  0.00     0.091 C 
ENDROOT
BRANCH   1   7
ATOM      7  O   LIG d   1       2.353  80.650 112.849  0.00  0.00    -0.368 OA
BRANCH   7   8
ATOM      8  C   LIG d   1       3.145  81.862 112.848  0.00  0.00     0.119 C 
BRANCH   8   9
ATOM      9  C   LIG d   1       4.556  81.493 112.350  0.00  0.00     0.028 C 
ATOM     10  C   LIG d   1       4.852  82.062 110.952  0.00  0.00     0.006 C 
ENDBRANCH   8   9
BRANCH   8  11
ATOM     11  C   LIG d   1       3.345  82.399 114.269  0.00  0.00     0.028 C 
ATOM     12  C   LIG d   1       3.969  81.361 115.215  0.00  0.00     0.006 C 
ENDBRANCH   8  11
ENDBRANCH   7   8
ENDBRANCH   1   7
BRANCH   6  13
ATOM     13  N   LIG d   1      -0.154  79.127 113.540  0.00  0.00    -0.311 N 
ATOM     14  C   LIG d   1      -0.492  78.707 114.758  0.00  0.00     0.210 C 
ATOM     15  C   LIG d   1      -0.492  77.186 114.941  0.00  0.00     0.109 C 
ATOM     16  O   LIG d   1      -0.822  79.448 115.696  0.00  0.00    -0.276 OA
ATOM     17  H   LIG d   1       0.067  78.456 112.831  0.00  0.00     0.149 HD
ENDBRANCH   6  13
BRANCH   5  18
ATOM     18  N   LIG d   1      -2.515  81.066 113.549  0.00  0.00     0.381 N 
ATOM     19  H   LIG d   1      -2.733  80.120 113.790  0.00  0.00    -0.090 HD
ATOM     20  H   LIG d   1      -3.328  81.478 113.125  0.00  0.00    -0.090 HD
ATOM     21  H   LIG d   1      -2.263  81.576 114.367  0.00  0.00    -0.090 HD
ENDBRANCH   5  18
BRANCH   3  22
ATOM     22  C   LIG d   1      -0.141  83.740 110.362  0.00  0.00     0.382 C 
ATOM     23  O   LIG d   1      -1.079  84.573 110.382  0.00  0.00    -0.241 OA
ATOM     24  O   LIG d   1       0.721  83.808 109.466  0.00  0.00    -0.241 OA
ENDBRANCH   3  22
TORSDOF 7
ENDMDL
MODEL 8
REMARK VINA RESULT:      -4.2      2.226      4.880
REMARK  7 active torsions:
REMARK  status: ('A' for Active; 'I' for Inactive)
REMARK    1  A    between atoms: C_2  and  C_3 
REMARK    2  A    between atoms: C_3  and  O_6 
REMARK    3  A    between atoms: C_3  and  C_4 
REMARK    4  A    between atoms: C_7  and  O_6 
REMARK    5  A    between atoms: C_9  and  C_10 
REMARK    6  A    between atoms: N_15  and  C_14 
REMARK    7  A    between atoms: N_20  and  C_19 
REMARK       I    between atoms: C_22  and  N_20 
ROOT
ATOM      1  C   LIG d   1       1.091  81.142 112.704  0.00  0.00     0.161 C 
ATOM      2  C   LIG d   1      -0.206  81.036 113.233  0.00  0.00     0.016 C 
ATOM      3  C   LIG d   1      -1.242  80.300 112.613  0.00  0.00     0.038 C 
ATOM      4  C   LIG d   1      -1.007  79.490 111.492  0.00  0.00     0.028 C 
ATOM      5  C   LIG d   1       0.161  79.965 110.635  0.00  0.00    -0.047 C 
ATOM      6  C   LIG d   1       1.396  80.174 111.541  0.00  0.00     0.091 C 
ENDROOT
BRANCH   1   7
ATOM      7  O   LIG d   1       2.063  80.982 113.756  0.00  0.00    -0.368 OA
BRANCH   7   8
ATOM      8  C   LIG d   1       2.621  82.204 114.299  0.00  0.00     0.119 C 
BRANCH   8   9
ATOM      9  C   LIG d   1       3.992  82.424 113.629  0.00  0.00     0.028 C 
ATOM     10  C   LIG d   1       4.070  83.765 112.880  0.00  0.00     0.006 C 
ENDBRANCH   8   9
BRANCH   8  11
ATOM     11  C   LIG d   1       2.919  82.064 115.795  0.00  0.00     0.028 C 
ATOM     12  C   LIG d   1       2.181  80.881 116.441  0.00  0.00     0.006 C 
ENDBRANCH   8  11
ENDBRANCH   7   8
ENDBRANCH   1   7
BRANCH   6  13
ATOM     13  N   LIG d   1       2.560  80.720 110.795  0.00  0.00    -0.311 N 
ATOM     14  C   LIG d   1       2.537  81.886 110.151  0.00  0.00     0.210 C 
ATOM     15  C   LIG d   1       3.838  82.251 109.430  0.00  0.00     0.109 C 
ATOM     16  O   LIG d   1       1.574  82.667 110.136  0.00  0.00    -0.276 OA
ATOM     17  H   LIG d   1       3.394  80.166 110.782  0.00  0.00     0.149 HD
ENDBRANCH   6  13
BRANCH   5  18
ATOM     18  N   LIG d   1       0.381  78.956 109.582  0.00  0.00     0.381 N 
ATOM     19  H   LIG d   1       1.258  79.123 109.130  0.00  0.00    -0.090 HD
ATOM     20  H   LIG d   1      -0.348  79.039 108.895  0.00  0.00    -0.090 HD
ATOM     21  H   LIG d   1       0.371  78.042 109.978  0.00  0.00    -0.090 HD
ENDBRANCH   5  18
BRANCH   3  22
ATOM     22  C   LIG d   1      -2.539  80.402 113.092  0.00  0.00     0.382 C 
ATOM     23  O   LIG d   1      -2.923  79.656 114.024  0.00  0.00    -0.241 OA
ATOM     24  O   LIG d   1      -3.343  81.200 112.574  0.00  0.00    -0.241 OA
ENDBRANCH   3  22
TORSDOF 7
ENDMDL
MODEL 9
REMARK VINA RESULT:      -4.2      2.264      4.142
REMARK  7 active torsions:
REMARK  status: ('A' for Active; 'I' for Inactive)
REMARK    1  A    between atoms: C_2  and  C_3 
REMARK    2  A    between atoms: C_3  and  O_6 
REMARK    3  A    between atoms: C_3  and  C_4 
REMARK    4  A    between atoms: C_7  and  O_6 
REMARK    5  A    between atoms: C_9  and  C_10 
REMARK    6  A    between atoms: N_15  and  C_14 
REMARK    7  A    between atoms: N_20  and  C_19 
REMARK       I    between atoms: C_22  and  N_20 
ROOT
ATOM      1  C   LIG d   1       1.117  81.806 112.060  0.00  0.00     0.161 C 
ATOM      2  C   LIG d   1       2.272  82.491 112.472  0.00  0.00     0.016 C 
ATOM      3  C   LIG d   1       2.877  82.305 113.736  0.00  0.00     0.038 C 
ATOM      4  C   LIG d   1       2.453  81.303 114.621  0.00  0.00     0.028 C 
ATOM      5  C   LIG d   1       0.983  80.933 114.458  0.00  0.00    -0.047 C 
ATOM      6  C   LIG d   1       0.705  80.628 112.968  0.00  0.00     0.091 C 
ENDROOT
BRANCH   1   7
ATOM      7  O   LIG d   1       1.275  81.357 110.699  0.00  0.00    -0.368 OA
BRANCH   7   8
ATOM      8  C   LIG d   1       2.283  80.341 110.475  0.00  0.00     0.119 C 
BRANCH   8   9
ATOM      9  C   LIG d   1       3.339  80.938 109.525  0.00  0.00     0.028 C 
ATOM     10  C   LIG d   1       4.739  80.985 110.159  0.00  0.00     0.006 C 
ENDBRANCH   8   9
BRANCH   8  11
ATOM     11  C   LIG d   1       1.703  79.135 109.731  0.00  0.00     0.028 C 
ATOM     12  C   LIG d   1       0.204  79.285 109.430  0.00  0.00     0.006 C 
ENDBRANCH   8  11
ENDBRANCH   7   8
ENDBRANCH   1   7
BRANCH   6  13
ATOM     13  N   LIG d   1      -0.729  80.339 112.706  0.00  0.00    -0.311 N 
ATOM     14  C   LIG d   1      -1.264  79.124 112.816  0.00  0.00     0.210 C 
ATOM     15  C   LIG d   1      -2.757  79.042 112.482  0.00  0.00     0.109 C 
ATOM     16  O   LIG d   1      -0.651  78.113 113.190  0.00  0.00    -0.276 OA
ATOM     17  H   LIG d   1      -1.306  81.108 112.428  0.00  0.00     0.149 HD
ENDBRANCH   6  13
BRANCH   5  18
ATOM     18  N   LIG d   1       0.711  79.785 115.343  0.00  0.00     0.381 N 
ATOM     19  H   LIG d   1       1.537  79.549 115.855  0.00  0.00    -0.090 HD
ATOM     20  H   LIG d   1       0.452  78.995 114.780  0.00  0.00    -0.090 HD
ATOM     21  H   LIG d   1      -0.027  80.009 115.975  0.00  0.00    -0.090 HD
ENDBRANCH   5  18
BRANCH   3  22
ATOM     22  C   LIG d   1       3.895  83.155 114.142  0.00  0.00     0.382 C 
ATOM     23  O   LIG d   1       3.907  83.604 115.313  0.00  0.00    -0.241 OA
ATOM     24  O   LIG d   1       4.777  83.513 113.338  0.00  0.00    -0.241 OA
ENDBRANCH   3  22
TORSDOF 7
ENDMDL
