MODEL 1
REMARK VINA RESULT:      -5.4      0.000      0.000
REMARK  7 active torsions:
REMARK  status: ('A' for Active; 'I' for Inactive)
REMARK    1  A    between atoms: C_2  and  C_3 
REMARK    2  A    between atoms: C_3  and  O_6 
REMARK    3  A    between atoms: C_3  and  C_4 
REMARK    4  A    between atoms: C_7  and  O_6 
REMARK    5  A    between atoms: C_9  and  C_10 
REMARK    6  A    between atoms: N_15  and  C_14 
REMARK    7  A    between atoms: N_20  and  C_19 
REMARK       I    between atoms: C_22  and  N_20 
ROOT
ATOM      1  C   LIG d   1       0.348  82.980 112.195  0.00  0.00     0.161 C 
ATOM      2  C   LIG d   1      -0.854  82.585 112.805  0.00  0.00     0.016 C 
ATOM      3  C   LIG d   1      -1.378  81.275 112.715  0.00  0.00     0.038 C 
ATOM      4  C   LIG d   1      -0.654  80.225 112.130  0.00  0.00     0.028 C 
ATOM      5  C   LIG d   1       0.330  80.689 111.063  0.00  0.00    -0.047 C 
ATOM      6  C   LIG d   1       1.207  81.821 111.646  0.00  0.00     0.091 C 
ENDROOT
BRANCH   1   7
ATOM      7  O   LIG d   1       1.118  83.785 113.109  0.00  0.00    -0.368 OA
BRANCH   7   8
ATOM      8  C   LIG d   1       1.368  83.207 114.414  0.00  0.00     0.119 C 
BRANCH   8   9
ATOM      9  C   LIG d   1       0.800  84.178 115.467  0.00  0.00     0.028 C 
ATOM     10  C   LIG d   1      -0.206  83.498 116.410  0.00  0.00     0.006 C 
ENDBRANCH   8   9
BRANCH   8  11
ATOM     11  C   LIG d   1       2.868  83.121 114.708  0.00  0.00     0.028 C 
ATOM     12  C   LIG d   1       3.715  83.957 113.735  0.00  0.00     0.006 C 
ENDBRANCH   8  11
ENDBRANCH   7   8
ENDBRANCH   1   7
BRANCH   6  13
ATOM     13  N   LIG d   1       2.141  82.391 110.641  0.00  0.00    -0.311 N 
ATOM     14  C   LIG d   1       3.430  82.064 110.571  0.00  0.00     0.210 C 
ATOM     15  C   LIG d   1       4.221  82.782 109.472  0.00  0.00     0.109 C 
ATOM     16  O   LIG d   1       3.988  81.224 111.293  0.00  0.00    -0.276 OA
ATOM     17  H   LIG d   1       1.765  83.057 109.995  0.00  0.00     0.149 HD
ENDBRANCH   6  13
BRANCH   5  18
ATOM     18  N   LIG d   1       1.113  79.514 110.636  0.00  0.00     0.381 N 
ATOM     19  H   LIG d   1       1.329  79.586 109.662  0.00  0.00    -0.090 HD
ATOM     20  H   LIG d   1       0.559  78.687 110.776  0.00  0.00    -0.090 HD
ATOM     21  H   LIG d   1       1.954  79.453 111.167  0.00  0.00    -0.090 HD
ENDBRANCH   5  18
BRANCH   3  22
ATOM     22  C   LIG d   1      -2.658  81.013 113.179  0.00  0.00     0.382 C 
ATOM     23  O   LIG d   1      -3.057  79.829 113.287  0.00  0.00    -0.241 OA
ATOM     24  O   LIG d   1      -3.436  81.949 113.449  0.00  0.00    -0.241 OA
ENDBRANCH   3  22
TORSDOF 7
ENDMDL
MODEL 2
REMARK VINA RESULT:      -5.1      1.659      4.954
REMARK  7 active torsions:
REMARK  status: ('A' for Active; 'I' for Inactive)
REMARK    1  A    between atoms: C_2  and  C_3 
REMARK    2  A    between atoms: C_3  and  O_6 
REMARK    3  A    between atoms: C_3  and  C_4 
REMARK    4  A    between atoms: C_7  and  O_6 
REMARK    5  A    between atoms: C_9  and  C_10 
REMARK    6  A    between atoms: N_15  and  C_14 
REMARK    7  A    between atoms: N_20  and  C_19 
REMARK       I    between atoms: C_22  and  N_20 
ROOT
ATOM      1  C   LIG d   1       1.369  81.043 112.830  0.00  0.00     0.161 C 
ATOM      2  C   LIG d   1       2.519  81.637 112.283  0.00  0.00     0.016 C 
ATOM      3  C   LIG d   1       2.815  81.630 110.901  0.00  0.00     0.038 C 
ATOM      4  C   LIG d   1       1.900  81.157 109.948  0.00  0.00     0.028 C 
ATOM      5  C   LIG d   1       0.952  80.094 110.494  0.00  0.00    -0.047 C 
ATOM      6  C   LIG d   1       0.305  80.620 111.796  0.00  0.00     0.091 C 
ENDROOT
BRANCH   1   7
ATOM      7  O   LIG d   1       0.789  81.920 113.816  0.00  0.00    -0.368 OA
BRANCH   7   8
ATOM      8  C   LIG d   1       1.162  83.317 113.726  0.00  0.00     0.119 C 
BRANCH   8   9
ATOM      9  C   LIG d   1       1.618  83.766 115.127  0.00  0.00     0.028 C 
ATOM     10  C   LIG d   1       3.147  83.726 115.287  0.00  0.00     0.006 C 
ENDBRANCH   8   9
BRANCH   8  11
ATOM     11  C   LIG d   1      -0.047  84.196 113.392  0.00  0.00     0.028 C 
ATOM     12  C   LIG d   1      -0.118  84.571 111.903  0.00  0.00     0.006 C 
ENDBRANCH   8  11
ENDBRANCH   7   8
ENDBRANCH   1   7
BRANCH   6  13
ATOM     13  N   LIG d   1      -0.573  79.609 112.441  0.00  0.00    -0.311 N 
ATOM     14  C   LIG d   1      -1.843  79.843 112.767  0.00  0.00     0.210 C 
ATOM     15  C   LIG d   1      -2.563  78.671 113.441  0.00  0.00     0.109 C 
ATOM     16  O   LIG d   1      -2.451  80.898 112.532  0.00  0.00    -0.276 OA
ATOM     17  H   LIG d   1      -0.169  78.715 112.639  0.00  0.00     0.149 HD
ENDBRANCH   6  13
BRANCH   5  18
ATOM     18  N   LIG d   1      -0.033  79.792 109.439  0.00  0.00     0.381 N 
ATOM     19  H   LIG d   1      -0.231  80.620 108.913  0.00  0.00    -0.090 HD
ATOM     20  H   LIG d   1      -0.886  79.481 109.870  0.00  0.00    -0.090 HD
ATOM     21  H   LIG d   1       0.321  79.083 108.836  0.00  0.00    -0.090 HD
ENDBRANCH   5  18
BRANCH   3  22
ATOM     22  C   LIG d   1       4.057  82.064 110.462  0.00  0.00     0.382 C 
ATOM     23  O   LIG d   1       4.657  82.976 111.081  0.00  0.00    -0.241 OA
ATOM     24  O   LIG d   1       4.565  81.586 109.430  0.00  0.00    -0.241 OA
ENDBRANCH   3  22
TORSDOF 7
ENDMDL
MODEL 3
REMARK VINA RESULT:      -5.1      1.830      4.789
REMARK  7 active torsions:
REMARK  status: ('A' for Active; 'I' for Inactive)
REMARK    1  A    between atoms: C_2  and  C_3 
REMARK    2  A    between atoms: C_3  and  O_6 
REMARK    3  A    between atoms: C_3  and  C_4 
REMARK    4  A    between atoms: C_7  and  O_6 
REMARK    5  A    between atoms: C_9  and  C_10 
REMARK    6  A    between atoms: N_15  and  C_14 
REMARK    7  A    between atoms: N_20  and  C_19 
REMARK       I    between atoms: C_22  and  N_20 
ROOT
ATOM      1  C   LIG d   1       0.764  82.103 112.594  0.00  0.00     0.161 C 
ATOM      2  C   LIG d   1       1.677  81.674 111.616  0.00  0.00     0.016 C 
ATOM      3  C   LIG d   1       1.477  80.526 110.815  0.00  0.00     0.038 C 
ATOM      4  C   LIG d   1       0.272  79.809 110.834  0.00  0.00     0.028 C 
ATOM      5  C   LIG d   1      -0.471  79.908 112.162  0.00  0.00    -0.047 C 
ATOM      6  C   LIG d   1      -0.608  81.397 112.551  0.00  0.00     0.091 C 
ENDROOT
BRANCH   1   7
ATOM      7  O   LIG d   1       0.595  83.532 112.511  0.00  0.00    -0.368 OA
BRANCH   7   8
ATOM      8  C   LIG d   1       1.100  84.299 113.632  0.00  0.00     0.119 C 
BRANCH   8   9
ATOM      9  C   LIG d   1       2.147  83.429 114.354  0.00  0.00     0.028 C 
ATOM     10  C   LIG d   1       3.580  83.950 114.155  0.00  0.00     0.006 C 
ENDBRANCH   8   9
BRANCH   8  11
ATOM     11  C   LIG d   1       0.003  84.557 114.669  0.00  0.00     0.028 C 
ATOM     12  C   LIG d   1       0.316  83.931 116.037  0.00  0.00     0.006 C 
ENDBRANCH   8  11
ENDBRANCH   7   8
ENDBRANCH   1   7
BRANCH   6  13
ATOM     13  N   LIG d   1      -1.248  81.580 113.880  0.00  0.00    -0.311 N 
ATOM     14  C   LIG d   1      -2.555  81.779 114.043  0.00  0.00     0.210 C 
ATOM     15  C   LIG d   1      -3.005  81.963 115.496  0.00  0.00     0.109 C 
ATOM     16  O   LIG d   1      -3.389  81.789 113.125  0.00  0.00    -0.276 OA
ATOM     17  H   LIG d   1      -0.649  81.555 114.682  0.00  0.00     0.149 HD
ENDBRANCH   6  13
BRANCH   5  18
ATOM     18  N   LIG d   1      -1.771  79.231 111.997  0.00  0.00     0.381 N 
ATOM     19  H   LIG d   1      -1.644  78.240 112.036  0.00  0.00    -0.090 HD
ATOM     20  H   LIG d   1      -2.148  79.466 111.096  0.00  0.00    -0.090 HD
ATOM     21  H   LIG d   1      -2.400  79.521 112.714  0.00  0.00    -0.090 HD
ENDBRANCH   5  18
BRANCH   3  22
ATOM     22  C   LIG d   1       2.508  80.061 110.012  0.00  0.00     0.382 C 
ATOM     23  O   LIG d   1       2.398  78.955 109.430  0.00  0.00    -0.241 OA
ATOM     24  O   LIG d   1       3.563  80.713 109.897  0.00  0.00    -0.241 OA
ENDBRANCH   3  22
TORSDOF 7
ENDMDL
MODEL 4
REMARK VINA RESULT:      -5.1      1.601      4.791
REMARK  7 active torsions:
REMARK  status: ('A' for Active; 'I' for Inactive)
REMARK    1  A    between atoms: C_2  and  C_3 
REMARK    2  A    between atoms: C_3  and  O_6 
REMARK    3  A    between atoms: C_3  and  C_4 
REMARK    4  A    between atoms: C_7  and  O_6 
REMARK    5  A    between atoms: C_9  and  C_10 
REMARK    6  A    between atoms: N_15  and  C_14 
REMARK    7  A    between atoms: N_20  and  C_19 
REMARK       I    between atoms: C_22  and  N_20 
ROOT
ATOM      1  C   LIG d   1       0.837  82.396 112.900  0.00  0.00     0.161 C 
ATOM      2  C   LIG d   1       1.954  82.946 112.249  0.00  0.00     0.016 C 
ATOM      3  C   LIG d   1       2.399  82.523 110.976  0.00  0.00     0.038 C 
ATOM      4  C   LIG d   1       1.663  81.619 110.195  0.00  0.00     0.028 C 
ATOM      5  C   LIG d   1       0.805  80.665 111.020  0.00  0.00    -0.047 C 
ATOM      6  C   LIG d   1      -0.044  81.488 112.016  0.00  0.00     0.091 C 
ENDROOT
BRANCH   1   7
ATOM      7  O   LIG d   1       0.043  83.449 113.482  0.00  0.00    -0.368 OA
BRANCH   7   8
ATOM      8  C   LIG d   1      -0.028  83.467 114.929  0.00  0.00     0.119 C 
BRANCH   8   9
ATOM      9  C   LIG d   1      -1.477  83.820 115.317  0.00  0.00     0.028 C 
ATOM     10  C   LIG d   1      -2.033  82.897 116.415  0.00  0.00     0.006 C 
ENDBRANCH   8   9
BRANCH   8  11
ATOM     11  C   LIG d   1       0.833  84.589 115.516  0.00  0.00     0.028 C 
ATOM     12  C   LIG d   1       1.490  84.200 116.850  0.00  0.00     0.006 C 
ENDBRANCH   8  11
ENDBRANCH   7   8
ENDBRANCH   1   7
BRANCH   6  13
ATOM     13  N   LIG d   1      -0.850  80.626 112.920  0.00  0.00    -0.311 N 
ATOM     14  C   LIG d   1      -2.134  80.851 113.195  0.00  0.00     0.210 C 
ATOM     15  C   LIG d   1      -2.771  79.854 114.167  0.00  0.00     0.109 C 
ATOM     16  O   LIG d   1      -2.813  81.764 112.701  0.00  0.00    -0.276 OA
ATOM     17  H   LIG d   1      -0.386  79.845 113.339  0.00  0.00     0.149 HD
ENDBRANCH   6  13
BRANCH   5  18
ATOM     18  N   LIG d   1      -0.011  79.874 110.080  0.00  0.00     0.381 N 
ATOM     19  H   LIG d   1      -0.611  80.481 109.559  0.00  0.00    -0.090 HD
ATOM     20  H   LIG d   1      -0.585  79.237 110.605  0.00  0.00    -0.090 HD
ATOM     21  H   LIG d   1       0.580  79.366 109.460  0.00  0.00    -0.090 HD
ENDBRANCH   5  18
BRANCH   3  22
ATOM     22  C   LIG d   1       3.616  82.976 110.488  0.00  0.00     0.382 C 
ATOM     23  O   LIG d   1       3.654  83.655 109.434  0.00  0.00    -0.241 OA
ATOM     24  O   LIG d   1       4.678  82.676 111.064  0.00  0.00    -0.241 OA
ENDBRANCH   3  22
TORSDOF 7
ENDMDL
MODEL 5
REMARK VINA RESULT:      -4.9      1.891      4.920
REMARK  7 active torsions:
REMARK  status: ('A' for Active; 'I' for Inactive)
REMARK    1  A    between atoms: C_2  and  C_3 
REMARK    2  A    between atoms: C_3  and  O_6 
REMARK    3  A    between atoms: C_3  and  C_4 
REMARK    4  A    between atoms: C_7  and  O_6 
REMARK    5  A    between atoms: C_9  and  C_10 
REMARK    6  A    between atoms: N_15  and  C_14 
REMARK    7  A    between atoms: N_20  and  C_19 
REMARK       I    between atoms: C_22  and  N_20 
ROOT
ATOM      1  C   LIG d   1       1.056  80.956 112.968  0.00  0.00     0.161 C 
ATOM      2  C   LIG d   1       2.178  81.682 112.535  0.00  0.00     0.016 C 
ATOM      3  C   LIG d   1       2.575  81.766 111.180  0.00  0.00     0.038 C 
ATOM      4  C   LIG d   1       1.785  81.250 110.142  0.00  0.00     0.028 C 
ATOM      5  C   LIG d   1       0.910  80.077 110.572  0.00  0.00    -0.047 C 
ATOM      6  C   LIG d   1       0.119  80.479 111.838  0.00  0.00     0.091 C 
ENDROOT
BRANCH   1   7
ATOM      7  O   LIG d   1       0.320  81.727 113.937  0.00  0.00    -0.368 OA
BRANCH   7   8
ATOM      8  C   LIG d   1       0.902  81.809 115.261  0.00  0.00     0.119 C 
BRANCH   8   9
ATOM      9  C   LIG d   1       0.589  80.486 115.988  0.00  0.00     0.028 C 
ATOM     10  C   LIG d   1      -0.921  80.248 116.148  0.00  0.00     0.006 C 
ENDBRANCH   8   9
BRANCH   8  11
ATOM     11  C   LIG d   1       0.230  82.901 116.099  0.00  0.00     0.028 C 
ATOM     12  C   LIG d   1       0.388  84.302 115.489  0.00  0.00     0.006 C 
ENDBRANCH   8  11
ENDBRANCH   7   8
ENDBRANCH   1   7
BRANCH   6  13
ATOM     13  N   LIG d   1      -0.699  79.360 112.374  0.00  0.00    -0.311 N 
ATOM     14  C   LIG d   1      -1.980  79.486 112.716  0.00  0.00     0.210 C 
ATOM     15  C   LIG d   1      -2.631  78.213 113.266  0.00  0.00     0.109 C 
ATOM     16  O   LIG d   1      -2.647  80.523 112.587  0.00  0.00    -0.276 OA
ATOM     17  H   LIG d   1      -0.245  78.474 112.483  0.00  0.00     0.149 HD
ENDBRANCH   6  13
BRANCH   5  18
ATOM     18  N   LIG d   1       0.041  79.729 109.433  0.00  0.00     0.381 N 
ATOM     19  H   LIG d   1      -0.807  80.258 109.479  0.00  0.00    -0.090 HD
ATOM     20  H   LIG d   1      -0.193  78.753 109.489  0.00  0.00    -0.090 HD
ATOM     21  H   LIG d   1       0.511  79.916 108.575  0.00  0.00    -0.090 HD
ENDBRANCH   5  18
BRANCH   3  22
ATOM     22  C   LIG d   1       3.797  82.337 110.857  0.00  0.00     0.382 C 
ATOM     23  O   LIG d   1       4.275  82.186 109.707  0.00  0.00    -0.241 OA
ATOM     24  O   LIG d   1       4.447  82.965 111.714  0.00  0.00    -0.241 OA
ENDBRANCH   3  22
TORSDOF 7
ENDMDL
MODEL 6
REMARK VINA RESULT:      -4.7      2.131      3.181
REMARK  7 active torsions:
REMARK  status: ('A' for Active; 'I' for Inactive)
REMARK    1  A    between atoms: C_2  and  C_3 
REMARK    2  A    between atoms: C_3  and  O_6 
REMARK    3  A    between atoms: C_3  and  C_4 
REMARK    4  A    between atoms: C_7  and  O_6 
REMARK    5  A    between atoms: C_9  and  C_10 
REMARK    6  A    between atoms: N_15  and  C_14 
REMARK    7  A    between atoms: N_20  and  C_19 
REMARK       I    between atoms: C_22  and  N_20 
ROOT
ATOM      1  C   LIG d   1      -2.325  81.669 113.238  0.00  0.00     0.161 C 
ATOM      2  C   LIG d   1      -2.758  80.447 113.781  0.00  0.00     0.016 C 
ATOM      3  C   LIG d   1      -2.093  79.219 113.561  0.00  0.00     0.038 C 
ATOM      4  C   LIG d   1      -0.857  79.152 112.901  0.00  0.00     0.028 C 
ATOM      5  C   LIG d   1      -0.641  80.285 111.904  0.00  0.00    -0.047 C 
ATOM      6  C   LIG d   1      -0.917  81.633 112.608  0.00  0.00     0.091 C 
ENDROOT
BRANCH   1   7
ATOM      7  O   LIG d   1      -2.400  82.703 114.239  0.00  0.00    -0.368 OA
BRANCH   7   8
ATOM      8  C   LIG d   1      -1.635  82.476 115.448  0.00  0.00     0.119 C 
BRANCH   8   9
ATOM      9  C   LIG d   1      -2.597  82.631 116.641  0.00  0.00     0.028 C 
ATOM     10  C   LIG d   1      -1.855  82.752 117.983  0.00  0.00     0.006 C 
ENDBRANCH   8   9
BRANCH   8  11
ATOM     11  C   LIG d   1      -0.569  83.559 115.644  0.00  0.00     0.028 C 
ATOM     12  C   LIG d   1       0.863  83.017 115.509  0.00  0.00     0.006 C 
ENDBRANCH   8  11
ENDBRANCH   7   8
ENDBRANCH   1   7
BRANCH   6  13
ATOM     13  N   LIG d   1      -0.810  82.789 111.680  0.00  0.00    -0.311 N 
ATOM     14  C   LIG d   1       0.312  83.484 111.500  0.00  0.00     0.210 C 
ATOM     15  C   LIG d   1       0.199  84.650 110.514  0.00  0.00     0.109 C 
ATOM     16  O   LIG d   1       1.398  83.225 112.040  0.00  0.00    -0.276 OA
ATOM     17  H   LIG d   1      -1.636  83.049 111.178  0.00  0.00     0.149 HD
ENDBRANCH   6  13
BRANCH   5  18
ATOM     18  N   LIG d   1       0.737  80.171 111.392  0.00  0.00     0.381 N 
ATOM     19  H   LIG d   1       0.722  80.072 110.396  0.00  0.00    -0.090 HD
ATOM     20  H   LIG d   1       1.163  79.350 111.784  0.00  0.00    -0.090 HD
ATOM     21  H   LIG d   1       1.263  80.980 111.644  0.00  0.00    -0.090 HD
ENDBRANCH   5  18
BRANCH   3  22
ATOM     22  C   LIG d   1      -2.687  78.034 113.969  0.00  0.00     0.382 C 
ATOM     23  O   LIG d   1      -3.440  78.023 114.973  0.00  0.00    -0.241 OA
ATOM     24  O   LIG d   1      -2.445  76.968 113.372  0.00  0.00    -0.241 OA
ENDBRANCH   3  22
TORSDOF 7
ENDMDL
MODEL 7
REMARK VINA RESULT:      -4.2      2.538      5.281
REMARK  7 active torsions:
REMARK  status: ('A' for Active; 'I' for Inactive)
REMARK    1  A    between atoms: C_2  and  C_3 
REMARK    2  A    between atoms: C_3  and  O_6 
REMARK    3  A    between atoms: C_3  and  C_4 
REMARK    4  A    between atoms: C_7  and  O_6 
REMARK    5  A    between atoms: C_9  and  C_10 
REMARK    6  A    between atoms: N_15  and  C_14 
REMARK    7  A    between atoms: N_20  and  C_19 
REMARK       I    between atoms: C_22  and  N_20 
ROOT
ATOM      1  C   LIG d   1       0.619  80.654 114.153  0.00  0.00     0.161 C 
ATOM      2  C   LIG d   1       1.318  80.934 112.967  0.00  0.00     0.016 C 
ATOM      3  C   LIG d   1       0.858  80.554 111.685  0.00  0.00     0.038 C 
ATOM      4  C   LIG d   1      -0.414  79.997 111.488  0.00  0.00     0.028 C 
ATOM      5  C   LIG d   1      -0.937  79.238 112.703  0.00  0.00    -0.047 C 
ATOM      6  C   LIG d   1      -0.824  80.145 113.949  0.00  0.00     0.091 C 
ENDROOT
BRANCH   1   7
ATOM      7  O   LIG d   1       0.625  81.813 115.009  0.00  0.00    -0.368 OA
BRANCH   7   8
ATOM      8  C   LIG d   1      -0.370  82.826 114.718  0.00  0.00     0.119 C 
BRANCH   8   9
ATOM      9  C   LIG d   1       0.380  84.101 114.288  0.00  0.00     0.028 C 
ATOM     10  C   LIG d   1       0.015  84.544 112.861  0.00  0.00     0.006 C 
ENDBRANCH   8   9
BRANCH   8  11
ATOM     11  C   LIG d   1      -1.150  83.219 115.976  0.00  0.00     0.028 C 
ATOM     12  C   LIG d   1      -2.670  83.235 115.754  0.00  0.00     0.006 C 
ENDBRANCH   8  11
ENDBRANCH   7   8
ENDBRANCH   1   7
BRANCH   6  13
ATOM     13  N   LIG d   1      -1.237  79.450 115.196  0.00  0.00    -0.311 N 
ATOM     14  C   LIG d   1      -2.481  79.475 115.672  0.00  0.00     0.210 C 
ATOM     15  C   LIG d   1      -2.687  78.709 116.982  0.00  0.00     0.109 C 
ATOM     16  O   LIG d   1      -3.440  80.031 115.116  0.00  0.00    -0.276 OA
ATOM     17  H   LIG d   1      -0.528  78.948 115.694  0.00  0.00     0.149 HD
ENDBRANCH   6  13
BRANCH   5  18
ATOM     18  N   LIG d   1      -2.324  78.829 112.409  0.00  0.00     0.381 N 
ATOM     19  H   LIG d   1      -2.377  78.451 111.484  0.00  0.00    -0.090 HD
ATOM     20  H   LIG d   1      -2.918  79.638 112.454  0.00  0.00    -0.090 HD
ATOM     21  H   LIG d   1      -2.627  78.149 113.072  0.00  0.00    -0.090 HD
ENDBRANCH   5  18
BRANCH   3  22
ATOM     22  C   LIG d   1       1.693  80.694 110.587  0.00  0.00     0.382 C 
ATOM     23  O   LIG d   1       1.213  81.003 109.470  0.00  0.00    -0.241 OA
ATOM     24  O   LIG d   1       2.915  80.472 110.689  0.00  0.00    -0.241 OA
ENDBRANCH   3  22
TORSDOF 7
ENDMDL
MODEL 8
REMARK VINA RESULT:      -4.2      2.098      4.839
REMARK  7 active torsions:
REMARK  status: ('A' for Active; 'I' for Inactive)
REMARK    1  A    between atoms: C_2  and  C_3 
REMARK    2  A    between atoms: C_3  and  O_6 
REMARK    3  A    between atoms: C_3  and  C_4 
REMARK    4  A    between atoms: C_7  and  O_6 
REMARK    5  A    between atoms: C_9  and  C_10 
REMARK    6  A    between atoms: N_15  and  C_14 
REMARK    7  A    between atoms: N_20  and  C_19 
REMARK       I    between atoms: C_22  and  N_20 
ROOT
ATOM      1  C   LIG d   1       0.837  81.625 114.308  0.00  0.00     0.161 C 
ATOM      2  C   LIG d   1       1.843  81.519 113.333  0.00  0.00     0.016 C 
ATOM      3  C   LIG d   1       1.635  80.940 112.060  0.00  0.00     0.038 C 
ATOM      4  C   LIG d   1       0.359  80.563 111.617  0.00  0.00     0.028 C 
ATOM      5  C   LIG d   1      -0.589  80.187 112.751  0.00  0.00    -0.047 C 
ATOM      6  C   LIG d   1      -0.588  81.320 113.802  0.00  0.00     0.091 C 
ENDROOT
BRANCH   1   7
ATOM      7  O   LIG d   1       0.884  82.930 114.918  0.00  0.00    -0.368 OA
BRANCH   7   8
ATOM      8  C   LIG d   1       1.451  82.991 116.250  0.00  0.00     0.119 C 
BRANCH   8   9
ATOM      9  C   LIG d   1       0.558  83.925 117.091  0.00  0.00     0.028 C 
ATOM     10  C   LIG d   1      -0.607  83.176 117.761  0.00  0.00     0.006 C 
ENDBRANCH   8   9
BRANCH   8  11
ATOM     11  C   LIG d   1       2.831  83.654 116.238  0.00  0.00     0.028 C 
ATOM     12  C   LIG d   1       2.991  84.677 115.102  0.00  0.00     0.006 C 
ENDBRANCH   8  11
ENDBRANCH   7   8
ENDBRANCH   1   7
BRANCH   6  13
ATOM     13  N   LIG d   1      -1.426  80.995 114.986  0.00  0.00    -0.311 N 
ATOM     14  C   LIG d   1      -2.678  81.422 115.138  0.00  0.00     0.210 C 
ATOM     15  C   LIG d   1      -3.356  80.989 116.442  0.00  0.00     0.109 C 
ATOM     16  O   LIG d   1      -3.303  82.092 114.302  0.00  0.00    -0.276 OA
ATOM     17  H   LIG d   1      -1.008  80.430 115.699  0.00  0.00     0.149 HD
ENDBRANCH   6  13
BRANCH   5  18
ATOM     18  N   LIG d   1      -1.919  79.948 112.159  0.00  0.00     0.381 N 
ATOM     19  H   LIG d   1      -2.627  80.344 112.745  0.00  0.00    -0.090 HD
ATOM     20  H   LIG d   1      -2.076  78.958 112.100  0.00  0.00    -0.090 HD
ATOM     21  H   LIG d   1      -1.965  80.354 111.250  0.00  0.00    -0.090 HD
ENDBRANCH   5  18
BRANCH   3  22
ATOM     22  C   LIG d   1       2.719  80.698 111.230  0.00  0.00     0.382 C 
ATOM     23  O   LIG d   1       3.820  81.257 111.457  0.00  0.00    -0.241 OA
ATOM     24  O   LIG d   1       2.599  79.962 110.232  0.00  0.00    -0.241 OA
ENDBRANCH   3  22
TORSDOF 7
ENDMDL
MODEL 9
REMARK VINA RESULT:      -4.0      1.881      2.521
REMARK  7 active torsions:
REMARK  status: ('A' for Active; 'I' for Inactive)
REMARK    1  A    between atoms: C_2  and  C_3 
REMARK    2  A    between atoms: C_3  and  O_6 
REMARK    3  A    between atoms: C_3  and  C_4 
REMARK    4  A    between atoms: C_7  and  O_6 
REMARK    5  A    between atoms: C_9  and  C_10 
REMARK    6  A    between atoms: N_15  and  C_14 
REMARK    7  A    between atoms: N_20  and  C_19 
REMARK       I    between atoms: C_22  and  N_20 
ROOT
ATOM      1  C   LIG d   1       1.078  81.465 113.516  0.00  0.00     0.161 C 
ATOM      2  C   LIG d   1       0.157  80.450 113.822  0.00  0.00     0.016 C 
ATOM      3  C   LIG d   1      -0.578  79.744 112.842  0.00  0.00     0.038 C 
ATOM      4  C   LIG d   1      -0.328  79.903 111.471  0.00  0.00     0.028 C 
ATOM      5  C   LIG d   1       0.232  81.275 111.112  0.00  0.00    -0.047 C 
ATOM      6  C   LIG d   1       1.446  81.575 112.021  0.00  0.00     0.091 C 
ENDROOT
BRANCH   1   7
ATOM      7  O   LIG d   1       2.268  81.303 114.313  0.00  0.00    -0.368 OA
BRANCH   7   8
ATOM      8  C   LIG d   1       2.426  82.228 115.417  0.00  0.00     0.119 C 
BRANCH   8   9
ATOM      9  C   LIG d   1       3.557  83.206 115.044  0.00  0.00     0.028 C 
ATOM     10  C   LIG d   1       3.121  84.676 115.153  0.00  0.00     0.006 C 
ENDBRANCH   8   9
BRANCH   8  11
ATOM     11  C   LIG d   1       2.911  81.510 116.680  0.00  0.00     0.028 C 
ATOM     12  C   LIG d   1       2.417  80.057 116.767  0.00  0.00     0.006 C 
ENDBRANCH   8  11
ENDBRANCH   7   8
ENDBRANCH   1   7
BRANCH   6  13
ATOM     13  N   LIG d   1       2.002  82.935 111.793  0.00  0.00    -0.311 N 
ATOM     14  C   LIG d   1       3.280  83.164 111.496  0.00  0.00     0.210 C 
ATOM     15  C   LIG d   1       3.649  84.640 111.321  0.00  0.00     0.109 C 
ATOM     16  O   LIG d   1       4.136  82.282 111.329  0.00  0.00    -0.276 OA
ATOM     17  H   LIG d   1       1.370  83.706 111.879  0.00  0.00     0.149 HD
ENDBRANCH   6  13
BRANCH   5  18
ATOM     18  N   LIG d   1       0.575  81.256 109.677  0.00  0.00     0.381 N 
ATOM     19  H   LIG d   1       0.505  82.180 109.300  0.00  0.00    -0.090 HD
ATOM     20  H   LIG d   1      -0.081  80.668 109.194  0.00  0.00    -0.090 HD
ATOM     21  H   LIG d   1       1.499  80.907 109.552  0.00  0.00    -0.090 HD
ENDBRANCH   5  18
BRANCH   3  22
ATOM     22  C   LIG d   1      -1.604  78.896 113.231  0.00  0.00     0.382 C 
ATOM     23  O   LIG d   1      -2.790  79.306 113.230  0.00  0.00    -0.241 OA
ATOM     24  O   LIG d   1      -1.354  77.741 113.624  0.00  0.00    -0.241 OA
ENDBRANCH   3  22
TORSDOF 7
ENDMDL
