MODEL 1
REMARK VINA RESULT:      -4.9      0.000      0.000
REMARK  7 active torsions:
REMARK  status: ('A' for Active; 'I' for Inactive)
REMARK    1  A    between atoms: C_2  and  C_3 
REMARK    2  A    between atoms: C_3  and  O_6 
REMARK    3  A    between atoms: C_3  and  C_4 
REMARK    4  A    between atoms: C_7  and  O_6 
REMARK    5  A    between atoms: C_9  and  C_10 
REMARK    6  A    between atoms: N_15  and  C_14 
REMARK    7  A    between atoms: N_20  and  C_19 
REMARK       I    between atoms: C_22  and  N_20 
ROOT
ATOM      1  C   LIG d   1       0.493  83.064 112.122  0.00  0.00     0.161 C 
ATOM      2  C   LIG d   1      -0.762  82.764 112.678  0.00  0.00     0.016 C 
ATOM      3  C   LIG d   1      -1.487  81.589 112.375  0.00  0.00     0.038 C 
ATOM      4  C   LIG d   1      -0.934  80.554 111.606  0.00  0.00     0.028 C 
ATOM      5  C   LIG d   1       0.121  81.034 110.615  0.00  0.00    -0.047 C 
ATOM      6  C   LIG d   1       1.161  81.895 111.367  0.00  0.00     0.091 C 
ENDROOT
BRANCH   1   7
ATOM      7  O   LIG d   1       1.374  83.567 113.145  0.00  0.00    -0.368 OA
BRANCH   7   8
ATOM      8  C   LIG d   1       1.186  83.020 114.474  0.00  0.00     0.119 C 
BRANCH   8   9
ATOM      9  C   LIG d   1       1.152  84.203 115.461  0.00  0.00     0.028 C 
ATOM     10  C   LIG d   1      -0.203  84.329 116.179  0.00  0.00     0.006 C 
ENDBRANCH   8   9
BRANCH   8  11
ATOM     11  C   LIG d   1       2.386  82.170 114.901  0.00  0.00     0.028 C 
ATOM     12  C   LIG d   1       2.159  80.666 114.683  0.00  0.00     0.006 C 
ENDBRANCH   8  11
ENDBRANCH   7   8
ENDBRANCH   1   7
BRANCH   6  13
ATOM     13  N   LIG d   1       2.183  82.474 110.456  0.00  0.00    -0.311 N 
ATOM     14  C   LIG d   1       3.488  82.239 110.574  0.00  0.00     0.210 C 
ATOM     15  C   LIG d   1       4.370  82.951 109.543  0.00  0.00     0.109 C 
ATOM     16  O   LIG d   1       3.997  81.483 111.416  0.00  0.00    -0.276 OA
ATOM     17  H   LIG d   1       1.854  83.075 109.725  0.00  0.00     0.149 HD
ENDBRANCH   6  13
BRANCH   5  18
ATOM     18  N   LIG d   1       0.710  79.841 109.978  0.00  0.00     0.381 N 
ATOM     19  H   LIG d   1       0.471  79.024 110.504  0.00  0.00    -0.090 HD
ATOM     20  H   LIG d   1       1.710  79.934 109.976  0.00  0.00    -0.090 HD
ATOM     21  H   LIG d   1       0.375  79.752 109.044  0.00  0.00    -0.090 HD
ENDBRANCH   5  18
BRANCH   3  22
ATOM     22  C   LIG d   1      -2.796  81.457 112.812  0.00  0.00     0.382 C 
ATOM     23  O   LIG d   1      -3.358  80.336 112.781  0.00  0.00    -0.241 OA
ATOM     24  O   LIG d   1      -3.437  82.454 113.195  0.00  0.00    -0.241 OA
ENDBRANCH   3  22
TORSDOF 7
ENDMDL
MODEL 2
REMARK VINA RESULT:      -4.8      1.111      1.718
REMARK  7 active torsions:
REMARK  status: ('A' for Active; 'I' for Inactive)
REMARK    1  A    between atoms: C_2  and  C_3 
REMARK    2  A    between atoms: C_3  and  O_6 
REMARK    3  A    between atoms: C_3  and  C_4 
REMARK    4  A    between atoms: C_7  and  O_6 
REMARK    5  A    between atoms: C_9  and  C_10 
REMARK    6  A    between atoms: N_15  and  C_14 
REMARK    7  A    between atoms: N_20  and  C_19 
REMARK       I    between atoms: C_22  and  N_20 
ROOT
ATOM      1  C   LIG d   1       0.687  82.833 112.297  0.00  0.00     0.161 C 
ATOM      2  C   LIG d   1      -0.590  82.549 112.809  0.00  0.00     0.016 C 
ATOM      3  C   LIG d   1      -1.390  81.475 112.353  0.00  0.00     0.038 C 
ATOM      4  C   LIG d   1      -0.900  80.516 111.454  0.00  0.00     0.028 C 
ATOM      5  C   LIG d   1       0.194  81.048 110.536  0.00  0.00    -0.047 C 
ATOM      6  C   LIG d   1       1.282  81.731 111.396  0.00  0.00     0.091 C 
ENDROOT
BRANCH   1   7
ATOM      7  O   LIG d   1       1.589  83.137 113.379  0.00  0.00    -0.368 OA
BRANCH   7   8
ATOM      8  C   LIG d   1       2.321  82.016 113.933  0.00  0.00     0.119 C 
BRANCH   8   9
ATOM      9  C   LIG d   1       1.858  81.836 115.392  0.00  0.00     0.028 C 
ATOM     10  C   LIG d   1       2.037  80.392 115.891  0.00  0.00     0.006 C 
ENDBRANCH   8   9
BRANCH   8  11
ATOM     11  C   LIG d   1       3.821  82.317 114.018  0.00  0.00     0.028 C 
ATOM     12  C   LIG d   1       4.184  83.699 113.453  0.00  0.00     0.006 C 
ENDBRANCH   8  11
ENDBRANCH   7   8
ENDBRANCH   1   7
BRANCH   6  13
ATOM     13  N   LIG d   1       2.350  82.354 110.570  0.00  0.00    -0.311 N 
ATOM     14  C   LIG d   1       3.499  81.747 110.279  0.00  0.00     0.210 C 
ATOM     15  C   LIG d   1       4.470  82.575 109.430  0.00  0.00     0.109 C 
ATOM     16  O   LIG d   1       3.793  80.591 110.615  0.00  0.00    -0.276 OA
ATOM     17  H   LIG d   1       2.181  83.280 110.229  0.00  0.00     0.149 HD
ENDBRANCH   6  13
BRANCH   5  18
ATOM     18  N   LIG d   1       0.708  79.912 109.749  0.00  0.00     0.381 N 
ATOM     19  H   LIG d   1      -0.020  79.543 109.171  0.00  0.00    -0.090 HD
ATOM     20  H   LIG d   1       1.007  79.189 110.379  0.00  0.00    -0.090 HD
ATOM     21  H   LIG d   1       1.473  80.207 109.183  0.00  0.00    -0.090 HD
ENDBRANCH   5  18
BRANCH   3  22
ATOM     22  C   LIG d   1      -2.709  81.377 112.767  0.00  0.00     0.382 C 
ATOM     23  O   LIG d   1      -3.328  82.403 113.140  0.00  0.00    -0.241 OA
ATOM     24  O   LIG d   1      -3.276  80.269 112.815  0.00  0.00    -0.241 OA
ENDBRANCH   3  22
TORSDOF 7
ENDMDL
MODEL 3
REMARK VINA RESULT:      -4.6      2.080      4.794
REMARK  7 active torsions:
REMARK  status: ('A' for Active; 'I' for Inactive)
REMARK    1  A    between atoms: C_2  and  C_3 
REMARK    2  A    between atoms: C_3  and  O_6 
REMARK    3  A    between atoms: C_3  and  C_4 
REMARK    4  A    between atoms: C_7  and  O_6 
REMARK    5  A    between atoms: C_9  and  C_10 
REMARK    6  A    between atoms: N_15  and  C_14 
REMARK    7  A    between atoms: N_20  and  C_19 
REMARK       I    between atoms: C_22  and  N_20 
ROOT
ATOM      1  C   LIG d   1      -0.006  82.001 112.950  0.00  0.00     0.161 C 
ATOM      2  C   LIG d   1       0.819  82.935 112.300  0.00  0.00     0.016 C 
ATOM      3  C   LIG d   1       1.178  82.839 110.936  0.00  0.00     0.038 C 
ATOM      4  C   LIG d   1       0.610  81.879 110.085  0.00  0.00     0.028 C 
ATOM      5  C   LIG d   1       0.166  80.613 110.811  0.00  0.00    -0.047 C 
ATOM      6  C   LIG d   1      -0.724  81.009 112.011  0.00  0.00     0.091 C 
ENDROOT
BRANCH   1   7
ATOM      7  O   LIG d   1      -0.963  82.689 113.779  0.00  0.00    -0.368 OA
BRANCH   7   8
ATOM      8  C   LIG d   1      -0.785  82.547 115.210  0.00  0.00     0.119 C 
BRANCH   8   9
ATOM      9  C   LIG d   1      -2.153  82.175 115.813  0.00  0.00     0.028 C 
ATOM     10  C   LIG d   1      -3.292  83.053 115.268  0.00  0.00     0.006 C 
ENDBRANCH   8   9
BRANCH   8  11
ATOM     11  C   LIG d   1      -0.405  83.882 115.859  0.00  0.00     0.028 C 
ATOM     12  C   LIG d   1      -0.050  83.741 117.348  0.00  0.00     0.006 C 
ENDBRANCH   8  11
ENDBRANCH   7   8
ENDBRANCH   1   7
BRANCH   6  13
ATOM     13  N   LIG d   1      -1.133  79.835 112.825  0.00  0.00    -0.311 N 
ATOM     14  C   LIG d   1      -2.396  79.576 113.156  0.00  0.00     0.210 C 
ATOM     15  C   LIG d   1      -2.596  78.325 114.018  0.00  0.00     0.109 C 
ATOM     16  O   LIG d   1      -3.374  80.246 112.791  0.00  0.00    -0.276 OA
ATOM     17  H   LIG d   1      -0.406  79.221 113.138  0.00  0.00     0.149 HD
ENDBRANCH   6  13
BRANCH   5  18
ATOM     18  N   LIG d   1      -0.530  79.758 109.831  0.00  0.00     0.381 N 
ATOM     19  H   LIG d   1       0.130  79.166 109.368  0.00  0.00    -0.090 HD
ATOM     20  H   LIG d   1      -0.967  80.344 109.141  0.00  0.00    -0.090 HD
ATOM     21  H   LIG d   1      -1.219  79.204 110.291  0.00  0.00    -0.090 HD
ENDBRANCH   5  18
BRANCH   3  22
ATOM     22  C   LIG d   1       2.146  83.687 110.419  0.00  0.00     0.382 C 
ATOM     23  O   LIG d   1       3.316  83.651 110.870  0.00  0.00    -0.241 OA
ATOM     24  O   LIG d   1       1.853  84.517 109.538  0.00  0.00    -0.241 OA
ENDBRANCH   3  22
TORSDOF 7
ENDMDL
MODEL 4
REMARK VINA RESULT:      -4.6      2.229      3.780
REMARK  7 active torsions:
REMARK  status: ('A' for Active; 'I' for Inactive)
REMARK    1  A    between atoms: C_2  and  C_3 
REMARK    2  A    between atoms: C_3  and  O_6 
REMARK    3  A    between atoms: C_3  and  C_4 
REMARK    4  A    between atoms: C_7  and  O_6 
REMARK    5  A    between atoms: C_9  and  C_10 
REMARK    6  A    between atoms: N_15  and  C_14 
REMARK    7  A    between atoms: N_20  and  C_19 
REMARK       I    between atoms: C_22  and  N_20 
ROOT
ATOM      1  C   LIG d   1       0.611  80.972 112.350  0.00  0.00     0.161 C 
ATOM      2  C   LIG d   1      -0.745  81.332 112.284  0.00  0.00     0.016 C 
ATOM      3  C   LIG d   1      -1.421  82.016 113.320  0.00  0.00     0.038 C 
ATOM      4  C   LIG d   1      -0.742  82.525 114.438  0.00  0.00     0.028 C 
ATOM      5  C   LIG d   1       0.523  81.748 114.784  0.00  0.00    -0.047 C 
ATOM      6  C   LIG d   1       1.394  81.616 113.513  0.00  0.00     0.091 C 
ENDROOT
BRANCH   1   7
ATOM      7  O   LIG d   1       1.255  81.259 111.093  0.00  0.00    -0.368 OA
BRANCH   7   8
ATOM      8  C   LIG d   1       1.806  82.591 110.949  0.00  0.00     0.119 C 
BRANCH   8   9
ATOM      9  C   LIG d   1       1.050  83.282 109.797  0.00  0.00     0.028 C 
ATOM     10  C   LIG d   1       0.053  84.339 110.300  0.00  0.00     0.006 C 
ENDBRANCH   8   9
BRANCH   8  11
ATOM     11  C   LIG d   1       3.270  82.544 110.502  0.00  0.00     0.028 C 
ATOM     12  C   LIG d   1       3.752  81.118 110.190  0.00  0.00     0.006 C 
ENDBRANCH   8  11
ENDBRANCH   7   8
ENDBRANCH   1   7
BRANCH   6  13
ATOM     13  N   LIG d   1       2.612  80.796 113.744  0.00  0.00    -0.311 N 
ATOM     14  C   LIG d   1       3.807  81.319 114.015  0.00  0.00     0.210 C 
ATOM     15  C   LIG d   1       4.933  80.297 114.198  0.00  0.00     0.109 C 
ATOM     16  O   LIG d   1       4.035  82.530 114.152  0.00  0.00    -0.276 OA
ATOM     17  H   LIG d   1       2.512  79.802 113.682  0.00  0.00     0.149 HD
ENDBRANCH   6  13
BRANCH   5  18
ATOM     18  N   LIG d   1       1.202  82.466 115.879  0.00  0.00     0.381 N 
ATOM     19  H   LIG d   1       2.158  82.630 115.634  0.00  0.00    -0.090 HD
ATOM     20  H   LIG d   1       1.181  81.894 116.705  0.00  0.00    -0.090 HD
ATOM     21  H   LIG d   1       0.743  83.332 116.054  0.00  0.00    -0.090 HD
ENDBRANCH   5  18
BRANCH   3  22
ATOM     22  C   LIG d   1      -2.798  82.163 113.263  0.00  0.00     0.382 C 
ATOM     23  O   LIG d   1      -3.439  81.692 112.293  0.00  0.00    -0.241 OA
ATOM     24  O   LIG d   1      -3.403  82.800 114.146  0.00  0.00    -0.241 OA
ENDBRANCH   3  22
TORSDOF 7
ENDMDL
MODEL 5
REMARK VINA RESULT:      -4.5      1.116      1.746
REMARK  7 active torsions:
REMARK  status: ('A' for Active; 'I' for Inactive)
REMARK    1  A    between atoms: C_2  and  C_3 
REMARK    2  A    between atoms: C_3  and  O_6 
REMARK    3  A    between atoms: C_3  and  C_4 
REMARK    4  A    between atoms: C_7  and  O_6 
REMARK    5  A    between atoms: C_9  and  C_10 
REMARK    6  A    between atoms: N_15  and  C_14 
REMARK    7  A    between atoms: N_20  and  C_19 
REMARK       I    between atoms: C_22  and  N_20 
ROOT
ATOM      1  C   LIG d   1       0.710  82.699 112.403  0.00  0.00     0.161 C 
ATOM      2  C   LIG d   1      -0.563  82.426 112.928  0.00  0.00     0.016 C 
ATOM      3  C   LIG d   1      -1.404  81.400 112.438  0.00  0.00     0.038 C 
ATOM      4  C   LIG d   1      -0.962  80.473 111.482  0.00  0.00     0.028 C 
ATOM      5  C   LIG d   1       0.128  81.021 110.566  0.00  0.00    -0.047 C 
ATOM      6  C   LIG d   1       1.254  81.628 111.434  0.00  0.00     0.091 C 
ENDROOT
BRANCH   1   7
ATOM      7  O   LIG d   1       1.645  82.923 113.477  0.00  0.00    -0.368 OA
BRANCH   7   8
ATOM      8  C   LIG d   1       1.849  84.303 113.867  0.00  0.00     0.119 C 
BRANCH   8   9
ATOM      9  C   LIG d   1       3.300  84.433 114.368  0.00  0.00     0.028 C 
ATOM     10  C   LIG d   1       4.328  84.015 113.303  0.00  0.00     0.006 C 
ENDBRANCH   8   9
BRANCH   8  11
ATOM     11  C   LIG d   1       0.971  84.680 115.064  0.00  0.00     0.028 C 
ATOM     12  C   LIG d   1       1.093  83.684 116.229  0.00  0.00     0.006 C 
ENDBRANCH   8  11
ENDBRANCH   7   8
ENDBRANCH   1   7
BRANCH   6  13
ATOM     13  N   LIG d   1       2.320  82.262 110.615  0.00  0.00    -0.311 N 
ATOM     14  C   LIG d   1       3.564  81.792 110.542  0.00  0.00     0.210 C 
ATOM     15  C   LIG d   1       4.512  82.607 109.657  0.00  0.00     0.109 C 
ATOM     16  O   LIG d   1       3.964  80.759 111.100  0.00  0.00    -0.276 OA
ATOM     17  H   LIG d   1       2.074  83.087 110.105  0.00  0.00     0.149 HD
ENDBRANCH   6  13
BRANCH   5  18
ATOM     18  N   LIG d   1       0.591  79.911 109.712  0.00  0.00     0.381 N 
ATOM     19  H   LIG d   1       0.959  79.176 110.282  0.00  0.00    -0.090 HD
ATOM     20  H   LIG d   1       1.326  80.246 109.115  0.00  0.00    -0.090 HD
ATOM     21  H   LIG d   1      -0.164  79.567 109.160  0.00  0.00    -0.090 HD
ENDBRANCH   5  18
BRANCH   3  22
ATOM     22  C   LIG d   1      -2.716  81.318 112.878  0.00  0.00     0.382 C 
ATOM     23  O   LIG d   1      -3.197  80.209 113.214  0.00  0.00    -0.241 OA
ATOM     24  O   LIG d   1      -3.440  82.332 112.900  0.00  0.00    -0.241 OA
ENDBRANCH   3  22
TORSDOF 7
ENDMDL
MODEL 6
REMARK VINA RESULT:      -4.5      1.902      4.954
REMARK  7 active torsions:
REMARK  status: ('A' for Active; 'I' for Inactive)
REMARK    1  A    between atoms: C_2  and  C_3 
REMARK    2  A    between atoms: C_3  and  O_6 
REMARK    3  A    between atoms: C_3  and  C_4 
REMARK    4  A    between atoms: C_7  and  O_6 
REMARK    5  A    between atoms: C_9  and  C_10 
REMARK    6  A    between atoms: N_15  and  C_14 
REMARK    7  A    between atoms: N_20  and  C_19 
REMARK       I    between atoms: C_22  and  N_20 
ROOT
ATOM      1  C   LIG d   1       1.792  81.147 113.085  0.00  0.00     0.161 C 
ATOM      2  C   LIG d   1       3.024  81.725 112.735  0.00  0.00     0.016 C 
ATOM      3  C   LIG d   1       3.275  82.318 111.476  0.00  0.00     0.038 C 
ATOM      4  C   LIG d   1       2.256  82.510 110.531  0.00  0.00     0.028 C 
ATOM      5  C   LIG d   1       1.126  81.492 110.643  0.00  0.00    -0.047 C 
ATOM      6  C   LIG d   1       0.636  81.446 112.108  0.00  0.00     0.091 C 
ENDROOT
BRANCH   1   7
ATOM      7  O   LIG d   1       1.431  81.542 114.424  0.00  0.00    -0.368 OA
BRANCH   7   8
ATOM      8  C   LIG d   1       1.319  80.472 115.395  0.00  0.00     0.119 C 
BRANCH   8   9
ATOM      9  C   LIG d   1       0.232  80.880 116.409  0.00  0.00     0.028 C 
ATOM     10  C   LIG d   1      -0.862  81.756 115.776  0.00  0.00     0.006 C 
ENDBRANCH   8   9
BRANCH   8  11
ATOM     11  C   LIG d   1       2.604  80.327 116.215  0.00  0.00     0.028 C 
ATOM     12  C   LIG d   1       3.410  79.072 115.843  0.00  0.00     0.006 C 
ENDBRANCH   8  11
ENDBRANCH   7   8
ENDBRANCH   1   7
BRANCH   6  13
ATOM     13  N   LIG d   1      -0.412  80.415 112.323  0.00  0.00    -0.311 N 
ATOM     14  C   LIG d   1      -1.717  80.680 112.300  0.00  0.00     0.210 C 
ATOM     15  C   LIG d   1      -2.627  79.476 112.565  0.00  0.00     0.109 C 
ATOM     16  O   LIG d   1      -2.209  81.792 112.052  0.00  0.00    -0.276 OA
ATOM     17  H   LIG d   1      -0.102  79.479 112.499  0.00  0.00     0.149 HD
ENDBRANCH   6  13
BRANCH   5  18
ATOM     18  N   LIG d   1       0.071  81.892 109.693  0.00  0.00     0.381 N 
ATOM     19  H   LIG d   1      -0.609  81.161 109.614  0.00  0.00    -0.090 HD
ATOM     20  H   LIG d   1       0.485  82.035 108.788  0.00  0.00    -0.090 HD
ATOM     21  H   LIG d   1      -0.367  82.731 110.003  0.00  0.00    -0.090 HD
ENDBRANCH   5  18
BRANCH   3  22
ATOM     22  C   LIG d   1       4.566  82.691 111.137  0.00  0.00     0.382 C 
ATOM     23  O   LIG d   1       5.374  83.039 112.033  0.00  0.00    -0.241 OA
ATOM     24  O   LIG d   1       4.921  82.727 109.944  0.00  0.00    -0.241 OA
ENDBRANCH   3  22
TORSDOF 7
ENDMDL
MODEL 7
REMARK VINA RESULT:      -4.3      2.675      6.152
REMARK  7 active torsions:
REMARK  status: ('A' for Active; 'I' for Inactive)
REMARK    1  A    between atoms: C_2  and  C_3 
REMARK    2  A    between atoms: C_3  and  O_6 
REMARK    3  A    between atoms: C_3  and  C_4 
REMARK    4  A    between atoms: C_7  and  O_6 
REMARK    5  A    between atoms: C_9  and  C_10 
REMARK    6  A    between atoms: N_15  and  C_14 
REMARK    7  A    between atoms: N_20  and  C_19 
REMARK       I    between atoms: C_22  and  N_20 
ROOT
ATOM      1  C   LIG d   1       3.486  82.250 113.105  0.00  0.00     0.161 C 
ATOM      2  C   LIG d   1       4.501  81.315 113.369  0.00  0.00     0.016 C 
ATOM      3  C   LIG d   1       4.390  80.301 114.348  0.00  0.00     0.038 C 
ATOM      4  C   LIG d   1       3.189  80.057 115.030  0.00  0.00     0.028 C 
ATOM      5  C   LIG d   1       2.304  81.293 115.159  0.00  0.00    -0.047 C 
ATOM      6  C   LIG d   1       2.126  81.930 113.762  0.00  0.00     0.091 C 
ENDROOT
BRANCH   1   7
ATOM      7  O   LIG d   1       3.328  82.412 111.682  0.00  0.00    -0.368 OA
BRANCH   7   8
ATOM      8  C   LIG d   1       3.218  81.191 110.909  0.00  0.00     0.119 C 
BRANCH   8   9
ATOM      9  C   LIG d   1       4.109  81.351 109.662  0.00  0.00     0.028 C 
ATOM     10  C   LIG d   1       4.781  82.733 109.593  0.00  0.00     0.006 C 
ENDBRANCH   8   9
BRANCH   8  11
ATOM     11  C   LIG d   1       1.798  80.998 110.371  0.00  0.00     0.028 C 
ATOM     12  C   LIG d   1       1.083  82.329 110.086  0.00  0.00     0.006 C 
ENDBRANCH   8  11
ENDBRANCH   7   8
ENDBRANCH   1   7
BRANCH   6  13
ATOM     13  N   LIG d   1       1.342  83.192 113.810  0.00  0.00    -0.311 N 
ATOM     14  C   LIG d   1       0.027  83.246 113.609  0.00  0.00     0.210 C 
ATOM     15  C   LIG d   1      -0.581  84.650 113.683  0.00  0.00     0.109 C 
ATOM     16  O   LIG d   1      -0.699  82.261 113.407  0.00  0.00    -0.276 OA
ATOM     17  H   LIG d   1       1.847  84.036 113.999  0.00  0.00     0.149 HD
ENDBRANCH   6  13
BRANCH   5  18
ATOM     18  N   LIG d   1       1.029  80.866 115.766  0.00  0.00     0.381 N 
ATOM     19  H   LIG d   1       1.115  80.858 116.763  0.00  0.00    -0.090 HD
ATOM     20  H   LIG d   1       0.820  79.932 115.460  0.00  0.00    -0.090 HD
ATOM     21  H   LIG d   1       0.298  81.485 115.494  0.00  0.00    -0.090 HD
ENDBRANCH   5  18
BRANCH   3  22
ATOM     22  C   LIG d   1       5.503  79.544 114.681  0.00  0.00     0.382 C 
ATOM     23  O   LIG d   1       6.463  80.074 115.291  0.00  0.00    -0.241 OA
ATOM     24  O   LIG d   1       5.578  78.348 114.341  0.00  0.00    -0.241 OA
ENDBRANCH   3  22
TORSDOF 7
ENDMDL
MODEL 8
REMARK VINA RESULT:      -4.0      1.841      2.847
REMARK  7 active torsions:
REMARK  status: ('A' for Active; 'I' for Inactive)
REMARK    1  A    between atoms: C_2  and  C_3 
REMARK    2  A    between atoms: C_3  and  O_6 
REMARK    3  A    between atoms: C_3  and  C_4 
REMARK    4  A    between atoms: C_7  and  O_6 
REMARK    5  A    between atoms: C_9  and  C_10 
REMARK    6  A    between atoms: N_15  and  C_14 
REMARK    7  A    between atoms: N_20  and  C_19 
REMARK       I    between atoms: C_22  and  N_20 
ROOT
ATOM      1  C   LIG d   1       1.635  81.733 113.025  0.00  0.00     0.161 C 
ATOM      2  C   LIG d   1       0.487  82.136 113.728  0.00  0.00     0.016 C 
ATOM      3  C   LIG d   1      -0.784  82.276 113.125  0.00  0.00     0.038 C 
ATOM      4  C   LIG d   1      -1.027  81.873 111.804  0.00  0.00     0.028 C 
ATOM      5  C   LIG d   1       0.210  81.937 110.914  0.00  0.00    -0.047 C 
ATOM      6  C   LIG d   1       1.367  81.183 111.609  0.00  0.00     0.091 C 
ENDROOT
BRANCH   1   7
ATOM      7  O   LIG d   1       2.372  80.771 113.806  0.00  0.00    -0.368 OA
BRANCH   7   8
ATOM      8  C   LIG d   1       3.603  81.245 114.405  0.00  0.00     0.119 C 
BRANCH   8   9
ATOM      9  C   LIG d   1       4.766  80.488 113.734  0.00  0.00     0.028 C 
ATOM     10  C   LIG d   1       5.333  79.372 114.628  0.00  0.00     0.006 C 
ENDBRANCH   8   9
BRANCH   8  11
ATOM     11  C   LIG d   1       3.679  80.873 115.889  0.00  0.00     0.028 C 
ATOM     12  C   LIG d   1       3.174  81.994 116.811  0.00  0.00     0.006 C 
ENDBRANCH   8  11
ENDBRANCH   7   8
ENDBRANCH   1   7
BRANCH   6  13
ATOM     13  N   LIG d   1       2.639  81.268 110.845  0.00  0.00    -0.311 N 
ATOM     14  C   LIG d   1       3.259  82.417 110.579  0.00  0.00     0.210 C 
ATOM     15  C   LIG d   1       4.546  82.282 109.760  0.00  0.00     0.109 C 
ATOM     16  O   LIG d   1       2.881  83.531 110.970  0.00  0.00    -0.276 OA
ATOM     17  H   LIG d   1       3.032  80.408 110.516  0.00  0.00     0.149 HD
ENDBRANCH   6  13
BRANCH   5  18
ATOM     18  N   LIG d   1      -0.152  81.361 109.605  0.00  0.00     0.381 N 
ATOM     19  H   LIG d   1      -0.442  80.410 109.722  0.00  0.00    -0.090 HD
ATOM     20  H   LIG d   1       0.658  81.373 109.010  0.00  0.00    -0.090 HD
ATOM     21  H   LIG d   1      -0.886  81.891 109.191  0.00  0.00    -0.090 HD
ENDBRANCH   5  18
BRANCH   3  22
ATOM     22  C   LIG d   1      -1.821  82.861 113.836  0.00  0.00     0.382 C 
ATOM     23  O   LIG d   1      -1.588  83.433 114.929  0.00  0.00    -0.241 OA
ATOM     24  O   LIG d   1      -2.993  82.787 113.421  0.00  0.00    -0.241 OA
ENDBRANCH   3  22
TORSDOF 7
ENDMDL
MODEL 9
REMARK VINA RESULT:      -4.0      2.276      4.492
REMARK  7 active torsions:
REMARK  status: ('A' for Active; 'I' for Inactive)
REMARK    1  A    between atoms: C_2  and  C_3 
REMARK    2  A    between atoms: C_3  and  O_6 
REMARK    3  A    between atoms: C_3  and  C_4 
REMARK    4  A    between atoms: C_7  and  O_6 
REMARK    5  A    between atoms: C_9  and  C_10 
REMARK    6  A    between atoms: N_15  and  C_14 
REMARK    7  A    between atoms: N_20  and  C_19 
REMARK       I    between atoms: C_22  and  N_20 
ROOT
ATOM      1  C   LIG d   1       1.176  81.290 112.796  0.00  0.00     0.161 C 
ATOM      2  C   LIG d   1      -0.123  81.049 112.318  0.00  0.00     0.016 C 
ATOM      3  C   LIG d   1      -1.292  81.415 113.024  0.00  0.00     0.038 C 
ATOM      4  C   LIG d   1      -1.241  82.190 114.193  0.00  0.00     0.028 C 
ATOM      5  C   LIG d   1       0.058  82.021 114.974  0.00  0.00    -0.047 C 
ATOM      6  C   LIG d   1       1.252  82.232 114.016  0.00  0.00     0.091 C 
ENDROOT
BRANCH   1   7
ATOM      7  O   LIG d   1       2.005  81.787 111.727  0.00  0.00    -0.368 OA
BRANCH   7   8
ATOM      8  C   LIG d   1       1.372  81.899 110.428  0.00  0.00     0.119 C 
BRANCH   8   9
ATOM      9  C   LIG d   1       2.190  81.046 109.439  0.00  0.00     0.028 C 
ATOM     10  C   LIG d   1       3.633  80.816 109.917  0.00  0.00     0.006 C 
ENDBRANCH   8   9
BRANCH   8  11
ATOM     11  C   LIG d   1       1.451  83.331 109.891  0.00  0.00     0.028 C 
ATOM     12  C   LIG d   1       0.182  84.148 110.183  0.00  0.00     0.006 C 
ENDBRANCH   8  11
ENDBRANCH   7   8
ENDBRANCH   1   7
BRANCH   6  13
ATOM     13  N   LIG d   1       2.560  82.002 114.681  0.00  0.00    -0.311 N 
ATOM     14  C   LIG d   1       3.343  82.987 115.119  0.00  0.00     0.210 C 
ATOM     15  C   LIG d   1       4.659  82.531 115.757  0.00  0.00     0.109 C 
ATOM     16  O   LIG d   1       3.058  84.193 115.069  0.00  0.00    -0.276 OA
ATOM     17  H   LIG d   1       2.855  81.052 114.791  0.00  0.00     0.149 HD
ENDBRANCH   6  13
BRANCH   5  18
ATOM     18  N   LIG d   1       0.034  82.985 116.090  0.00  0.00     0.381 N 
ATOM     19  H   LIG d   1      -0.268  83.879 115.759  0.00  0.00    -0.090 HD
ATOM     20  H   LIG d   1       0.965  83.082 116.456  0.00  0.00    -0.090 HD
ATOM     21  H   LIG d   1      -0.579  82.663 116.806  0.00  0.00    -0.090 HD
ENDBRANCH   5  18
BRANCH   3  22
ATOM     22  C   LIG d   1      -2.529  80.972 112.581  0.00  0.00     0.382 C 
ATOM     23  O   LIG d   1      -3.439  81.800 112.331  0.00  0.00    -0.241 OA
ATOM     24  O   LIG d   1      -2.762  79.754 112.472  0.00  0.00    -0.241 OA
ENDBRANCH   3  22
TORSDOF 7
ENDMDL
