MODEL 1
REMARK VINA RESULT:      -5.3      0.000      0.000
REMARK  7 active torsions:
REMARK  status: ('A' for Active; 'I' for Inactive)
REMARK    1  A    between atoms: C_2  and  C_3 
REMARK    2  A    between atoms: C_3  and  O_6 
REMARK    3  A    between atoms: C_3  and  C_4 
REMARK    4  A    between atoms: C_7  and  O_6 
REMARK    5  A    between atoms: C_9  and  C_10 
REMARK    6  A    between atoms: N_15  and  C_14 
REMARK    7  A    between atoms: N_20  and  C_19 
REMARK       I    between atoms: C_22  and  N_20 
ROOT
ATOM      1  C   LIG d   1       0.595  82.027 112.269  0.00  0.00     0.161 C 
ATOM      2  C   LIG d   1       1.472  82.916 111.625  0.00  0.00     0.016 C 
ATOM      3  C   LIG d   1       2.188  82.589 110.450  0.00  0.00     0.038 C 
ATOM      4  C   LIG d   1       1.959  81.395 109.751  0.00  0.00     0.028 C 
ATOM      5  C   LIG d   1       1.459  80.260 110.637  0.00  0.00    -0.047 C 
ATOM      6  C   LIG d   1       0.248  80.761 111.459  0.00  0.00     0.091 C 
ENDROOT
BRANCH   1   7
ATOM      7  O   LIG d   1      -0.608  82.720 112.654  0.00  0.00    -0.368 OA
BRANCH   7   8
ATOM      8  C   LIG d   1      -0.880  82.782 114.076  0.00  0.00     0.119 C 
BRANCH   8   9
ATOM      9  C   LIG d   1      -2.309  82.247 114.297  0.00  0.00     0.028 C 
ATOM     10  C   LIG d   1      -3.038  82.975 115.439  0.00  0.00     0.006 C 
ENDBRANCH   8   9
BRANCH   8  11
ATOM     11  C   LIG d   1      -0.908  84.229 114.576  0.00  0.00     0.028 C 
ATOM     12  C   LIG d   1       0.379  84.628 115.317  0.00  0.00     0.006 C 
ENDBRANCH   8  11
ENDBRANCH   7   8
ENDBRANCH   1   7
BRANCH   6  13
ATOM     13  N   LIG d   1      -0.250  79.738 112.415  0.00  0.00    -0.311 N 
ATOM     14  C   LIG d   1      -1.415  79.108 112.273  0.00  0.00     0.210 C 
ATOM     15  C   LIG d   1      -1.747  78.105 113.382  0.00  0.00     0.109 C 
ATOM     16  O   LIG d   1      -2.191  79.262 111.318  0.00  0.00    -0.276 OA
ATOM     17  H   LIG d   1       0.331  79.529 113.203  0.00  0.00     0.149 HD
ENDBRANCH   6  13
BRANCH   5  18
ATOM     18  N   LIG d   1       1.130  79.120 109.760  0.00  0.00     0.381 N 
ATOM     19  H   LIG d   1       0.690  78.398 110.294  0.00  0.00    -0.090 HD
ATOM     20  H   LIG d   1       1.982  78.752 109.373  0.00  0.00    -0.090 HD
ATOM     21  H   LIG d   1       0.525  79.418 109.027  0.00  0.00    -0.090 HD
ENDBRANCH   5  18
BRANCH   3  22
ATOM     22  C   LIG d   1       3.174  83.446 109.986  0.00  0.00     0.382 C 
ATOM     23  O   LIG d   1       4.271  82.982 109.589  0.00  0.00    -0.241 OA
ATOM     24  O   LIG d   1       2.999  84.679 110.001  0.00  0.00    -0.241 OA
ENDBRANCH   3  22
TORSDOF 7
ENDMDL
MODEL 2
REMARK VINA RESULT:      -5.3      1.244      1.719
REMARK  7 active torsions:
REMARK  status: ('A' for Active; 'I' for Inactive)
REMARK    1  A    between atoms: C_2  and  C_3 
REMARK    2  A    between atoms: C_3  and  O_6 
REMARK    3  A    between atoms: C_3  and  C_4 
REMARK    4  A    between atoms: C_7  and  O_6 
REMARK    5  A    between atoms: C_9  and  C_10 
REMARK    6  A    between atoms: N_15  and  C_14 
REMARK    7  A    between atoms: N_20  and  C_19 
REMARK       I    between atoms: C_22  and  N_20 
ROOT
ATOM      1  C   LIG d   1       0.522  82.536 112.544  0.00  0.00     0.161 C 
ATOM      2  C   LIG d   1       1.670  83.115 111.978  0.00  0.00     0.016 C 
ATOM      3  C   LIG d   1       2.344  82.573 110.860  0.00  0.00     0.038 C 
ATOM      4  C   LIG d   1       1.825  81.491 110.134  0.00  0.00     0.028 C 
ATOM      5  C   LIG d   1       0.944  80.568 110.969  0.00  0.00    -0.047 C 
ATOM      6  C   LIG d   1      -0.123  81.418 111.698  0.00  0.00     0.091 C 
ENDROOT
BRANCH   1   7
ATOM      7  O   LIG d   1      -0.447  83.561 112.841  0.00  0.00    -0.368 OA
BRANCH   7   8
ATOM      8  C   LIG d   1      -0.380  84.135 114.169  0.00  0.00     0.119 C 
BRANCH   8   9
ATOM      9  C   LIG d   1      -0.059  82.993 115.152  0.00  0.00     0.028 C 
ATOM     10  C   LIG d   1       0.803  83.462 116.336  0.00  0.00     0.006 C 
ENDBRANCH   8   9
BRANCH   8  11
ATOM     11  C   LIG d   1      -1.741  84.680 114.610  0.00  0.00     0.028 C 
ATOM     12  C   LIG d   1      -2.698  83.576 115.089  0.00  0.00     0.006 C 
ENDBRANCH   8  11
ENDBRANCH   7   8
ENDBRANCH   1   7
BRANCH   6  13
ATOM     13  N   LIG d   1      -0.975  80.603 112.603  0.00  0.00    -0.311 N 
ATOM     14  C   LIG d   1      -2.296  80.744 112.689  0.00  0.00     0.210 C 
ATOM     15  C   LIG d   1      -2.981  79.817 113.699  0.00  0.00     0.109 C 
ATOM     16  O   LIG d   1      -2.971  81.525 112.001  0.00  0.00    -0.276 OA
ATOM     17  H   LIG d   1      -0.513  79.923 113.174  0.00  0.00     0.149 HD
ENDBRANCH   6  13
BRANCH   5  18
ATOM     18  N   LIG d   1       0.360  79.565 110.058  0.00  0.00     0.381 N 
ATOM     19  H   LIG d   1      -0.366  79.063 110.528  0.00  0.00    -0.090 HD
ATOM     20  H   LIG d   1       1.075  78.911 109.794  0.00  0.00    -0.090 HD
ATOM     21  H   LIG d   1      -0.007  80.013 109.247  0.00  0.00    -0.090 HD
ENDBRANCH   5  18
BRANCH   3  22
ATOM     22  C   LIG d   1       3.574  83.091 110.481  0.00  0.00     0.382 C 
ATOM     23  O   LIG d   1       4.130  82.683 109.434  0.00  0.00    -0.241 OA
ATOM     24  O   LIG d   1       4.154  83.929 111.198  0.00  0.00    -0.241 OA
ENDBRANCH   3  22
TORSDOF 7
ENDMDL
MODEL 3
REMARK VINA RESULT:      -5.0      1.147      1.918
REMARK  7 active torsions:
REMARK  status: ('A' for Active; 'I' for Inactive)
REMARK    1  A    between atoms: C_2  and  C_3 
REMARK    2  A    between atoms: C_3  and  O_6 
REMARK    3  A    between atoms: C_3  and  C_4 
REMARK    4  A    between atoms: C_7  and  O_6 
REMARK    5  A    between atoms: C_9  and  C_10 
REMARK    6  A    between atoms: N_15  and  C_14 
REMARK    7  A    between atoms: N_20  and  C_19 
REMARK       I    between atoms: C_22  and  N_20 
ROOT
ATOM      1  C   LIG d   1       0.527  81.353 113.415  0.00  0.00     0.161 C 
ATOM      2  C   LIG d   1       1.255  82.373 112.780  0.00  0.00     0.016 C 
ATOM      3  C   LIG d   1       1.454  82.432 111.382  0.00  0.00     0.038 C 
ATOM      4  C   LIG d   1       0.806  81.552 110.503  0.00  0.00     0.028 C 
ATOM      5  C   LIG d   1       0.469  80.205 111.133  0.00  0.00    -0.047 C 
ATOM      6  C   LIG d   1      -0.281  80.446 112.463  0.00  0.00     0.091 C 
ENDROOT
BRANCH   1   7
ATOM      7  O   LIG d   1      -0.338  81.922 114.419  0.00  0.00    -0.368 OA
BRANCH   7   8
ATOM      8  C   LIG d   1      -1.458  82.698 113.928  0.00  0.00     0.119 C 
BRANCH   8   9
ATOM      9  C   LIG d   1      -1.413  84.070 114.630  0.00  0.00     0.028 C 
ATOM     10  C   LIG d   1      -0.138  84.258 115.469  0.00  0.00     0.006 C 
ENDBRANCH   8   9
BRANCH   8  11
ATOM     11  C   LIG d   1      -2.794  82.074 114.344  0.00  0.00     0.028 C 
ATOM     12  C   LIG d   1      -2.660  81.126 115.546  0.00  0.00     0.006 C 
ENDBRANCH   8  11
ENDBRANCH   7   8
ENDBRANCH   1   7
BRANCH   6  13
ATOM     13  N   LIG d   1      -0.573  79.181 113.187  0.00  0.00    -0.311 N 
ATOM     14  C   LIG d   1      -1.704  78.494 113.034  0.00  0.00     0.210 C 
ATOM     15  C   LIG d   1      -1.811  77.228 113.890  0.00  0.00     0.109 C 
ATOM     16  O   LIG d   1      -2.614  78.795 112.248  0.00  0.00    -0.276 OA
ATOM     17  H   LIG d   1       0.125  78.847 113.822  0.00  0.00     0.149 HD
ENDBRANCH   6  13
BRANCH   5  18
ATOM     18  N   LIG d   1      -0.323  79.439 110.153  0.00  0.00     0.381 N 
ATOM     19  H   LIG d   1       0.153  79.420 109.273  0.00  0.00    -0.090 HD
ATOM     20  H   LIG d   1      -1.208  79.897 110.022  0.00  0.00    -0.090 HD
ATOM     21  H   LIG d   1      -0.467  78.510 110.481  0.00  0.00    -0.090 HD
ENDBRANCH   5  18
BRANCH   3  22
ATOM     22  C   LIG d   1       2.341  83.357 110.853  0.00  0.00     0.382 C 
ATOM     23  O   LIG d   1       2.263  83.680 109.643  0.00  0.00    -0.241 OA
ATOM     24  O   LIG d   1       3.248  83.838 111.559  0.00  0.00    -0.241 OA
ENDBRANCH   3  22
TORSDOF 7
ENDMDL
MODEL 4
REMARK VINA RESULT:      -4.7      3.061      5.906
REMARK  7 active torsions:
REMARK  status: ('A' for Active; 'I' for Inactive)
REMARK    1  A    between atoms: C_2  and  C_3 
REMARK    2  A    between atoms: C_3  and  O_6 
REMARK    3  A    between atoms: C_3  and  C_4 
REMARK    4  A    between atoms: C_7  and  O_6 
REMARK    5  A    between atoms: C_9  and  C_10 
REMARK    6  A    between atoms: N_15  and  C_14 
REMARK    7  A    between atoms: N_20  and  C_19 
REMARK       I    between atoms: C_22  and  N_20 
ROOT
ATOM      1  C   LIG d   1       0.887  80.562 113.060  0.00  0.00     0.161 C 
ATOM      2  C   LIG d   1      -0.435  80.927 112.755  0.00  0.00     0.016 C 
ATOM      3  C   LIG d   1      -1.502  80.828 113.677  0.00  0.00     0.038 C 
ATOM      4  C   LIG d   1      -1.290  80.498 115.024  0.00  0.00     0.028 C 
ATOM      5  C   LIG d   1      -0.052  79.636 115.249  0.00  0.00    -0.047 C 
ATOM      6  C   LIG d   1       1.158  80.306 114.558  0.00  0.00     0.091 C 
ENDROOT
BRANCH   1   7
ATOM      7  O   LIG d   1       1.798  81.556 112.550  0.00  0.00    -0.368 OA
BRANCH   7   8
ATOM      8  C   LIG d   1       1.836  81.705 111.109  0.00  0.00     0.119 C 
BRANCH   8   9
ATOM      9  C   LIG d   1       3.084  80.957 110.600  0.00  0.00     0.028 C 
ATOM     10  C   LIG d   1       3.839  81.747 109.517  0.00  0.00     0.006 C 
ENDBRANCH   8   9
BRANCH   8  11
ATOM     11  C   LIG d   1       2.047  83.167 110.706  0.00  0.00     0.028 C 
ATOM     12  C   LIG d   1       1.768  84.149 111.855  0.00  0.00     0.006 C 
ENDBRANCH   8  11
ENDBRANCH   7   8
ENDBRANCH   1   7
BRANCH   6  13
ATOM     13  N   LIG d   1       2.393  79.485 114.657  0.00  0.00    -0.311 N 
ATOM     14  C   LIG d   1       3.302  79.643 115.617  0.00  0.00     0.210 C 
ATOM     15  C   LIG d   1       4.511  78.706 115.523  0.00  0.00     0.109 C 
ATOM     16  O   LIG d   1       3.207  80.448 116.556  0.00  0.00    -0.276 OA
ATOM     17  H   LIG d   1       2.535  78.787 113.954  0.00  0.00     0.149 HD
ENDBRANCH   6  13
BRANCH   5  18
ATOM     18  N   LIG d   1       0.126  79.483 116.705  0.00  0.00     0.381 N 
ATOM     19  H   LIG d   1       0.479  80.334 117.095  0.00  0.00    -0.090 HD
ATOM     20  H   LIG d   1       0.798  78.756 116.876  0.00  0.00    -0.090 HD
ATOM     21  H   LIG d   1      -0.743  79.249 117.132  0.00  0.00    -0.090 HD
ENDBRANCH   5  18
BRANCH   3  22
ATOM     22  C   LIG d   1      -2.805  81.022 113.244  0.00  0.00     0.382 C 
ATOM     23  O   LIG d   1      -3.380  82.117 113.457  0.00  0.00    -0.241 OA
ATOM     24  O   LIG d   1      -3.428  80.101 112.682  0.00  0.00    -0.241 OA
ENDBRANCH   3  22
TORSDOF 7
ENDMDL
MODEL 5
REMARK VINA RESULT:      -4.7      2.704      3.621
REMARK  7 active torsions:
REMARK  status: ('A' for Active; 'I' for Inactive)
REMARK    1  A    between atoms: C_2  and  C_3 
REMARK    2  A    between atoms: C_3  and  O_6 
REMARK    3  A    between atoms: C_3  and  C_4 
REMARK    4  A    between atoms: C_7  and  O_6 
REMARK    5  A    between atoms: C_9  and  C_10 
REMARK    6  A    between atoms: N_15  and  C_14 
REMARK    7  A    between atoms: N_20  and  C_19 
REMARK       I    between atoms: C_22  and  N_20 
ROOT
ATOM      1  C   LIG d   1      -1.733  80.708 113.894  0.00  0.00     0.161 C 
ATOM      2  C   LIG d   1      -1.563  82.056 113.535  0.00  0.00     0.016 C 
ATOM      3  C   LIG d   1      -1.032  82.468 112.291  0.00  0.00     0.038 C 
ATOM      4  C   LIG d   1      -0.774  81.557 111.256  0.00  0.00     0.028 C 
ATOM      5  C   LIG d   1      -0.456  80.151 111.752  0.00  0.00    -0.047 C 
ATOM      6  C   LIG d   1      -1.561  79.703 112.736  0.00  0.00     0.091 C 
ENDROOT
BRANCH   1   7
ATOM      7  O   LIG d   1      -3.016  80.530 114.526  0.00  0.00    -0.368 OA
BRANCH   7   8
ATOM      8  C   LIG d   1      -2.993  80.262 115.950  0.00  0.00     0.119 C 
BRANCH   8   9
ATOM      9  C   LIG d   1      -3.440  81.548 116.671  0.00  0.00     0.028 C 
ATOM     10  C   LIG d   1      -3.421  81.401 118.201  0.00  0.00     0.006 C 
ENDBRANCH   8   9
BRANCH   8  11
ATOM     11  C   LIG d   1      -1.568  79.995 116.444  0.00  0.00     0.028 C 
ATOM     12  C   LIG d   1      -1.377  78.562 116.966  0.00  0.00     0.006 C 
ENDBRANCH   8  11
ENDBRANCH   7   8
ENDBRANCH   1   7
BRANCH   6  13
ATOM     13  N   LIG d   1      -1.283  78.371 113.333  0.00  0.00    -0.311 N 
ATOM     14  C   LIG d   1      -2.206  77.420 113.465  0.00  0.00     0.210 C 
ATOM     15  C   LIG d   1      -1.714  76.128 114.125  0.00  0.00     0.109 C 
ATOM     16  O   LIG d   1      -3.377  77.511 113.067  0.00  0.00    -0.276 OA
ATOM     17  H   LIG d   1      -0.350  78.201 113.654  0.00  0.00     0.149 HD
ENDBRANCH   6  13
BRANCH   5  18
ATOM     18  N   LIG d   1      -0.345  79.275 110.570  0.00  0.00     0.381 N 
ATOM     19  H   LIG d   1      -0.423  78.318 110.849  0.00  0.00    -0.090 HD
ATOM     20  H   LIG d   1       0.558  79.409 110.150  0.00  0.00    -0.090 HD
ATOM     21  H   LIG d   1      -1.061  79.497 109.913  0.00  0.00    -0.090 HD
ENDBRANCH   5  18
BRANCH   3  22
ATOM     22  C   LIG d   1      -0.716  83.803 112.087  0.00  0.00     0.382 C 
ATOM     23  O   LIG d   1      -1.126  84.395 111.060  0.00  0.00    -0.241 OA
ATOM     24  O   LIG d   1       0.011  84.410 112.896  0.00  0.00    -0.241 OA
ENDBRANCH   3  22
TORSDOF 7
ENDMDL
MODEL 6
REMARK VINA RESULT:      -4.6      2.138      2.594
REMARK  7 active torsions:
REMARK  status: ('A' for Active; 'I' for Inactive)
REMARK    1  A    between atoms: C_2  and  C_3 
REMARK    2  A    between atoms: C_3  and  O_6 
REMARK    3  A    between atoms: C_3  and  C_4 
REMARK    4  A    between atoms: C_7  and  O_6 
REMARK    5  A    between atoms: C_9  and  C_10 
REMARK    6  A    between atoms: N_15  and  C_14 
REMARK    7  A    between atoms: N_20  and  C_19 
REMARK       I    between atoms: C_22  and  N_20 
ROOT
ATOM      1  C   LIG d   1       0.048  80.999 113.716  0.00  0.00     0.161 C 
ATOM      2  C   LIG d   1       0.701  82.160 113.270  0.00  0.00     0.016 C 
ATOM      3  C   LIG d   1       0.963  82.431 111.908  0.00  0.00     0.038 C 
ATOM      4  C   LIG d   1       0.452  81.625 110.880  0.00  0.00     0.028 C 
ATOM      5  C   LIG d   1       0.222  80.178 111.302  0.00  0.00    -0.047 C 
ATOM      6  C   LIG d   1      -0.615  80.162 112.602  0.00  0.00     0.091 C 
ENDROOT
BRANCH   1   7
ATOM      7  O   LIG d   1      -0.919  81.340 114.729  0.00  0.00    -0.368 OA
BRANCH   7   8
ATOM      8  C   LIG d   1      -0.504  81.133 116.102  0.00  0.00     0.119 C 
BRANCH   8   9
ATOM      9  C   LIG d   1      -1.005  79.741 116.532  0.00  0.00     0.028 C 
ATOM     10  C   LIG d   1       0.139  78.721 116.664  0.00  0.00     0.006 C 
ENDBRANCH   8   9
BRANCH   8  11
ATOM     11  C   LIG d   1      -1.193  82.122 117.047  0.00  0.00     0.028 C 
ATOM     12  C   LIG d   1      -0.645  82.055 118.481  0.00  0.00     0.006 C 
ENDBRANCH   8  11
ENDBRANCH   7   8
ENDBRANCH   1   7
BRANCH   6  13
ATOM     13  N   LIG d   1      -0.815  78.787 113.130  0.00  0.00    -0.311 N 
ATOM     14  C   LIG d   1      -2.015  78.245 113.329  0.00  0.00     0.210 C 
ATOM     15  C   LIG d   1      -1.997  76.824 113.899  0.00  0.00     0.109 C 
ATOM     16  O   LIG d   1      -3.093  78.795 113.056  0.00  0.00    -0.276 OA
ATOM     17  H   LIG d   1       0.007  78.259 113.349  0.00  0.00     0.149 HD
ENDBRANCH   6  13
BRANCH   5  18
ATOM     18  N   LIG d   1      -0.440  79.486 110.180  0.00  0.00     0.381 N 
ATOM     19  H   LIG d   1      -0.736  80.154 109.497  0.00  0.00    -0.090 HD
ATOM     20  H   LIG d   1      -1.253  79.008 110.527  0.00  0.00    -0.090 HD
ATOM     21  H   LIG d   1       0.187  78.832 109.765  0.00  0.00    -0.090 HD
ENDBRANCH   5  18
BRANCH   3  22
ATOM     22  C   LIG d   1       1.779  83.498 111.564  0.00  0.00     0.382 C 
ATOM     23  O   LIG d   1       1.774  83.938 110.389  0.00  0.00    -0.241 OA
ATOM     24  O   LIG d   1       2.552  83.999 112.403  0.00  0.00    -0.241 OA
ENDBRANCH   3  22
TORSDOF 7
ENDMDL
MODEL 7
REMARK VINA RESULT:      -4.4      2.717      6.433
REMARK  7 active torsions:
REMARK  status: ('A' for Active; 'I' for Inactive)
REMARK    1  A    between atoms: C_2  and  C_3 
REMARK    2  A    between atoms: C_3  and  O_6 
REMARK    3  A    between atoms: C_3  and  C_4 
REMARK    4  A    between atoms: C_7  and  O_6 
REMARK    5  A    between atoms: C_9  and  C_10 
REMARK    6  A    between atoms: N_15  and  C_14 
REMARK    7  A    between atoms: N_20  and  C_19 
REMARK       I    between atoms: C_22  and  N_20 
ROOT
ATOM      1  C   LIG d   1      -0.869  80.219 112.722  0.00  0.00     0.161 C 
ATOM      2  C   LIG d   1      -1.342  78.897 112.691  0.00  0.00     0.016 C 
ATOM      3  C   LIG d   1      -2.132  78.329 113.717  0.00  0.00     0.038 C 
ATOM      4  C   LIG d   1      -2.633  79.098 114.779  0.00  0.00     0.028 C 
ATOM      5  C   LIG d   1      -1.766  80.307 115.113  0.00  0.00    -0.047 C 
ATOM      6  C   LIG d   1      -1.498  81.106 113.817  0.00  0.00     0.091 C 
ENDROOT
BRANCH   1   7
ATOM      7  O   LIG d   1      -1.038  80.828 111.426  0.00  0.00    -0.368 OA
BRANCH   7   8
ATOM      8  C   LIG d   1       0.175  81.261 110.763  0.00  0.00     0.119 C 
BRANCH   8   9
ATOM      9  C   LIG d   1      -0.016  82.738 110.367  0.00  0.00     0.028 C 
ATOM     10  C   LIG d   1       1.147  83.628 110.837  0.00  0.00     0.006 C 
ENDBRANCH   8   9
BRANCH   8  11
ATOM     11  C   LIG d   1       0.387  80.512 109.444  0.00  0.00     0.028 C 
ATOM     12  C   LIG d   1       1.658  79.648 109.447  0.00  0.00     0.006 C 
ENDBRANCH   8  11
ENDBRANCH   7   8
ENDBRANCH   1   7
BRANCH   6  13
ATOM     13  N   LIG d   1      -0.587  82.259 114.040  0.00  0.00    -0.311 N 
ATOM     14  C   LIG d   1      -0.993  83.527 114.027  0.00  0.00     0.210 C 
ATOM     15  C   LIG d   1       0.112  84.562 114.259  0.00  0.00     0.109 C 
ATOM     16  O   LIG d   1      -2.169  83.892 113.877  0.00  0.00    -0.276 OA
ATOM     17  H   LIG d   1       0.380  82.052 114.200  0.00  0.00     0.149 HD
ENDBRANCH   6  13
BRANCH   5  18
ATOM     18  N   LIG d   1      -2.474  81.093 116.141  0.00  0.00     0.381 N 
ATOM     19  H   LIG d   1      -3.448  80.864 116.131  0.00  0.00    -0.090 HD
ATOM     20  H   LIG d   1      -2.377  82.070 115.926  0.00  0.00    -0.090 HD
ATOM     21  H   LIG d   1      -2.089  80.903 117.040  0.00  0.00    -0.090 HD
ENDBRANCH   5  18
BRANCH   3  22
ATOM     22  C   LIG d   1      -2.396  76.968 113.708  0.00  0.00     0.382 C 
ATOM     23  O   LIG d   1      -3.438  76.535 113.160  0.00  0.00    -0.241 OA
ATOM     24  O   LIG d   1      -1.628  76.172 114.280  0.00  0.00    -0.241 OA
ENDBRANCH   3  22
TORSDOF 7
ENDMDL
MODEL 8
REMARK VINA RESULT:      -4.2      2.449      3.109
REMARK  7 active torsions:
REMARK  status: ('A' for Active; 'I' for Inactive)
REMARK    1  A    between atoms: C_2  and  C_3 
REMARK    2  A    between atoms: C_3  and  O_6 
REMARK    3  A    between atoms: C_3  and  C_4 
REMARK    4  A    between atoms: C_7  and  O_6 
REMARK    5  A    between atoms: C_9  and  C_10 
REMARK    6  A    between atoms: N_15  and  C_14 
REMARK    7  A    between atoms: N_20  and  C_19 
REMARK       I    between atoms: C_22  and  N_20 
ROOT
ATOM      1  C   LIG d   1       0.467  80.675 113.776  0.00  0.00     0.161 C 
ATOM      2  C   LIG d   1       1.147  81.769 113.216  0.00  0.00     0.016 C 
ATOM      3  C   LIG d   1       1.091  82.099 111.842  0.00  0.00     0.038 C 
ATOM      4  C   LIG d   1       0.223  81.443 110.957  0.00  0.00     0.028 C 
ATOM      5  C   LIG d   1      -0.100  80.012 111.375  0.00  0.00    -0.047 C 
ATOM      6  C   LIG d   1      -0.572  80.014 112.846  0.00  0.00     0.091 C 
ENDROOT
BRANCH   1   7
ATOM      7  O   LIG d   1      -0.151  81.068 115.018  0.00  0.00    -0.368 OA
BRANCH   7   8
ATOM      8  C   LIG d   1       0.364  80.433 116.215  0.00  0.00     0.119 C 
BRANCH   8   9
ATOM      9  C   LIG d   1       0.886  81.548 117.142  0.00  0.00     0.028 C 
ATOM     10  C   LIG d   1       2.296  82.023 116.753  0.00  0.00     0.006 C 
ENDBRANCH   8   9
BRANCH   8  11
ATOM     11  C   LIG d   1       1.584  79.562 115.902  0.00  0.00     0.028 C 
ATOM     12  C   LIG d   1       1.723  78.367 116.859  0.00  0.00     0.006 C 
ENDBRANCH   8  11
ENDBRANCH   7   8
ENDBRANCH   1   7
BRANCH   6  13
ATOM     13  N   LIG d   1      -0.829  78.643 113.361  0.00  0.00    -0.311 N 
ATOM     14  C   LIG d   1      -2.037  78.084 113.386  0.00  0.00     0.210 C 
ATOM     15  C   LIG d   1      -2.083  76.671 113.976  0.00  0.00     0.109 C 
ATOM     16  O   LIG d   1      -3.070  78.612 112.947  0.00  0.00    -0.276 OA
ATOM     17  H   LIG d   1      -0.041  78.132 113.709  0.00  0.00     0.149 HD
ENDBRANCH   6  13
BRANCH   5  18
ATOM     18  N   LIG d   1      -1.118  79.494 110.441  0.00  0.00     0.381 N 
ATOM     19  H   LIG d   1      -1.838  79.024 110.952  0.00  0.00    -0.090 HD
ATOM     20  H   LIG d   1      -0.685  78.831 109.823  0.00  0.00    -0.090 HD
ATOM     21  H   LIG d   1      -1.510  80.243 109.914  0.00  0.00    -0.090 HD
ENDBRANCH   5  18
BRANCH   3  22
ATOM     22  C   LIG d   1       1.938  83.072 111.334  0.00  0.00     0.382 C 
ATOM     23  O   LIG d   1       3.167  82.840 111.230  0.00  0.00    -0.241 OA
ATOM     24  O   LIG d   1       1.497  84.193 111.020  0.00  0.00    -0.241 OA
ENDBRANCH   3  22
TORSDOF 7
ENDMDL
MODEL 9
REMARK VINA RESULT:      -4.2      2.400      3.202
REMARK  7 active torsions:
REMARK  status: ('A' for Active; 'I' for Inactive)
REMARK    1  A    between atoms: C_2  and  C_3 
REMARK    2  A    between atoms: C_3  and  O_6 
REMARK    3  A    between atoms: C_3  and  C_4 
REMARK    4  A    between atoms: C_7  and  O_6 
REMARK    5  A    between atoms: C_9  and  C_10 
REMARK    6  A    between atoms: N_15  and  C_14 
REMARK    7  A    between atoms: N_20  and  C_19 
REMARK       I    between atoms: C_22  and  N_20 
ROOT
ATOM      1  C   LIG d   1       0.592  80.163 114.259  0.00  0.00     0.161 C 
ATOM      2  C   LIG d   1       1.566  80.604 113.347  0.00  0.00     0.016 C 
ATOM      3  C   LIG d   1       1.335  80.721 111.957  0.00  0.00     0.038 C 
ATOM      4  C   LIG d   1       0.059  80.547 111.401  0.00  0.00     0.028 C 
ATOM      5  C   LIG d   1      -0.832  79.611 112.210  0.00  0.00    -0.047 C 
ATOM      6  C   LIG d   1      -0.837  80.074 113.685  0.00  0.00     0.091 C 
ENDROOT
BRANCH   1   7
ATOM      7  O   LIG d   1       0.610  80.996 115.434  0.00  0.00    -0.368 OA
BRANCH   7   8
ATOM      8  C   LIG d   1       0.686  82.424 115.203  0.00  0.00     0.119 C 
BRANCH   8   9
ATOM      9  C   LIG d   1       1.783  82.985 116.128  0.00  0.00     0.028 C 
ATOM     10  C   LIG d   1       2.488  81.884 116.938  0.00  0.00     0.006 C 
ENDBRANCH   8   9
BRANCH   8  11
ATOM     11  C   LIG d   1      -0.605  83.128 115.631  0.00  0.00     0.028 C 
ATOM     12  C   LIG d   1      -1.359  83.760 114.450  0.00  0.00     0.006 C 
ENDBRANCH   8  11
ENDBRANCH   7   8
ENDBRANCH   1   7
BRANCH   6  13
ATOM     13  N   LIG d   1      -1.618  79.164 114.562  0.00  0.00    -0.311 N 
ATOM     14  C   LIG d   1      -2.817  79.470 115.056  0.00  0.00     0.210 C 
ATOM     15  C   LIG d   1      -3.440  78.398 115.955  0.00  0.00     0.109 C 
ATOM     16  O   LIG d   1      -3.437  80.516 114.809  0.00  0.00    -0.276 OA
ATOM     17  H   LIG d   1      -1.203  78.281 114.788  0.00  0.00     0.149 HD
ENDBRANCH   6  13
BRANCH   5  18
ATOM     18  N   LIG d   1      -2.172  79.628 111.594  0.00  0.00     0.381 N 
ATOM     19  H   LIG d   1      -2.381  80.549 111.263  0.00  0.00    -0.090 HD
ATOM     20  H   LIG d   1      -2.854  79.382 112.291  0.00  0.00    -0.090 HD
ATOM     21  H   LIG d   1      -2.209  78.979 110.839  0.00  0.00    -0.090 HD
ENDBRANCH   5  18
BRANCH   3  22
ATOM     22  C   LIG d   1       2.397  80.977 111.103  0.00  0.00     0.382 C 
ATOM     23  O   LIG d   1       2.742  80.117 110.258  0.00  0.00    -0.241 OA
ATOM     24  O   LIG d   1       3.042  82.039 111.197  0.00  0.00    -0.241 OA
ENDBRANCH   3  22
TORSDOF 7
ENDMDL
