MODEL 1
REMARK VINA RESULT:      -5.3      0.000      0.000
REMARK  7 active torsions:
REMARK  status: ('A' for Active; 'I' for Inactive)
REMARK    1  A    between atoms: C_2  and  C_3 
REMARK    2  A    between atoms: C_3  and  O_6 
REMARK    3  A    between atoms: C_3  and  C_4 
REMARK    4  A    between atoms: C_7  and  O_6 
REMARK    5  A    between atoms: C_9  and  C_10 
REMARK    6  A    between atoms: N_15  and  C_14 
REMARK    7  A    between atoms: N_20  and  C_19 
REMARK       I    between atoms: C_22  and  N_20 
ROOT
ATOM      1  C   LIG d   1       0.409  83.212 112.223  0.00  0.00     0.161 C 
ATOM      2  C   LIG d   1      -0.818  82.776 112.749  0.00  0.00     0.016 C 
ATOM      3  C   LIG d   1      -1.382  81.511 112.462  0.00  0.00     0.038 C 
ATOM      4  C   LIG d   1      -0.678  80.531 111.746  0.00  0.00     0.028 C 
ATOM      5  C   LIG d   1       0.346  81.109 110.775  0.00  0.00    -0.047 C 
ATOM      6  C   LIG d   1       1.243  82.115 111.531  0.00  0.00     0.091 C 
ENDROOT
BRANCH   1   7
ATOM      7  O   LIG d   1       1.183  83.852 113.258  0.00  0.00    -0.368 OA
BRANCH   7   8
ATOM      8  C   LIG d   1       1.911  82.970 114.147  0.00  0.00     0.119 C 
BRANCH   8   9
ATOM      9  C   LIG d   1       1.295  83.117 115.551  0.00  0.00     0.028 C 
ATOM     10  C   LIG d   1       0.617  84.482 115.755  0.00  0.00     0.006 C 
ENDBRANCH   8   9
BRANCH   8  11
ATOM     11  C   LIG d   1       3.371  83.409 114.296  0.00  0.00     0.028 C 
ATOM     12  C   LIG d   1       3.708  84.651 113.456  0.00  0.00     0.006 C 
ENDBRANCH   8  11
ENDBRANCH   7   8
ENDBRANCH   1   7
BRANCH   6  13
ATOM     13  N   LIG d   1       2.219  82.789 110.634  0.00  0.00    -0.311 N 
ATOM     14  C   LIG d   1       3.446  82.325 110.405  0.00  0.00     0.210 C 
ATOM     15  C   LIG d   1       4.296  83.184 109.464  0.00  0.00     0.109 C 
ATOM     16  O   LIG d   1       3.899  81.266 110.865  0.00  0.00    -0.276 OA
ATOM     17  H   LIG d   1       1.922  83.638 110.194  0.00  0.00     0.149 HD
ENDBRANCH   6  13
BRANCH   5  18
ATOM     18  N   LIG d   1       1.100  79.979 110.199  0.00  0.00     0.381 N 
ATOM     19  H   LIG d   1       0.888  79.892 109.225  0.00  0.00    -0.090 HD
ATOM     20  H   LIG d   1       0.819  79.132 110.660  0.00  0.00    -0.090 HD
ATOM     21  H   LIG d   1       2.078  80.125 110.322  0.00  0.00    -0.090 HD
ENDBRANCH   5  18
BRANCH   3  22
ATOM     22  C   LIG d   1      -2.680  81.231 112.860  0.00  0.00     0.382 C 
ATOM     23  O   LIG d   1      -3.111  80.054 112.810  0.00  0.00    -0.241 OA
ATOM     24  O   LIG d   1      -3.440  82.147 113.227  0.00  0.00    -0.241 OA
ENDBRANCH   3  22
TORSDOF 7
ENDMDL
MODEL 2
REMARK VINA RESULT:      -5.1      1.981      5.031
REMARK  7 active torsions:
REMARK  status: ('A' for Active; 'I' for Inactive)
REMARK    1  A    between atoms: C_2  and  C_3 
REMARK    2  A    between atoms: C_3  and  O_6 
REMARK    3  A    between atoms: C_3  and  C_4 
REMARK    4  A    between atoms: C_7  and  O_6 
REMARK    5  A    between atoms: C_9  and  C_10 
REMARK    6  A    between atoms: N_15  and  C_14 
REMARK    7  A    between atoms: N_20  and  C_19 
REMARK       I    between atoms: C_22  and  N_20 
ROOT
ATOM      1  C   LIG d   1       0.874  81.680 113.304  0.00  0.00     0.161 C 
ATOM      2  C   LIG d   1       1.827  82.632 112.907  0.00  0.00     0.016 C 
ATOM      3  C   LIG d   1       2.159  82.884 111.556  0.00  0.00     0.038 C 
ATOM      4  C   LIG d   1       1.445  82.303 110.496  0.00  0.00     0.028 C 
ATOM      5  C   LIG d   1       0.817  80.960 110.853  0.00  0.00    -0.047 C 
ATOM      6  C   LIG d   1       0.006  81.117 112.160  0.00  0.00     0.091 C 
ENDROOT
BRANCH   1   7
ATOM      7  O   LIG d   1       0.039  82.229 114.343  0.00  0.00    -0.368 OA
BRANCH   7   8
ATOM      8  C   LIG d   1      -1.092  83.020 113.900  0.00  0.00     0.119 C 
BRANCH   8   9
ATOM      9  C   LIG d   1      -0.808  84.486 114.280  0.00  0.00     0.028 C 
ATOM     10  C   LIG d   1      -0.002  84.609 115.584  0.00  0.00     0.006 C 
ENDBRANCH   8   9
BRANCH   8  11
ATOM     11  C   LIG d   1      -2.367  82.644 114.659  0.00  0.00     0.028 C 
ATOM     12  C   LIG d   1      -2.132  81.552 115.715  0.00  0.00     0.006 C 
ENDBRANCH   8  11
ENDBRANCH   7   8
ENDBRANCH   1   7
BRANCH   6  13
ATOM     13  N   LIG d   1      -0.573  79.830 112.625  0.00  0.00    -0.311 N 
ATOM     14  C   LIG d   1      -1.873  79.546 112.566  0.00  0.00     0.210 C 
ATOM     15  C   LIG d   1      -2.260  78.171 113.118  0.00  0.00     0.109 C 
ATOM     16  O   LIG d   1      -2.738  80.290 112.080  0.00  0.00    -0.276 OA
ATOM     17  H   LIG d   1       0.062  79.155 113.006  0.00  0.00     0.149 HD
ENDBRANCH   6  13
BRANCH   5  18
ATOM     18  N   LIG d   1      -0.009  80.536 109.707  0.00  0.00     0.381 N 
ATOM     19  H   LIG d   1       0.580  80.204 108.970  0.00  0.00    -0.090 HD
ATOM     20  H   LIG d   1      -0.524  81.329 109.366  0.00  0.00    -0.090 HD
ATOM     21  H   LIG d   1      -0.638  79.817 109.988  0.00  0.00    -0.090 HD
ENDBRANCH   5  18
BRANCH   3  22
ATOM     22  C   LIG d   1       3.242  83.695 111.253  0.00  0.00     0.382 C 
ATOM     23  O   LIG d   1       3.324  84.236 110.125  0.00  0.00    -0.241 OA
ATOM     24  O   LIG d   1       4.160  83.857 112.080  0.00  0.00    -0.241 OA
ENDBRANCH   3  22
TORSDOF 7
ENDMDL
MODEL 3
REMARK VINA RESULT:      -5.0      1.947      5.036
REMARK  7 active torsions:
REMARK  status: ('A' for Active; 'I' for Inactive)
REMARK    1  A    between atoms: C_2  and  C_3 
REMARK    2  A    between atoms: C_3  and  O_6 
REMARK    3  A    between atoms: C_3  and  C_4 
REMARK    4  A    between atoms: C_7  and  O_6 
REMARK    5  A    between atoms: C_9  and  C_10 
REMARK    6  A    between atoms: N_15  and  C_14 
REMARK    7  A    between atoms: N_20  and  C_19 
REMARK       I    between atoms: C_22  and  N_20 
ROOT
ATOM      1  C   LIG d   1       0.984  82.117 112.873  0.00  0.00     0.161 C 
ATOM      2  C   LIG d   1       2.064  82.895 112.425  0.00  0.00     0.016 C 
ATOM      3  C   LIG d   1       2.527  82.887 111.089  0.00  0.00     0.038 C 
ATOM      4  C   LIG d   1       1.840  82.210 110.070  0.00  0.00     0.028 C 
ATOM      5  C   LIG d   1       1.044  81.010 110.571  0.00  0.00    -0.047 C 
ATOM      6  C   LIG d   1       0.153  81.456 111.753  0.00  0.00     0.091 C 
ENDROOT
BRANCH   1   7
ATOM      7  O   LIG d   1       0.134  82.907 113.728  0.00  0.00    -0.368 OA
BRANCH   7   8
ATOM      8  C   LIG d   1       0.201  82.610 115.144  0.00  0.00     0.119 C 
BRANCH   8   9
ATOM      9  C   LIG d   1       0.965  81.281 115.303  0.00  0.00     0.028 C 
ATOM     10  C   LIG d   1       0.158  80.230 116.084  0.00  0.00     0.006 C 
ENDBRANCH   8   9
BRANCH   8  11
ATOM     11  C   LIG d   1      -1.191  82.349 115.726  0.00  0.00     0.028 C 
ATOM     12  C   LIG d   1      -2.311  83.018 114.913  0.00  0.00     0.006 C 
ENDBRANCH   8  11
ENDBRANCH   7   8
ENDBRANCH   1   7
BRANCH   6  13
ATOM     13  N   LIG d   1      -0.597  80.324 112.356  0.00  0.00    -0.311 N 
ATOM     14  C   LIG d   1      -1.926  80.288 112.442  0.00  0.00     0.210 C 
ATOM     15  C   LIG d   1      -2.496  79.038 113.119  0.00  0.00     0.109 C 
ATOM     16  O   LIG d   1      -2.687  81.158 111.993  0.00  0.00    -0.276 OA
ATOM     17  H   LIG d   1      -0.059  79.562 112.718  0.00  0.00     0.149 HD
ENDBRANCH   6  13
BRANCH   5  18
ATOM     18  N   LIG d   1       0.270  80.482 109.431  0.00  0.00     0.381 N 
ATOM     19  H   LIG d   1      -0.108  79.585 109.665  0.00  0.00    -0.090 HD
ATOM     20  H   LIG d   1       0.885  80.369 108.645  0.00  0.00    -0.090 HD
ATOM     21  H   LIG d   1      -0.467  81.111 109.198  0.00  0.00    -0.090 HD
ENDBRANCH   5  18
BRANCH   3  22
ATOM     22  C   LIG d   1       3.712  83.531 110.768  0.00  0.00     0.382 C 
ATOM     23  O   LIG d   1       4.078  83.613 109.571  0.00  0.00    -0.241 OA
ATOM     24  O   LIG d   1       4.443  83.993 111.665  0.00  0.00    -0.241 OA
ENDBRANCH   3  22
TORSDOF 7
ENDMDL
MODEL 4
REMARK VINA RESULT:      -5.0      4.571      6.300
REMARK  7 active torsions:
REMARK  status: ('A' for Active; 'I' for Inactive)
REMARK    1  A    between atoms: C_2  and  C_3 
REMARK    2  A    between atoms: C_3  and  O_6 
REMARK    3  A    between atoms: C_3  and  C_4 
REMARK    4  A    between atoms: C_7  and  O_6 
REMARK    5  A    between atoms: C_9  and  C_10 
REMARK    6  A    between atoms: N_15  and  C_14 
REMARK    7  A    between atoms: N_20  and  C_19 
REMARK       I    between atoms: C_22  and  N_20 
ROOT
ATOM      1  C   LIG d   1      -0.719  79.530 115.682  0.00  0.00     0.161 C 
ATOM      2  C   LIG d   1      -1.319  80.767 115.395  0.00  0.00     0.016 C 
ATOM      3  C   LIG d   1      -2.055  81.020 114.215  0.00  0.00     0.038 C 
ATOM      4  C   LIG d   1      -2.371  80.000 113.305  0.00  0.00     0.028 C 
ATOM      5  C   LIG d   1      -1.361  78.857 113.302  0.00  0.00    -0.047 C 
ATOM      6  C   LIG d   1      -1.147  78.373 114.755  0.00  0.00     0.091 C 
ENDROOT
BRANCH   1   7
ATOM      7  O   LIG d   1      -0.955  79.180 117.060  0.00  0.00    -0.368 OA
BRANCH   7   8
ATOM      8  C   LIG d   1      -2.199  79.653 117.634  0.00  0.00     0.119 C 
BRANCH   8   9
ATOM      9  C   LIG d   1      -1.863  80.323 118.980  0.00  0.00     0.028 C 
ATOM     10  C   LIG d   1      -3.073  80.371 119.929  0.00  0.00     0.006 C 
ENDBRANCH   8   9
BRANCH   8  11
ATOM     11  C   LIG d   1      -3.130  78.487 117.981  0.00  0.00     0.028 C 
ATOM     12  C   LIG d   1      -2.394  77.141 118.067  0.00  0.00     0.006 C 
ENDBRANCH   8  11
ENDBRANCH   7   8
ENDBRANCH   1   7
BRANCH   6  13
ATOM     13  N   LIG d   1      -0.110  77.312 114.851  0.00  0.00    -0.311 N 
ATOM     14  C   LIG d   1      -0.392  76.011 114.868  0.00  0.00     0.210 C 
ATOM     15  C   LIG d   1       0.823  75.087 114.993  0.00  0.00     0.109 C 
ATOM     16  O   LIG d   1      -1.531  75.533 114.759  0.00  0.00    -0.276 OA
ATOM     17  H   LIG d   1       0.844  77.611 114.913  0.00  0.00     0.149 HD
ENDBRANCH   6  13
BRANCH   5  18
ATOM     18  N   LIG d   1      -1.884  77.802 112.413  0.00  0.00     0.381 N 
ATOM     19  H   LIG d   1      -1.182  77.539 111.750  0.00  0.00    -0.090 HD
ATOM     20  H   LIG d   1      -2.674  78.165 111.909  0.00  0.00    -0.090 HD
ATOM     21  H   LIG d   1      -2.159  77.009 112.949  0.00  0.00    -0.090 HD
ENDBRANCH   5  18
BRANCH   3  22
ATOM     22  C   LIG d   1      -2.450  82.315 113.915  0.00  0.00     0.382 C 
ATOM     23  O   LIG d   1      -3.343  82.872 114.598  0.00  0.00    -0.241 OA
ATOM     24  O   LIG d   1      -1.956  82.917 112.943  0.00  0.00    -0.241 OA
ENDBRANCH   3  22
TORSDOF 7
ENDMDL
MODEL 5
REMARK VINA RESULT:      -4.6      1.919      4.613
REMARK  7 active torsions:
REMARK  status: ('A' for Active; 'I' for Inactive)
REMARK    1  A    between atoms: C_2  and  C_3 
REMARK    2  A    between atoms: C_3  and  O_6 
REMARK    3  A    between atoms: C_3  and  C_4 
REMARK    4  A    between atoms: C_7  and  O_6 
REMARK    5  A    between atoms: C_9  and  C_10 
REMARK    6  A    between atoms: N_15  and  C_14 
REMARK    7  A    between atoms: N_20  and  C_19 
REMARK       I    between atoms: C_22  and  N_20 
ROOT
ATOM      1  C   LIG d   1       1.071  81.887 113.426  0.00  0.00     0.161 C 
ATOM      2  C   LIG d   1       1.937  81.811 112.322  0.00  0.00     0.016 C 
ATOM      3  C   LIG d   1       1.573  81.225 111.088  0.00  0.00     0.038 C 
ATOM      4  C   LIG d   1       0.260  80.808 110.823  0.00  0.00     0.028 C 
ATOM      5  C   LIG d   1      -0.511  80.404 112.075  0.00  0.00    -0.047 C 
ATOM      6  C   LIG d   1      -0.400  81.538 113.120  0.00  0.00     0.091 C 
ENDROOT
BRANCH   1   7
ATOM      7  O   LIG d   1       1.161  83.193 114.028  0.00  0.00    -0.368 OA
BRANCH   7   8
ATOM      8  C   LIG d   1       1.697  83.240 115.373  0.00  0.00     0.119 C 
BRANCH   8   9
ATOM      9  C   LIG d   1       0.620  83.866 116.280  0.00  0.00     0.028 C 
ATOM     10  C   LIG d   1      -0.416  84.679 115.485  0.00  0.00     0.006 C 
ENDBRANCH   8   9
BRANCH   8  11
ATOM     11  C   LIG d   1       2.900  84.183 115.462  0.00  0.00     0.028 C 
ATOM     12  C   LIG d   1       3.370  84.680 114.085  0.00  0.00     0.006 C 
ENDBRANCH   8  11
ENDBRANCH   7   8
ENDBRANCH   1   7
BRANCH   6  13
ATOM     13  N   LIG d   1      -1.056  81.188 114.407  0.00  0.00    -0.311 N 
ATOM     14  C   LIG d   1      -2.280  81.595 114.740  0.00  0.00     0.210 C 
ATOM     15  C   LIG d   1      -2.760  81.139 116.121  0.00  0.00     0.109 C 
ATOM     16  O   LIG d   1      -3.027  82.263 114.009  0.00  0.00    -0.276 OA
ATOM     17  H   LIG d   1      -0.534  80.622 115.047  0.00  0.00     0.149 HD
ENDBRANCH   6  13
BRANCH   5  18
ATOM     18  N   LIG d   1      -1.902  80.125 111.671  0.00  0.00     0.381 N 
ATOM     19  H   LIG d   1      -2.114  79.160 111.830  0.00  0.00    -0.090 HD
ATOM     20  H   LIG d   1      -1.999  80.311 110.688  0.00  0.00    -0.090 HD
ATOM     21  H   LIG d   1      -2.530  80.700 112.188  0.00  0.00    -0.090 HD
ENDBRANCH   5  18
BRANCH   3  22
ATOM     22  C   LIG d   1       2.539  81.015 110.116  0.00  0.00     0.382 C 
ATOM     23  O   LIG d   1       2.586  79.921 109.504  0.00  0.00    -0.241 OA
ATOM     24  O   LIG d   1       3.393  81.890 109.874  0.00  0.00    -0.241 OA
ENDBRANCH   3  22
TORSDOF 7
ENDMDL
MODEL 6
REMARK VINA RESULT:      -4.4      2.054      5.008
REMARK  7 active torsions:
REMARK  status: ('A' for Active; 'I' for Inactive)
REMARK    1  A    between atoms: C_2  and  C_3 
REMARK    2  A    between atoms: C_3  and  O_6 
REMARK    3  A    between atoms: C_3  and  C_4 
REMARK    4  A    between atoms: C_7  and  O_6 
REMARK    5  A    between atoms: C_9  and  C_10 
REMARK    6  A    between atoms: N_15  and  C_14 
REMARK    7  A    between atoms: N_20  and  C_19 
REMARK       I    between atoms: C_22  and  N_20 
ROOT
ATOM      1  C   LIG d   1       1.250  81.912 113.487  0.00  0.00     0.161 C 
ATOM      2  C   LIG d   1       2.141  82.755 112.802  0.00  0.00     0.016 C 
ATOM      3  C   LIG d   1       2.219  82.823 111.392  0.00  0.00     0.038 C 
ATOM      4  C   LIG d   1       1.300  82.160 110.566  0.00  0.00     0.028 C 
ATOM      5  C   LIG d   1       0.709  80.906 111.201  0.00  0.00    -0.047 C 
ATOM      6  C   LIG d   1       0.164  81.263 112.603  0.00  0.00     0.091 C 
ENDROOT
BRANCH   1   7
ATOM      7  O   LIG d   1       0.643  82.628 114.581  0.00  0.00    -0.368 OA
BRANCH   7   8
ATOM      8  C   LIG d   1       1.340  82.561 115.850  0.00  0.00     0.119 C 
BRANCH   8   9
ATOM      9  C   LIG d   1       2.008  81.176 115.939  0.00  0.00     0.028 C 
ATOM     10  C   LIG d   1       3.501  81.267 116.300  0.00  0.00     0.006 C 
ENDBRANCH   8   9
BRANCH   8  11
ATOM     11  C   LIG d   1       0.360  82.616 117.027  0.00  0.00     0.028 C 
ATOM     12  C   LIG d   1      -0.630  81.440 117.032  0.00  0.00     0.006 C 
ENDBRANCH   8  11
ENDBRANCH   7   8
ENDBRANCH   1   7
BRANCH   6  13
ATOM     13  N   LIG d   1      -0.357  80.075 113.329  0.00  0.00    -0.311 N 
ATOM     14  C   LIG d   1      -1.616  79.966 113.748  0.00  0.00     0.210 C 
ATOM     15  C   LIG d   1      -1.939  78.667 114.493  0.00  0.00     0.109 C 
ATOM     16  O   LIG d   1      -2.505  80.807 113.545  0.00  0.00    -0.276 OA
ATOM     17  H   LIG d   1       0.289  79.332 113.508  0.00  0.00     0.149 HD
ENDBRANCH   6  13
BRANCH   5  18
ATOM     18  N   LIG d   1      -0.331  80.393 110.290  0.00  0.00     0.381 N 
ATOM     19  H   LIG d   1      -0.541  79.441 110.517  0.00  0.00    -0.090 HD
ATOM     20  H   LIG d   1       0.018  80.422 109.348  0.00  0.00    -0.090 HD
ATOM     21  H   LIG d   1      -1.155  80.949 110.365  0.00  0.00    -0.090 HD
ENDBRANCH   5  18
BRANCH   3  22
ATOM     22  C   LIG d   1       3.251  83.532 110.795  0.00  0.00     0.382 C 
ATOM     23  O   LIG d   1       4.400  83.510 111.298  0.00  0.00    -0.241 OA
ATOM     24  O   LIG d   1       3.037  84.228 109.784  0.00  0.00    -0.241 OA
ENDBRANCH   3  22
TORSDOF 7
ENDMDL
MODEL 7
REMARK VINA RESULT:      -4.3      3.761      5.829
REMARK  7 active torsions:
REMARK  status: ('A' for Active; 'I' for Inactive)
REMARK    1  A    between atoms: C_2  and  C_3 
REMARK    2  A    between atoms: C_3  and  O_6 
REMARK    3  A    between atoms: C_3  and  C_4 
REMARK    4  A    between atoms: C_7  and  O_6 
REMARK    5  A    between atoms: C_9  and  C_10 
REMARK    6  A    between atoms: N_15  and  C_14 
REMARK    7  A    between atoms: N_20  and  C_19 
REMARK       I    between atoms: C_22  and  N_20 
ROOT
ATOM      1  C   LIG d   1      -0.841  80.721 115.465  0.00  0.00     0.161 C 
ATOM      2  C   LIG d   1      -0.896  82.093 115.167  0.00  0.00     0.016 C 
ATOM      3  C   LIG d   1      -0.916  82.602 113.848  0.00  0.00     0.038 C 
ATOM      4  C   LIG d   1      -1.037  81.763 112.731  0.00  0.00     0.028 C 
ATOM      5  C   LIG d   1      -0.476  80.364 112.961  0.00  0.00    -0.047 C 
ATOM      6  C   LIG d   1      -1.084  79.787 114.260  0.00  0.00     0.091 C 
ENDROOT
BRANCH   1   7
ATOM      7  O   LIG d   1      -1.763  80.415 116.530  0.00  0.00    -0.368 OA
BRANCH   7   8
ATOM      8  C   LIG d   1      -1.225  79.652 117.638  0.00  0.00     0.119 C 
BRANCH   8   9
ATOM      9  C   LIG d   1      -2.223  78.520 117.949  0.00  0.00     0.028 C 
ATOM     10  C   LIG d   1      -3.361  78.442 116.917  0.00  0.00     0.006 C 
ENDBRANCH   8   9
BRANCH   8  11
ATOM     11  C   LIG d   1      -1.160  80.496 118.915  0.00  0.00     0.028 C 
ATOM     12  C   LIG d   1      -2.512  80.589 119.638  0.00  0.00     0.006 C 
ENDBRANCH   8  11
ENDBRANCH   7   8
ENDBRANCH   1   7
BRANCH   6  13
ATOM     13  N   LIG d   1      -0.524  78.454 114.605  0.00  0.00    -0.311 N 
ATOM     14  C   LIG d   1      -1.108  77.305 114.268  0.00  0.00     0.210 C 
ATOM     15  C   LIG d   1      -0.375  76.045 114.739  0.00  0.00     0.109 C 
ATOM     16  O   LIG d   1      -2.146  77.209 113.596  0.00  0.00    -0.276 OA
ATOM     17  H   LIG d   1       0.333  78.439 115.122  0.00  0.00     0.149 HD
ENDBRANCH   6  13
BRANCH   5  18
ATOM     18  N   LIG d   1      -0.791  79.556 111.768  0.00  0.00     0.381 N 
ATOM     19  H   LIG d   1      -0.384  78.646 111.858  0.00  0.00    -0.090 HD
ATOM     20  H   LIG d   1      -0.392  80.001 110.960  0.00  0.00    -0.090 HD
ATOM     21  H   LIG d   1      -1.778  79.478 111.659  0.00  0.00    -0.090 HD
ENDBRANCH   5  18
BRANCH   3  22
ATOM     22  C   LIG d   1      -0.776  83.966 113.636  0.00  0.00     0.382 C 
ATOM     23  O   LIG d   1      -1.190  84.480 112.570  0.00  0.00    -0.241 OA
ATOM     24  O   LIG d   1      -0.201  84.680 114.479  0.00  0.00    -0.241 OA
ENDBRANCH   3  22
TORSDOF 7
ENDMDL
MODEL 8
REMARK VINA RESULT:      -4.2      1.734      2.056
REMARK  7 active torsions:
REMARK  status: ('A' for Active; 'I' for Inactive)
REMARK    1  A    between atoms: C_2  and  C_3 
REMARK    2  A    between atoms: C_3  and  O_6 
REMARK    3  A    between atoms: C_3  and  C_4 
REMARK    4  A    between atoms: C_7  and  O_6 
REMARK    5  A    between atoms: C_9  and  C_10 
REMARK    6  A    between atoms: N_15  and  C_14 
REMARK    7  A    between atoms: N_20  and  C_19 
REMARK       I    between atoms: C_22  and  N_20 
ROOT
ATOM      1  C   LIG d   1       0.041  82.389 113.705  0.00  0.00     0.161 C 
ATOM      2  C   LIG d   1      -0.903  81.573 114.350  0.00  0.00     0.016 C 
ATOM      3  C   LIG d   1      -1.383  80.359 113.807  0.00  0.00     0.038 C 
ATOM      4  C   LIG d   1      -0.834  79.799 112.643  0.00  0.00     0.028 C 
ATOM      5  C   LIG d   1      -0.239  80.835 111.696  0.00  0.00    -0.047 C 
ATOM      6  C   LIG d   1       0.733  81.740 112.488  0.00  0.00     0.091 C 
ENDROOT
BRANCH   1   7
ATOM      7  O   LIG d   1       1.024  82.844 114.656  0.00  0.00    -0.368 OA
BRANCH   7   8
ATOM      8  C   LIG d   1       1.125  82.081 115.883  0.00  0.00     0.119 C 
BRANCH   8   9
ATOM      9  C   LIG d   1       1.101  83.083 117.054  0.00  0.00     0.028 C 
ATOM     10  C   LIG d   1       0.792  84.517 116.593  0.00  0.00     0.006 C 
ENDBRANCH   8   9
BRANCH   8  11
ATOM     11  C   LIG d   1       2.477  81.369 115.987  0.00  0.00     0.028 C 
ATOM     12  C   LIG d   1       3.005  81.300 117.428  0.00  0.00     0.006 C 
ENDBRANCH   8  11
ENDBRANCH   7   8
ENDBRANCH   1   7
BRANCH   6  13
ATOM     13  N   LIG d   1       1.295  82.834 111.654  0.00  0.00    -0.311 N 
ATOM     14  C   LIG d   1       2.487  82.767 111.063  0.00  0.00     0.210 C 
ATOM     15  C   LIG d   1       2.885  84.013 110.266  0.00  0.00     0.109 C 
ATOM     16  O   LIG d   1       3.239  81.781 111.098  0.00  0.00    -0.276 OA
ATOM     17  H   LIG d   1       0.738  83.659 111.548  0.00  0.00     0.149 HD
ENDBRANCH   6  13
BRANCH   5  18
ATOM     18  N   LIG d   1       0.418  80.107 110.594  0.00  0.00     0.381 N 
ATOM     19  H   LIG d   1       1.404  80.276 110.616  0.00  0.00    -0.090 HD
ATOM     20  H   LIG d   1       0.059  80.447 109.720  0.00  0.00    -0.090 HD
ATOM     21  H   LIG d   1       0.240  79.130 110.677  0.00  0.00    -0.090 HD
ENDBRANCH   5  18
BRANCH   3  22
ATOM     22  C   LIG d   1      -2.450  79.711 114.409  0.00  0.00     0.382 C 
ATOM     23  O   LIG d   1      -2.795  78.570 114.015  0.00  0.00    -0.241 OA
ATOM     24  O   LIG d   1      -3.102  80.271 115.311  0.00  0.00    -0.241 OA
ENDBRANCH   3  22
TORSDOF 7
ENDMDL
MODEL 9
REMARK VINA RESULT:      -4.2      3.064      4.133
REMARK  7 active torsions:
REMARK  status: ('A' for Active; 'I' for Inactive)
REMARK    1  A    between atoms: C_2  and  C_3 
REMARK    2  A    between atoms: C_3  and  O_6 
REMARK    3  A    between atoms: C_3  and  C_4 
REMARK    4  A    between atoms: C_7  and  O_6 
REMARK    5  A    between atoms: C_9  and  C_10 
REMARK    6  A    between atoms: N_15  and  C_14 
REMARK    7  A    between atoms: N_20  and  C_19 
REMARK       I    between atoms: C_22  and  N_20 
ROOT
ATOM      1  C   LIG d   1      -0.349  82.108 115.567  0.00  0.00     0.161 C 
ATOM      2  C   LIG d   1      -1.476  81.635 114.875  0.00  0.00     0.016 C 
ATOM      3  C   LIG d   1      -1.424  81.135 113.554  0.00  0.00     0.038 C 
ATOM      4  C   LIG d   1      -0.208  80.931 112.885  0.00  0.00     0.028 C 
ATOM      5  C   LIG d   1       0.904  81.863 113.354  0.00  0.00    -0.047 C 
ATOM      6  C   LIG d   1       1.003  81.791 114.895  0.00  0.00     0.091 C 
ENDROOT
BRANCH   1   7
ATOM      7  O   LIG d   1      -0.364  81.612 116.921  0.00  0.00    -0.368 OA
BRANCH   7   8
ATOM      8  C   LIG d   1       0.025  80.228 117.097  0.00  0.00     0.119 C 
BRANCH   8   9
ATOM      9  C   LIG d   1      -1.090  79.533 117.903  0.00  0.00     0.028 C 
ATOM     10  C   LIG d   1      -2.182  80.514 118.360  0.00  0.00     0.006 C 
ENDBRANCH   8   9
BRANCH   8  11
ATOM     11  C   LIG d   1       1.284  80.108 117.960  0.00  0.00     0.028 C 
ATOM     12  C   LIG d   1       1.492  81.320 118.883  0.00  0.00     0.006 C 
ENDBRANCH   8  11
ENDBRANCH   7   8
ENDBRANCH   1   7
BRANCH   6  13
ATOM     13  N   LIG d   1       2.011  82.735 115.443  0.00  0.00    -0.311 N 
ATOM     14  C   LIG d   1       3.266  82.388 115.723  0.00  0.00     0.210 C 
ATOM     15  C   LIG d   1       4.135  83.510 116.299  0.00  0.00     0.109 C 
ATOM     16  O   LIG d   1       3.751  81.265 115.518  0.00  0.00    -0.276 OA
ATOM     17  H   LIG d   1       1.711  83.676 115.611  0.00  0.00     0.149 HD
ENDBRANCH   6  13
BRANCH   5  18
ATOM     18  N   LIG d   1       2.147  81.451 112.675  0.00  0.00     0.381 N 
ATOM     19  H   LIG d   1       2.879  82.101 112.883  0.00  0.00    -0.090 HD
ATOM     20  H   LIG d   1       1.993  81.458 111.682  0.00  0.00    -0.090 HD
ATOM     21  H   LIG d   1       2.410  80.537 112.971  0.00  0.00    -0.090 HD
ENDBRANCH   5  18
BRANCH   3  22
ATOM     22  C   LIG d   1      -2.603  80.869 112.873  0.00  0.00     0.382 C 
ATOM     23  O   LIG d   1      -3.141  79.740 112.969  0.00  0.00    -0.241 OA
ATOM     24  O   LIG d   1      -3.110  81.729 112.129  0.00  0.00    -0.241 OA
ENDBRANCH   3  22
TORSDOF 7
ENDMDL
