MODEL 1
REMARK VINA RESULT:      -5.3      0.000      0.000
REMARK  7 active torsions:
REMARK  status: ('A' for Active; 'I' for Inactive)
REMARK    1  A    between atoms: C_2  and  C_3 
REMARK    2  A    between atoms: C_3  and  O_6 
REMARK    3  A    between atoms: C_3  and  C_4 
REMARK    4  A    between atoms: C_7  and  O_6 
REMARK    5  A    between atoms: C_9  and  C_10 
REMARK    6  A    between atoms: N_15  and  C_14 
REMARK    7  A    between atoms: N_20  and  C_19 
REMARK       I    between atoms: C_22  and  N_20 
ROOT
ATOM      1  C   LIG d   1       1.088  80.743 111.136  0.00  0.00     0.161 C 
ATOM      2  C   LIG d   1       0.311  79.662 110.686  0.00  0.00     0.016 C 
ATOM      3  C   LIG d   1      -0.805  79.158 111.394  0.00  0.00     0.038 C 
ATOM      4  C   LIG d   1      -1.314  79.802 112.531  0.00  0.00     0.028 C 
ATOM      5  C   LIG d   1      -0.262  80.594 113.301  0.00  0.00    -0.047 C 
ATOM      6  C   LIG d   1       0.481  81.528 112.318  0.00  0.00     0.091 C 
ENDROOT
BRANCH   1   7
ATOM      7  O   LIG d   1       1.371  81.632 110.037  0.00  0.00    -0.368 OA
BRANCH   7   8
ATOM      8  C   LIG d   1       2.680  81.497 109.430  0.00  0.00     0.119 C 
BRANCH   8   9
ATOM      9  C   LIG d   1       3.491  80.511 110.292  0.00  0.00     0.028 C 
ATOM     10  C   LIG d   1       4.253  79.479 109.444  0.00  0.00     0.006 C 
ENDBRANCH   8   9
BRANCH   8  11
ATOM     11  C   LIG d   1       3.456  82.816 109.484  0.00  0.00     0.028 C 
ATOM     12  C   LIG d   1       4.652  82.765 110.448  0.00  0.00     0.006 C 
ENDBRANCH   8  11
ENDBRANCH   7   8
ENDBRANCH   1   7
BRANCH   6  13
ATOM     13  N   LIG d   1       1.584  82.278 112.973  0.00  0.00    -0.311 N 
ATOM     14  C   LIG d   1       1.874  83.548 112.695  0.00  0.00     0.210 C 
ATOM     15  C   LIG d   1       3.062  84.125 113.469  0.00  0.00     0.109 C 
ATOM     16  O   LIG d   1       1.239  84.261 111.903  0.00  0.00    -0.276 OA
ATOM     17  H   LIG d   1       2.130  81.785 113.652  0.00  0.00     0.149 HD
ENDBRANCH   6  13
BRANCH   5  18
ATOM     18  N   LIG d   1      -0.955  81.324 114.380  0.00  0.00     0.381 N 
ATOM     19  H   LIG d   1      -1.811  81.708 114.033  0.00  0.00    -0.090 HD
ATOM     20  H   LIG d   1      -0.370  82.081 114.687  0.00  0.00    -0.090 HD
ATOM     21  H   LIG d   1      -1.143  80.709 115.141  0.00  0.00    -0.090 HD
ENDBRANCH   5  18
BRANCH   3  22
ATOM     22  C   LIG d   1      -1.400  77.974 110.985  0.00  0.00     0.382 C 
ATOM     23  O   LIG d   1      -2.488  78.001 110.362  0.00  0.00    -0.241 OA
ATOM     24  O   LIG d   1      -0.884  76.877 111.272  0.00  0.00    -0.241 OA
ENDBRANCH   3  22
TORSDOF 7
ENDMDL
MODEL 2
REMARK VINA RESULT:      -5.1      2.673      5.920
REMARK  7 active torsions:
REMARK  status: ('A' for Active; 'I' for Inactive)
REMARK    1  A    between atoms: C_2  and  C_3 
REMARK    2  A    between atoms: C_3  and  O_6 
REMARK    3  A    between atoms: C_3  and  C_4 
REMARK    4  A    between atoms: C_7  and  O_6 
REMARK    5  A    between atoms: C_9  and  C_10 
REMARK    6  A    between atoms: N_15  and  C_14 
REMARK    7  A    between atoms: N_20  and  C_19 
REMARK       I    between atoms: C_22  and  N_20 
ROOT
ATOM      1  C   LIG d   1       0.853  80.932 112.940  0.00  0.00     0.161 C 
ATOM      2  C   LIG d   1       1.799  81.854 112.465  0.00  0.00     0.016 C 
ATOM      3  C   LIG d   1       2.009  82.117 111.091  0.00  0.00     0.038 C 
ATOM      4  C   LIG d   1       1.174  81.581 110.099  0.00  0.00     0.028 C 
ATOM      5  C   LIG d   1       0.533  80.257 110.497  0.00  0.00    -0.047 C 
ATOM      6  C   LIG d   1      -0.142  80.421 111.877  0.00  0.00     0.091 C 
ENDROOT
BRANCH   1   7
ATOM      7  O   LIG d   1       0.143  81.494 114.062  0.00  0.00    -0.368 OA
BRANCH   7   8
ATOM      8  C   LIG d   1       0.279  80.789 115.320  0.00  0.00     0.119 C 
BRANCH   8   9
ATOM      9  C   LIG d   1      -1.141  80.539 115.866  0.00  0.00     0.028 C 
ATOM     10  C   LIG d   1      -1.321  79.106 116.396  0.00  0.00     0.006 C 
ENDBRANCH   8   9
BRANCH   8  11
ATOM     11  C   LIG d   1       0.971  81.658 116.374  0.00  0.00     0.028 C 
ATOM     12  C   LIG d   1       2.459  81.314 116.547  0.00  0.00     0.006 C 
ENDBRANCH   8  11
ENDBRANCH   7   8
ENDBRANCH   1   7
BRANCH   6  13
ATOM     13  N   LIG d   1      -0.722  79.148 112.380  0.00  0.00    -0.311 N 
ATOM     14  C   LIG d   1      -2.018  78.985 112.640  0.00  0.00     0.210 C 
ATOM     15  C   LIG d   1      -2.403  77.600 113.169  0.00  0.00     0.109 C 
ATOM     16  O   LIG d   1      -2.891  79.847 112.454  0.00  0.00    -0.276 OA
ATOM     17  H   LIG d   1      -0.090  78.386 112.530  0.00  0.00     0.149 HD
ENDBRANCH   6  13
BRANCH   5  18
ATOM     18  N   LIG d   1      -0.415  79.882 109.430  0.00  0.00     0.381 N 
ATOM     19  H   LIG d   1      -1.339  79.809 109.808  0.00  0.00    -0.090 HD
ATOM     20  H   LIG d   1      -0.153  78.985 109.062  0.00  0.00    -0.090 HD
ATOM     21  H   LIG d   1      -0.399  80.565 108.705  0.00  0.00    -0.090 HD
ENDBRANCH   5  18
BRANCH   3  22
ATOM     22  C   LIG d   1       3.088  82.893 110.697  0.00  0.00     0.382 C 
ATOM     23  O   LIG d   1       2.982  83.658 109.708  0.00  0.00    -0.241 OA
ATOM     24  O   LIG d   1       4.180  82.803 111.289  0.00  0.00    -0.241 OA
ENDBRANCH   3  22
TORSDOF 7
ENDMDL
MODEL 3
REMARK VINA RESULT:      -5.1      2.099      4.006
REMARK  7 active torsions:
REMARK  status: ('A' for Active; 'I' for Inactive)
REMARK    1  A    between atoms: C_2  and  C_3 
REMARK    2  A    between atoms: C_3  and  O_6 
REMARK    3  A    between atoms: C_3  and  C_4 
REMARK    4  A    between atoms: C_7  and  O_6 
REMARK    5  A    between atoms: C_9  and  C_10 
REMARK    6  A    between atoms: N_15  and  C_14 
REMARK    7  A    between atoms: N_20  and  C_19 
REMARK       I    between atoms: C_22  and  N_20 
ROOT
ATOM      1  C   LIG d   1      -0.271  81.289 112.179  0.00  0.00     0.161 C 
ATOM      2  C   LIG d   1      -0.975  80.080 112.049  0.00  0.00     0.016 C 
ATOM      3  C   LIG d   1      -0.599  79.053 111.154  0.00  0.00     0.038 C 
ATOM      4  C   LIG d   1       0.602  79.103 110.431  0.00  0.00     0.028 C 
ATOM      5  C   LIG d   1       1.083  80.523 110.153  0.00  0.00    -0.047 C 
ATOM      6  C   LIG d   1       1.104  81.315 111.480  0.00  0.00     0.091 C 
ENDROOT
BRANCH   1   7
ATOM      7  O   LIG d   1      -0.131  81.625 113.574  0.00  0.00    -0.368 OA
BRANCH   7   8
ATOM      8  C   LIG d   1       0.568  80.657 114.395  0.00  0.00     0.119 C 
BRANCH   8   9
ATOM      9  C   LIG d   1      -0.412  80.179 115.483  0.00  0.00     0.028 C 
ATOM     10  C   LIG d   1      -0.693  78.669 115.397  0.00  0.00     0.006 C 
ENDBRANCH   8   9
BRANCH   8  11
ATOM     11  C   LIG d   1       1.730  81.306 115.154  0.00  0.00     0.028 C 
ATOM     12  C   LIG d   1       1.330  81.788 116.557  0.00  0.00     0.006 C 
ENDBRANCH   8  11
ENDBRANCH   7   8
ENDBRANCH   1   7
BRANCH   6  13
ATOM     13  N   LIG d   1       1.482  82.739 111.284  0.00  0.00    -0.311 N 
ATOM     14  C   LIG d   1       2.743  83.169 111.287  0.00  0.00     0.210 C 
ATOM     15  C   LIG d   1       2.910  84.679 111.088  0.00  0.00     0.109 C 
ATOM     16  O   LIG d   1       3.739  82.440 111.404  0.00  0.00    -0.276 OA
ATOM     17  H   LIG d   1       0.737  83.394 111.152  0.00  0.00     0.149 HD
ENDBRANCH   6  13
BRANCH   5  18
ATOM     18  N   LIG d   1       2.410  80.427 109.516  0.00  0.00     0.381 N 
ATOM     19  H   LIG d   1       3.121  80.386 110.218  0.00  0.00    -0.090 HD
ATOM     20  H   LIG d   1       2.564  81.250 108.959  0.00  0.00    -0.090 HD
ATOM     21  H   LIG d   1       2.455  79.615 108.940  0.00  0.00    -0.090 HD
ENDBRANCH   5  18
BRANCH   3  22
ATOM     22  C   LIG d   1      -1.449  77.977 110.945  0.00  0.00     0.382 C 
ATOM     23  O   LIG d   1      -2.692  78.145 110.981  0.00  0.00    -0.241 OA
ATOM     24  O   LIG d   1      -0.989  76.834 110.764  0.00  0.00    -0.241 OA
ENDBRANCH   3  22
TORSDOF 7
ENDMDL
MODEL 4
REMARK VINA RESULT:      -5.0      3.329      6.258
REMARK  7 active torsions:
REMARK  status: ('A' for Active; 'I' for Inactive)
REMARK    1  A    between atoms: C_2  and  C_3 
REMARK    2  A    between atoms: C_3  and  O_6 
REMARK    3  A    between atoms: C_3  and  C_4 
REMARK    4  A    between atoms: C_7  and  O_6 
REMARK    5  A    between atoms: C_9  and  C_10 
REMARK    6  A    between atoms: N_15  and  C_14 
REMARK    7  A    between atoms: N_20  and  C_19 
REMARK       I    between atoms: C_22  and  N_20 
ROOT
ATOM      1  C   LIG d   1      -2.240  80.475 114.331  0.00  0.00     0.161 C 
ATOM      2  C   LIG d   1      -1.993  81.155 113.127  0.00  0.00     0.016 C 
ATOM      3  C   LIG d   1      -0.701  81.538 112.701  0.00  0.00     0.038 C 
ATOM      4  C   LIG d   1       0.456  81.130 113.381  0.00  0.00     0.028 C 
ATOM      5  C   LIG d   1       0.226  80.875 114.867  0.00  0.00    -0.047 C 
ATOM      6  C   LIG d   1      -0.981  79.923 115.032  0.00  0.00     0.091 C 
ENDROOT
BRANCH   1   7
ATOM      7  O   LIG d   1      -3.193  79.417 114.108  0.00  0.00    -0.368 OA
BRANCH   7   8
ATOM      8  C   LIG d   1      -2.655  78.171 113.599  0.00  0.00     0.119 C 
BRANCH   8   9
ATOM      9  C   LIG d   1      -2.991  78.102 112.096  0.00  0.00     0.028 C 
ATOM     10  C   LIG d   1      -1.733  78.131 111.212  0.00  0.00     0.006 C 
ENDBRANCH   8   9
BRANCH   8  11
ATOM     11  C   LIG d   1      -3.356  76.963 114.227  0.00  0.00     0.028 C 
ATOM     12  C   LIG d   1      -2.389  76.045 114.991  0.00  0.00     0.006 C 
ENDBRANCH   8  11
ENDBRANCH   7   8
ENDBRANCH   1   7
BRANCH   6  13
ATOM     13  N   LIG d   1      -1.327  79.689 116.458  0.00  0.00    -0.311 N 
ATOM     14  C   LIG d   1      -0.829  78.684 117.178  0.00  0.00     0.210 C 
ATOM     15  C   LIG d   1      -1.332  78.612 118.623  0.00  0.00     0.109 C 
ATOM     16  O   LIG d   1       0.006  77.865 116.766  0.00  0.00    -0.276 OA
ATOM     17  H   LIG d   1      -1.974  80.325 116.882  0.00  0.00     0.149 HD
ENDBRANCH   6  13
BRANCH   5  18
ATOM     18  N   LIG d   1       1.477  80.325 115.424  0.00  0.00     0.381 N 
ATOM     19  H   LIG d   1       1.469  79.327 115.353  0.00  0.00    -0.090 HD
ATOM     20  H   LIG d   1       1.536  80.571 116.396  0.00  0.00    -0.090 HD
ATOM     21  H   LIG d   1       2.260  80.694 114.931  0.00  0.00    -0.090 HD
ENDBRANCH   5  18
BRANCH   3  22
ATOM     22  C   LIG d   1      -0.559  82.372 111.602  0.00  0.00     0.382 C 
ATOM     23  O   LIG d   1      -0.930  83.569 111.671  0.00  0.00    -0.241 OA
ATOM     24  O   LIG d   1      -0.105  81.932 110.529  0.00  0.00    -0.241 OA
ENDBRANCH   3  22
TORSDOF 7
ENDMDL
MODEL 5
REMARK VINA RESULT:      -5.0      2.681      6.112
REMARK  7 active torsions:
REMARK  status: ('A' for Active; 'I' for Inactive)
REMARK    1  A    between atoms: C_2  and  C_3 
REMARK    2  A    between atoms: C_3  and  O_6 
REMARK    3  A    between atoms: C_3  and  C_4 
REMARK    4  A    between atoms: C_7  and  O_6 
REMARK    5  A    between atoms: C_9  and  C_10 
REMARK    6  A    between atoms: N_15  and  C_14 
REMARK    7  A    between atoms: N_20  and  C_19 
REMARK       I    between atoms: C_22  and  N_20 
ROOT
ATOM      1  C   LIG d   1       0.379  80.653 113.039  0.00  0.00     0.161 C 
ATOM      2  C   LIG d   1       1.415  81.500 112.612  0.00  0.00     0.016 C 
ATOM      3  C   LIG d   1       1.805  81.631 111.259  0.00  0.00     0.038 C 
ATOM      4  C   LIG d   1       1.080  81.035 110.217  0.00  0.00     0.028 C 
ATOM      5  C   LIG d   1       0.338  79.771 110.641  0.00  0.00    -0.047 C 
ATOM      6  C   LIG d   1      -0.497  80.080 111.905  0.00  0.00     0.091 C 
ENDROOT
BRANCH   1   7
ATOM      7  O   LIG d   1      -0.441  81.336 114.008  0.00  0.00    -0.368 OA
BRANCH   7   8
ATOM      8  C   LIG d   1      -0.360  80.847 115.369  0.00  0.00     0.119 C 
BRANCH   8   9
ATOM      9  C   LIG d   1       0.741  81.652 116.086  0.00  0.00     0.028 C 
ATOM     10  C   LIG d   1       0.286  82.176 117.459  0.00  0.00     0.006 C 
ENDBRANCH   8   9
BRANCH   8  11
ATOM     11  C   LIG d   1       0.112  79.390 115.411  0.00  0.00     0.028 C 
ATOM     12  C   LIG d   1      -0.838  78.478 116.203  0.00  0.00     0.006 C 
ENDBRANCH   8  11
ENDBRANCH   7   8
ENDBRANCH   1   7
BRANCH   6  13
ATOM     13  N   LIG d   1      -1.188  78.876 112.435  0.00  0.00    -0.311 N 
ATOM     14  C   LIG d   1      -2.484  78.850 112.741  0.00  0.00     0.210 C 
ATOM     15  C   LIG d   1      -2.992  77.514 113.292  0.00  0.00     0.109 C 
ATOM     16  O   LIG d   1      -3.269  79.797 112.577  0.00  0.00    -0.276 OA
ATOM     17  H   LIG d   1      -0.633  78.053 112.570  0.00  0.00     0.149 HD
ENDBRANCH   6  13
BRANCH   5  18
ATOM     18  N   LIG d   1      -0.484  79.333 109.498  0.00  0.00     0.381 N 
ATOM     19  H   LIG d   1      -0.664  78.351 109.567  0.00  0.00    -0.090 HD
ATOM     20  H   LIG d   1       0.025  79.501 108.648  0.00  0.00    -0.090 HD
ATOM     21  H   LIG d   1      -1.344  79.835 109.484  0.00  0.00    -0.090 HD
ENDBRANCH   5  18
BRANCH   3  22
ATOM     22  C   LIG d   1       2.957  82.334 110.941  0.00  0.00     0.382 C 
ATOM     23  O   LIG d   1       4.071  81.757 110.966  0.00  0.00    -0.241 OA
ATOM     24  O   LIG d   1       2.902  83.549 110.673  0.00  0.00    -0.241 OA
ENDBRANCH   3  22
TORSDOF 7
ENDMDL
MODEL 6
REMARK VINA RESULT:      -4.9      4.319      6.956
REMARK  7 active torsions:
REMARK  status: ('A' for Active; 'I' for Inactive)
REMARK    1  A    between atoms: C_2  and  C_3 
REMARK    2  A    between atoms: C_3  and  O_6 
REMARK    3  A    between atoms: C_3  and  C_4 
REMARK    4  A    between atoms: C_7  and  O_6 
REMARK    5  A    between atoms: C_9  and  C_10 
REMARK    6  A    between atoms: N_15  and  C_14 
REMARK    7  A    between atoms: N_20  and  C_19 
REMARK       I    between atoms: C_22  and  N_20 
ROOT
ATOM      1  C   LIG d   1      -2.166  79.538 116.135  0.00  0.00     0.161 C 
ATOM      2  C   LIG d   1      -2.586  80.167 114.952  0.00  0.00     0.016 C 
ATOM      3  C   LIG d   1      -1.705  80.833 114.070  0.00  0.00     0.038 C 
ATOM      4  C   LIG d   1      -0.313  80.785 114.236  0.00  0.00     0.028 C 
ATOM      5  C   LIG d   1       0.118  80.591 115.686  0.00  0.00    -0.047 C 
ATOM      6  C   LIG d   1      -0.638  79.379 116.276  0.00  0.00     0.091 C 
ENDROOT
BRANCH   1   7
ATOM      7  O   LIG d   1      -2.817  78.258 116.266  0.00  0.00    -0.368 OA
BRANCH   7   8
ATOM      8  C   LIG d   1      -2.194  77.152 115.568  0.00  0.00     0.119 C 
BRANCH   8   9
ATOM      9  C   LIG d   1      -3.035  76.866 114.309  0.00  0.00     0.028 C 
ATOM     10  C   LIG d   1      -2.355  77.365 113.023  0.00  0.00     0.006 C 
ENDBRANCH   8   9
BRANCH   8  11
ATOM     11  C   LIG d   1      -2.254  75.866 116.397  0.00  0.00     0.028 C 
ATOM     12  C   LIG d   1      -0.918  75.106 116.417  0.00  0.00     0.006 C 
ENDBRANCH   8  11
ENDBRANCH   7   8
ENDBRANCH   1   7
BRANCH   6  13
ATOM     13  N   LIG d   1      -0.338  79.170 117.717  0.00  0.00    -0.311 N 
ATOM     14  C   LIG d   1       0.566  78.298 118.159  0.00  0.00     0.210 C 
ATOM     15  C   LIG d   1       0.705  78.226 119.682  0.00  0.00     0.109 C 
ATOM     16  O   LIG d   1       1.289  77.599 117.432  0.00  0.00    -0.276 OA
ATOM     17  H   LIG d   1      -0.856  79.719 118.374  0.00  0.00     0.149 HD
ENDBRANCH   6  13
BRANCH   5  18
ATOM     18  N   LIG d   1       1.583  80.420 115.696  0.00  0.00     0.381 N 
ATOM     19  H   LIG d   1       1.871  80.017 116.566  0.00  0.00    -0.090 HD
ATOM     20  H   LIG d   1       2.016  81.322 115.608  0.00  0.00    -0.090 HD
ATOM     21  H   LIG d   1       1.864  79.834 114.941  0.00  0.00    -0.090 HD
ENDBRANCH   5  18
BRANCH   3  22
ATOM     22  C   LIG d   1      -2.218  81.592 113.028  0.00  0.00     0.382 C 
ATOM     23  O   LIG d   1      -3.437  81.521 112.743  0.00  0.00    -0.241 OA
ATOM     24  O   LIG d   1      -1.468  82.313 112.343  0.00  0.00    -0.241 OA
ENDBRANCH   3  22
TORSDOF 7
ENDMDL
MODEL 7
REMARK VINA RESULT:      -4.8      2.397      2.864
REMARK  7 active torsions:
REMARK  status: ('A' for Active; 'I' for Inactive)
REMARK    1  A    between atoms: C_2  and  C_3 
REMARK    2  A    between atoms: C_3  and  O_6 
REMARK    3  A    between atoms: C_3  and  C_4 
REMARK    4  A    between atoms: C_7  and  O_6 
REMARK    5  A    between atoms: C_9  and  C_10 
REMARK    6  A    between atoms: N_15  and  C_14 
REMARK    7  A    between atoms: N_20  and  C_19 
REMARK       I    between atoms: C_22  and  N_20 
ROOT
ATOM      1  C   LIG d   1       0.036  80.694 112.865  0.00  0.00     0.161 C 
ATOM      2  C   LIG d   1      -0.882  79.904 112.153  0.00  0.00     0.016 C 
ATOM      3  C   LIG d   1      -1.690  78.914 112.758  0.00  0.00     0.038 C 
ATOM      4  C   LIG d   1      -1.744  78.750 114.150  0.00  0.00     0.028 C 
ATOM      5  C   LIG d   1      -0.465  79.179 114.861  0.00  0.00    -0.047 C 
ATOM      6  C   LIG d   1      -0.090  80.606 114.401  0.00  0.00     0.091 C 
ENDROOT
BRANCH   1   7
ATOM      7  O   LIG d   1      -0.061  82.066 112.433  0.00  0.00    -0.368 OA
BRANCH   7   8
ATOM      8  C   LIG d   1       0.623  82.394 111.198  0.00  0.00     0.119 C 
BRANCH   8   9
ATOM      9  C   LIG d   1       2.130  82.173 111.430  0.00  0.00     0.028 C 
ATOM     10  C   LIG d   1       2.730  81.147 110.453  0.00  0.00     0.006 C 
ENDBRANCH   8   9
BRANCH   8  11
ATOM     11  C   LIG d   1       0.479  83.881 110.860  0.00  0.00     0.028 C 
ATOM     12  C   LIG d   1       0.933  84.214 109.430  0.00  0.00     0.006 C 
ENDBRANCH   8  11
ENDBRANCH   7   8
ENDBRANCH   1   7
BRANCH   6  13
ATOM     13  N   LIG d   1       1.196  81.070 114.984  0.00  0.00    -0.311 N 
ATOM     14  C   LIG d   1       1.279  81.759 116.121  0.00  0.00     0.210 C 
ATOM     15  C   LIG d   1       2.699  82.156 116.535  0.00  0.00     0.109 C 
ATOM     16  O   LIG d   1       0.313  82.050 116.843  0.00  0.00    -0.276 OA
ATOM     17  H   LIG d   1       2.032  80.850 114.480  0.00  0.00     0.149 HD
ENDBRANCH   6  13
BRANCH   5  18
ATOM     18  N   LIG d   1      -0.709  79.085 116.313  0.00  0.00     0.381 N 
ATOM     19  H   LIG d   1      -1.434  78.419 116.492  0.00  0.00    -0.090 HD
ATOM     20  H   LIG d   1      -1.013  79.981 116.650  0.00  0.00    -0.090 HD
ATOM     21  H   LIG d   1       0.127  78.811 116.782  0.00  0.00    -0.090 HD
ENDBRANCH   5  18
BRANCH   3  22
ATOM     22  C   LIG d   1      -2.426  78.048 111.963  0.00  0.00     0.382 C 
ATOM     23  O   LIG d   1      -2.296  78.078 110.716  0.00  0.00    -0.241 OA
ATOM     24  O   LIG d   1      -3.251  77.268 112.475  0.00  0.00    -0.241 OA
ENDBRANCH   3  22
TORSDOF 7
ENDMDL
MODEL 8
REMARK VINA RESULT:      -4.7      3.593      5.804
REMARK  7 active torsions:
REMARK  status: ('A' for Active; 'I' for Inactive)
REMARK    1  A    between atoms: C_2  and  C_3 
REMARK    2  A    between atoms: C_3  and  O_6 
REMARK    3  A    between atoms: C_3  and  C_4 
REMARK    4  A    between atoms: C_7  and  O_6 
REMARK    5  A    between atoms: C_9  and  C_10 
REMARK    6  A    between atoms: N_15  and  C_14 
REMARK    7  A    between atoms: N_20  and  C_19 
REMARK       I    between atoms: C_22  and  N_20 
ROOT
ATOM      1  C   LIG d   1      -0.795  79.270 115.120  0.00  0.00     0.161 C 
ATOM      2  C   LIG d   1      -1.464  78.467 114.182  0.00  0.00     0.016 C 
ATOM      3  C   LIG d   1      -1.535  78.775 112.804  0.00  0.00     0.038 C 
ATOM      4  C   LIG d   1      -0.808  79.835 112.243  0.00  0.00     0.028 C 
ATOM      5  C   LIG d   1      -0.528  80.966 113.227  0.00  0.00    -0.047 C 
ATOM      6  C   LIG d   1       0.097  80.371 114.510  0.00  0.00     0.091 C 
ENDROOT
BRANCH   1   7
ATOM      7  O   LIG d   1      -0.026  78.441 116.014  0.00  0.00    -0.368 OA
BRANCH   7   8
ATOM      8  C   LIG d   1      -0.594  78.224 117.329  0.00  0.00     0.119 C 
BRANCH   8   9
ATOM      9  C   LIG d   1       0.343  78.894 118.353  0.00  0.00     0.028 C 
ATOM     10  C   LIG d   1       1.824  78.581 118.086  0.00  0.00     0.006 C 
ENDBRANCH   8   9
BRANCH   8  11
ATOM     11  C   LIG d   1      -0.598  76.737 117.696  0.00  0.00     0.028 C 
ATOM     12  C   LIG d   1      -1.750  75.964 117.034  0.00  0.00     0.006 C 
ENDBRANCH   8  11
ENDBRANCH   7   8
ENDBRANCH   1   7
BRANCH   6  13
ATOM     13  N   LIG d   1       0.325  81.399 115.559  0.00  0.00    -0.311 N 
ATOM     14  C   LIG d   1       1.527  81.688 116.054  0.00  0.00     0.210 C 
ATOM     15  C   LIG d   1       1.537  82.765 117.142  0.00  0.00     0.109 C 
ATOM     16  O   LIG d   1       2.591  81.176 115.672  0.00  0.00    -0.276 OA
ATOM     17  H   LIG d   1      -0.480  81.885 115.904  0.00  0.00     0.149 HD
ENDBRANCH   6  13
BRANCH   5  18
ATOM     18  N   LIG d   1       0.352  81.938 112.552  0.00  0.00     0.381 N 
ATOM     19  H   LIG d   1       0.920  81.467 111.876  0.00  0.00    -0.090 HD
ATOM     20  H   LIG d   1       0.957  82.358 113.235  0.00  0.00    -0.090 HD
ATOM     21  H   LIG d   1      -0.195  82.641 112.105  0.00  0.00    -0.090 HD
ENDBRANCH   5  18
BRANCH   3  22
ATOM     22  C   LIG d   1      -2.373  78.041 111.978  0.00  0.00     0.382 C 
ATOM     23  O   LIG d   1      -3.202  77.242 112.476  0.00  0.00    -0.241 OA
ATOM     24  O   LIG d   1      -2.279  78.135 110.739  0.00  0.00    -0.241 OA
ENDBRANCH   3  22
TORSDOF 7
ENDMDL
MODEL 9
REMARK VINA RESULT:      -4.6      5.049      6.704
REMARK  7 active torsions:
REMARK  status: ('A' for Active; 'I' for Inactive)
REMARK    1  A    between atoms: C_2  and  C_3 
REMARK    2  A    between atoms: C_3  and  O_6 
REMARK    3  A    between atoms: C_3  and  C_4 
REMARK    4  A    between atoms: C_7  and  O_6 
REMARK    5  A    between atoms: C_9  and  C_10 
REMARK    6  A    between atoms: N_15  and  C_14 
REMARK    7  A    between atoms: N_20  and  C_19 
REMARK       I    between atoms: C_22  and  N_20 
ROOT
ATOM      1  C   LIG d   1      -0.223  78.706 115.778  0.00  0.00     0.161 C 
ATOM      2  C   LIG d   1      -1.306  78.777 114.886  0.00  0.00     0.016 C 
ATOM      3  C   LIG d   1      -2.015  77.642 114.430  0.00  0.00     0.038 C 
ATOM      4  C   LIG d   1      -1.783  76.363 114.957  0.00  0.00     0.028 C 
ATOM      5  C   LIG d   1      -0.365  76.171 115.483  0.00  0.00    -0.047 C 
ATOM      6  C   LIG d   1      -0.027  77.330 116.449  0.00  0.00     0.091 C 
ENDROOT
BRANCH   1   7
ATOM      7  O   LIG d   1      -0.343  79.738 116.777  0.00  0.00    -0.368 OA
BRANCH   7   8
ATOM      8  C   LIG d   1       0.030  81.074 116.361  0.00  0.00     0.119 C 
BRANCH   8   9
ATOM      9  C   LIG d   1       1.454  80.997 115.777  0.00  0.00     0.028 C 
ATOM     10  C   LIG d   1       2.535  80.954 116.871  0.00  0.00     0.006 C 
ENDBRANCH   8   9
BRANCH   8  11
ATOM     11  C   LIG d   1       0.134  82.023 117.559  0.00  0.00     0.028 C 
ATOM     12  C   LIG d   1      -1.155  82.070 118.395  0.00  0.00     0.006 C 
ENDBRANCH   8  11
ENDBRANCH   7   8
ENDBRANCH   1   7
BRANCH   6  13
ATOM     13  N   LIG d   1       1.372  77.266 116.944  0.00  0.00    -0.311 N 
ATOM     14  C   LIG d   1       1.725  76.644 118.069  0.00  0.00     0.210 C 
ATOM     15  C   LIG d   1       3.217  76.715 118.406  0.00  0.00     0.109 C 
ATOM     16  O   LIG d   1       0.948  76.014 118.801  0.00  0.00    -0.276 OA
ATOM     17  H   LIG d   1       2.072  77.724 116.395  0.00  0.00     0.149 HD
ENDBRANCH   6  13
BRANCH   5  18
ATOM     18  N   LIG d   1      -0.303  74.845 116.126  0.00  0.00     0.381 N 
ATOM     19  H   LIG d   1      -0.604  74.142 115.482  0.00  0.00    -0.090 HD
ATOM     20  H   LIG d   1      -0.925  74.837 116.915  0.00  0.00    -0.090 HD
ATOM     21  H   LIG d   1       0.628  74.655 116.427  0.00  0.00    -0.090 HD
ENDBRANCH   5  18
BRANCH   3  22
ATOM     22  C   LIG d   1      -2.941  77.775 113.407  0.00  0.00     0.382 C 
ATOM     23  O   LIG d   1      -3.320  78.917 113.050  0.00  0.00    -0.241 OA
ATOM     24  O   LIG d   1      -3.435  76.768 112.867  0.00  0.00    -0.241 OA
ENDBRANCH   3  22
TORSDOF 7
ENDMDL
