MODEL 1
REMARK VINA RESULT:      -4.7      0.000      0.000
REMARK  7 active torsions:
REMARK  status: ('A' for Active; 'I' for Inactive)
REMARK    1  A    between atoms: C_2  and  C_3 
REMARK    2  A    between atoms: C_3  and  O_6 
REMARK    3  A    between atoms: C_3  and  C_4 
REMARK    4  A    between atoms: C_7  and  O_6 
REMARK    5  A    between atoms: C_9  and  C_10 
REMARK    6  A    between atoms: N_15  and  C_14 
REMARK    7  A    between atoms: N_20  and  C_19 
REMARK       I    between atoms: C_22  and  N_20 
ROOT
ATOM      1  C   LIG d   1       0.562  80.819 111.410  0.00  0.00     0.161 C 
ATOM      2  C   LIG d   1      -0.118  79.753 110.798  0.00  0.00     0.016 C 
ATOM      3  C   LIG d   1      -0.994  78.887 111.491  0.00  0.00     0.038 C 
ATOM      4  C   LIG d   1      -1.369  79.123 112.823  0.00  0.00     0.028 C 
ATOM      5  C   LIG d   1      -0.320  79.889 113.621  0.00  0.00    -0.047 C 
ATOM      6  C   LIG d   1       0.079  81.159 112.836  0.00  0.00     0.091 C 
ENDROOT
BRANCH   1   7
ATOM      7  O   LIG d   1       0.499  81.987 110.569  0.00  0.00    -0.368 OA
BRANCH   7   8
ATOM      8  C   LIG d   1       1.655  82.231 109.730  0.00  0.00     0.119 C 
BRANCH   8   9
ATOM      9  C   LIG d   1       2.906  81.835 110.538  0.00  0.00     0.028 C 
ATOM     10  C   LIG d   1       3.817  80.863 109.771  0.00  0.00     0.006 C 
ENDBRANCH   8   9
BRANCH   8  11
ATOM     11  C   LIG d   1       1.821  83.724 109.430  0.00  0.00     0.028 C 
ATOM     12  C   LIG d   1       2.828  84.411 110.367  0.00  0.00     0.006 C 
ENDBRANCH   8  11
ENDBRANCH   7   8
ENDBRANCH   1   7
BRANCH   6  13
ATOM     13  N   LIG d   1       1.163  81.923 113.507  0.00  0.00    -0.311 N 
ATOM     14  C   LIG d   1       1.190  83.253 113.574  0.00  0.00     0.210 C 
ATOM     15  C   LIG d   1       2.408  83.840 114.294  0.00  0.00     0.109 C 
ATOM     16  O   LIG d   1       0.304  84.001 113.134  0.00  0.00    -0.276 OA
ATOM     17  H   LIG d   1       1.907  81.394 113.919  0.00  0.00     0.149 HD
ENDBRANCH   6  13
BRANCH   5  18
ATOM     18  N   LIG d   1      -0.896  80.185 114.946  0.00  0.00     0.381 N 
ATOM     19  H   LIG d   1      -0.167  80.237 115.629  0.00  0.00    -0.090 HD
ATOM     20  H   LIG d   1      -1.518  79.438 115.204  0.00  0.00    -0.090 HD
ATOM     21  H   LIG d   1      -1.395  81.046 114.916  0.00  0.00    -0.090 HD
ENDBRANCH   5  18
BRANCH   3  22
ATOM     22  C   LIG d   1      -1.474  77.748 110.864  0.00  0.00     0.382 C 
ATOM     23  O   LIG d   1      -2.695  77.648 110.594  0.00  0.00    -0.241 OA
ATOM     24  O   LIG d   1      -0.709  76.800 110.604  0.00  0.00    -0.241 OA
ENDBRANCH   3  22
TORSDOF 7
ENDMDL
MODEL 2
REMARK VINA RESULT:      -4.4      5.687      7.766
REMARK  7 active torsions:
REMARK  status: ('A' for Active; 'I' for Inactive)
REMARK    1  A    between atoms: C_2  and  C_3 
REMARK    2  A    between atoms: C_3  and  O_6 
REMARK    3  A    between atoms: C_3  and  C_4 
REMARK    4  A    between atoms: C_7  and  O_6 
REMARK    5  A    between atoms: C_9  and  C_10 
REMARK    6  A    between atoms: N_15  and  C_14 
REMARK    7  A    between atoms: N_20  and  C_19 
REMARK       I    between atoms: C_22  and  N_20 
ROOT
ATOM      1  C   LIG d   1      -0.405  77.994 116.543  0.00  0.00     0.161 C 
ATOM      2  C   LIG d   1      -1.388  78.412 115.631  0.00  0.00     0.016 C 
ATOM      3  C   LIG d   1      -2.115  77.520 114.809  0.00  0.00     0.038 C 
ATOM      4  C   LIG d   1      -2.014  76.129 114.953  0.00  0.00     0.028 C 
ATOM      5  C   LIG d   1      -0.669  75.673 115.507  0.00  0.00    -0.047 C 
ATOM      6  C   LIG d   1      -0.359  76.472 116.794  0.00  0.00     0.091 C 
ENDROOT
BRANCH   1   7
ATOM      7  O   LIG d   1      -0.561  78.703 117.788  0.00  0.00    -0.368 OA
BRANCH   7   8
ATOM      8  C   LIG d   1      -1.878  79.247 118.051  0.00  0.00     0.119 C 
BRANCH   8   9
ATOM      9  C   LIG d   1      -1.693  80.709 118.501  0.00  0.00     0.028 C 
ATOM     10  C   LIG d   1      -0.278  81.238 118.214  0.00  0.00     0.006 C 
ENDBRANCH   8   9
BRANCH   8  11
ATOM     11  C   LIG d   1      -2.548  78.540 119.232  0.00  0.00     0.028 C 
ATOM     12  C   LIG d   1      -3.440  77.367 118.797  0.00  0.00     0.006 C 
ENDBRANCH   8  11
ENDBRANCH   7   8
ENDBRANCH   1   7
BRANCH   6  13
ATOM     13  N   LIG d   1       0.978  76.149 117.355  0.00  0.00    -0.311 N 
ATOM     14  C   LIG d   1       1.172  75.247 118.316  0.00  0.00     0.210 C 
ATOM     15  C   LIG d   1       2.627  75.081 118.763  0.00  0.00     0.109 C 
ATOM     16  O   LIG d   1       0.280  74.546 118.818  0.00  0.00    -0.276 OA
ATOM     17  H   LIG d   1       1.762  76.649 116.983  0.00  0.00     0.149 HD
ENDBRANCH   6  13
BRANCH   5  18
ATOM     18  N   LIG d   1      -0.750  74.218 115.736  0.00  0.00     0.381 N 
ATOM     19  H   LIG d   1      -0.448  73.729 114.917  0.00  0.00    -0.090 HD
ATOM     20  H   LIG d   1      -1.707  73.971 115.916  0.00  0.00    -0.090 HD
ATOM     21  H   LIG d   1      -0.181  73.963 116.513  0.00  0.00    -0.090 HD
ENDBRANCH   5  18
BRANCH   3  22
ATOM     22  C   LIG d   1      -2.926  78.021 113.802  0.00  0.00     0.382 C 
ATOM     23  O   LIG d   1      -3.197  79.245 113.765  0.00  0.00    -0.241 OA
ATOM     24  O   LIG d   1      -3.427  77.256 112.955  0.00  0.00    -0.241 OA
ENDBRANCH   3  22
TORSDOF 7
ENDMDL
MODEL 3
REMARK VINA RESULT:      -4.2      5.662      7.172
REMARK  7 active torsions:
REMARK  status: ('A' for Active; 'I' for Inactive)
REMARK    1  A    between atoms: C_2  and  C_3 
REMARK    2  A    between atoms: C_3  and  O_6 
REMARK    3  A    between atoms: C_3  and  C_4 
REMARK    4  A    between atoms: C_7  and  O_6 
REMARK    5  A    between atoms: C_9  and  C_10 
REMARK    6  A    between atoms: N_15  and  C_14 
REMARK    7  A    between atoms: N_20  and  C_19 
REMARK       I    between atoms: C_22  and  N_20 
ROOT
ATOM      1  C   LIG d   1      -0.466  77.933 116.477  0.00  0.00     0.161 C 
ATOM      2  C   LIG d   1      -1.458  78.379 115.588  0.00  0.00     0.016 C 
ATOM      3  C   LIG d   1      -2.202  77.513 114.754  0.00  0.00     0.038 C 
ATOM      4  C   LIG d   1      -2.108  76.117 114.863  0.00  0.00     0.028 C 
ATOM      5  C   LIG d   1      -0.759  75.640 115.388  0.00  0.00    -0.047 C 
ATOM      6  C   LIG d   1      -0.428  76.405 116.690  0.00  0.00     0.091 C 
ENDROOT
BRANCH   1   7
ATOM      7  O   LIG d   1      -0.602  78.611 117.742  0.00  0.00    -0.368 OA
BRANCH   7   8
ATOM      8  C   LIG d   1       0.155  79.837 117.892  0.00  0.00     0.119 C 
BRANCH   8   9
ATOM      9  C   LIG d   1       1.233  79.587 118.965  0.00  0.00     0.028 C 
ATOM     10  C   LIG d   1       2.581  79.167 118.355  0.00  0.00     0.006 C 
ENDBRANCH   8   9
BRANCH   8  11
ATOM     11  C   LIG d   1      -0.717  80.966 118.449  0.00  0.00     0.028 C 
ATOM     12  C   LIG d   1      -0.026  82.338 118.388  0.00  0.00     0.006 C 
ENDBRANCH   8  11
ENDBRANCH   7   8
ENDBRANCH   1   7
BRANCH   6  13
ATOM     13  N   LIG d   1       0.915  76.059 117.225  0.00  0.00    -0.311 N 
ATOM     14  C   LIG d   1       1.110  75.543 118.438  0.00  0.00     0.210 C 
ATOM     15  C   LIG d   1       2.575  75.279 118.800  0.00  0.00     0.109 C 
ATOM     16  O   LIG d   1       0.206  75.250 119.235  0.00  0.00    -0.276 OA
ATOM     17  H   LIG d   1       1.702  76.235 116.632  0.00  0.00     0.149 HD
ENDBRANCH   6  13
BRANCH   5  18
ATOM     18  N   LIG d   1      -0.847  74.180 115.582  0.00  0.00     0.381 N 
ATOM     19  H   LIG d   1      -1.804  73.910 115.685  0.00  0.00    -0.090 HD
ATOM     20  H   LIG d   1      -0.357  73.934 116.424  0.00  0.00    -0.090 HD
ATOM     21  H   LIG d   1      -0.443  73.708 114.803  0.00  0.00    -0.090 HD
ENDBRANCH   5  18
BRANCH   3  22
ATOM     22  C   LIG d   1      -3.022  78.043 113.770  0.00  0.00     0.382 C 
ATOM     23  O   LIG d   1      -3.385  79.243 113.835  0.00  0.00    -0.241 OA
ATOM     24  O   LIG d   1      -3.440  77.326 112.841  0.00  0.00    -0.241 OA
ENDBRANCH   3  22
TORSDOF 7
ENDMDL
MODEL 4
REMARK VINA RESULT:      -4.1      3.719      6.014
REMARK  7 active torsions:
REMARK  status: ('A' for Active; 'I' for Inactive)
REMARK    1  A    between atoms: C_2  and  C_3 
REMARK    2  A    between atoms: C_3  and  O_6 
REMARK    3  A    between atoms: C_3  and  C_4 
REMARK    4  A    between atoms: C_7  and  O_6 
REMARK    5  A    between atoms: C_9  and  C_10 
REMARK    6  A    between atoms: N_15  and  C_14 
REMARK    7  A    between atoms: N_20  and  C_19 
REMARK       I    between atoms: C_22  and  N_20 
ROOT
ATOM      1  C   LIG d   1      -1.972  79.442 115.043  0.00  0.00     0.161 C 
ATOM      2  C   LIG d   1      -2.408  78.228 115.597  0.00  0.00     0.016 C 
ATOM      3  C   LIG d   1      -2.488  77.022 114.864  0.00  0.00     0.038 C 
ATOM      4  C   LIG d   1      -1.990  76.915 113.556  0.00  0.00     0.028 C 
ATOM      5  C   LIG d   1      -2.007  78.234 112.792  0.00  0.00    -0.047 C 
ATOM      6  C   LIG d   1      -1.320  79.321 113.650  0.00  0.00     0.091 C 
ENDROOT
BRANCH   1   7
ATOM      7  O   LIG d   1      -1.077  80.104 115.959  0.00  0.00    -0.368 OA
BRANCH   7   8
ATOM      8  C   LIG d   1      -1.021  79.560 117.301  0.00  0.00     0.119 C 
BRANCH   8   9
ATOM      9  C   LIG d   1      -1.485  80.665 118.269  0.00  0.00     0.028 C 
ATOM     10  C   LIG d   1      -0.447  81.791 118.414  0.00  0.00     0.006 C 
ENDBRANCH   8   9
BRANCH   8  11
ATOM     11  C   LIG d   1       0.418  79.238 117.712  0.00  0.00     0.028 C 
ATOM     12  C   LIG d   1       0.701  77.728 117.761  0.00  0.00     0.006 C 
ENDBRANCH   8  11
ENDBRANCH   7   8
ENDBRANCH   1   7
BRANCH   6  13
ATOM     13  N   LIG d   1      -1.368  80.662 113.012  0.00  0.00    -0.311 N 
ATOM     14  C   LIG d   1      -0.405  81.133 112.222  0.00  0.00     0.210 C 
ATOM     15  C   LIG d   1      -0.645  82.547 111.683  0.00  0.00     0.109 C 
ATOM     16  O   LIG d   1       0.610  80.502 111.890  0.00  0.00    -0.276 OA
ATOM     17  H   LIG d   1      -2.171  81.229 113.202  0.00  0.00     0.149 HD
ENDBRANCH   6  13
BRANCH   5  18
ATOM     18  N   LIG d   1      -1.336  78.008 111.498  0.00  0.00     0.381 N 
ATOM     19  H   LIG d   1      -0.423  78.417 111.514  0.00  0.00    -0.090 HD
ATOM     20  H   LIG d   1      -1.869  78.455 110.773  0.00  0.00    -0.090 HD
ATOM     21  H   LIG d   1      -1.267  77.032 111.316  0.00  0.00    -0.090 HD
ENDBRANCH   5  18
BRANCH   3  22
ATOM     22  C   LIG d   1      -3.108  75.915 115.425  0.00  0.00     0.382 C 
ATOM     23  O   LIG d   1      -3.297  75.864 116.664  0.00  0.00    -0.241 OA
ATOM     24  O   LIG d   1      -3.440  74.949 114.713  0.00  0.00    -0.241 OA
ENDBRANCH   3  22
TORSDOF 7
ENDMDL
MODEL 5
REMARK VINA RESULT:      -4.0      5.616      7.044
REMARK  7 active torsions:
REMARK  status: ('A' for Active; 'I' for Inactive)
REMARK    1  A    between atoms: C_2  and  C_3 
REMARK    2  A    between atoms: C_3  and  O_6 
REMARK    3  A    between atoms: C_3  and  C_4 
REMARK    4  A    between atoms: C_7  and  O_6 
REMARK    5  A    between atoms: C_9  and  C_10 
REMARK    6  A    between atoms: N_15  and  C_14 
REMARK    7  A    between atoms: N_20  and  C_19 
REMARK       I    between atoms: C_22  and  N_20 
ROOT
ATOM      1  C   LIG d   1      -0.048  77.527 117.892  0.00  0.00     0.161 C 
ATOM      2  C   LIG d   1      -0.276  76.303 117.242  0.00  0.00     0.016 C 
ATOM      3  C   LIG d   1      -0.893  76.199 115.973  0.00  0.00     0.038 C 
ATOM      4  C   LIG d   1      -1.188  77.330 115.198  0.00  0.00     0.028 C 
ATOM      5  C   LIG d   1      -1.438  78.585 116.027  0.00  0.00    -0.047 C 
ATOM      6  C   LIG d   1      -0.263  78.777 117.013  0.00  0.00     0.091 C 
ENDROOT
BRANCH   1   7
ATOM      7  O   LIG d   1       1.275  77.538 118.463  0.00  0.00    -0.368 OA
BRANCH   7   8
ATOM      8  C   LIG d   1       2.256  76.692 117.814  0.00  0.00     0.119 C 
BRANCH   8   9
ATOM      9  C   LIG d   1       2.946  75.857 118.910  0.00  0.00     0.028 C 
ATOM     10  C   LIG d   1       2.194  74.549 119.212  0.00  0.00     0.006 C 
ENDBRANCH   8   9
BRANCH   8  11
ATOM     11  C   LIG d   1       3.373  77.524 117.176  0.00  0.00     0.028 C 
ATOM     12  C   LIG d   1       4.662  77.534 118.013  0.00  0.00     0.006 C 
ENDBRANCH   8  11
ENDBRANCH   7   8
ENDBRANCH   1   7
BRANCH   6  13
ATOM     13  N   LIG d   1      -0.468  79.936 117.920  0.00  0.00    -0.311 N 
ATOM     14  C   LIG d   1       0.037  81.146 117.689  0.00  0.00     0.210 C 
ATOM     15  C   LIG d   1      -0.278  82.194 118.762  0.00  0.00     0.109 C 
ATOM     16  O   LIG d   1       0.688  81.460 116.681  0.00  0.00    -0.276 OA
ATOM     17  H   LIG d   1      -1.011  79.777 118.747  0.00  0.00     0.149 HD
ENDBRANCH   6  13
BRANCH   5  18
ATOM     18  N   LIG d   1      -1.597  79.713 115.090  0.00  0.00     0.381 N 
ATOM     19  H   LIG d   1      -1.427  80.576 115.568  0.00  0.00    -0.090 HD
ATOM     20  H   LIG d   1      -2.542  79.722 114.749  0.00  0.00    -0.090 HD
ATOM     21  H   LIG d   1      -0.962  79.616 114.329  0.00  0.00    -0.090 HD
ENDBRANCH   5  18
BRANCH   3  22
ATOM     22  C   LIG d   1      -1.256  74.953 115.486  0.00  0.00     0.382 C 
ATOM     23  O   LIG d   1      -1.947  74.180 116.194  0.00  0.00    -0.241 OA
ATOM     24  O   LIG d   1      -0.865  74.573 114.366  0.00  0.00    -0.241 OA
ENDBRANCH   3  22
TORSDOF 7
ENDMDL
MODEL 6
REMARK VINA RESULT:      -3.9      1.676      1.999
REMARK  7 active torsions:
REMARK  status: ('A' for Active; 'I' for Inactive)
REMARK    1  A    between atoms: C_2  and  C_3 
REMARK    2  A    between atoms: C_3  and  O_6 
REMARK    3  A    between atoms: C_3  and  C_4 
REMARK    4  A    between atoms: C_7  and  O_6 
REMARK    5  A    between atoms: C_9  and  C_10 
REMARK    6  A    between atoms: N_15  and  C_14 
REMARK    7  A    between atoms: N_20  and  C_19 
REMARK       I    between atoms: C_22  and  N_20 
ROOT
ATOM      1  C   LIG d   1       1.619  81.458 112.259  0.00  0.00     0.161 C 
ATOM      2  C   LIG d   1       0.830  80.807 111.295  0.00  0.00     0.016 C 
ATOM      3  C   LIG d   1      -0.293  80.011 111.618  0.00  0.00     0.038 C 
ATOM      4  C   LIG d   1      -0.797  79.935 112.925  0.00  0.00     0.028 C 
ATOM      5  C   LIG d   1       0.262  80.167 113.997  0.00  0.00    -0.047 C 
ATOM      6  C   LIG d   1       1.019  81.477 113.680  0.00  0.00     0.091 C 
ENDROOT
BRANCH   1   7
ATOM      7  O   LIG d   1       1.916  82.799 111.822  0.00  0.00    -0.368 OA
BRANCH   7   8
ATOM      8  C   LIG d   1       1.766  83.055 110.404  0.00  0.00     0.119 C 
BRANCH   8   9
ATOM      9  C   LIG d   1       3.160  83.398 109.845  0.00  0.00     0.028 C 
ATOM     10  C   LIG d   1       3.944  84.349 110.766  0.00  0.00     0.006 C 
ENDBRANCH   8   9
BRANCH   8  11
ATOM     11  C   LIG d   1       0.910  84.300 110.150  0.00  0.00     0.028 C 
ATOM     12  C   LIG d   1      -0.409  84.287 110.938  0.00  0.00     0.006 C 
ENDBRANCH   8  11
ENDBRANCH   7   8
ENDBRANCH   1   7
BRANCH   6  13
ATOM     13  N   LIG d   1       2.129  81.735 114.634  0.00  0.00    -0.311 N 
ATOM     14  C   LIG d   1       2.043  82.602 115.641  0.00  0.00     0.210 C 
ATOM     15  C   LIG d   1       3.310  82.731 116.493  0.00  0.00     0.109 C 
ATOM     16  O   LIG d   1       1.028  83.253 115.930  0.00  0.00    -0.276 OA
ATOM     17  H   LIG d   1       2.980  81.227 114.492  0.00  0.00     0.149 HD
ENDBRANCH   6  13
BRANCH   5  18
ATOM     18  N   LIG d   1      -0.424  80.197 115.302  0.00  0.00     0.381 N 
ATOM     19  H   LIG d   1      -0.669  79.267 115.578  0.00  0.00    -0.090 HD
ATOM     20  H   LIG d   1      -1.270  80.732 115.213  0.00  0.00    -0.090 HD
ATOM     21  H   LIG d   1       0.167  80.610 115.989  0.00  0.00    -0.090 HD
ENDBRANCH   5  18
BRANCH   3  22
ATOM     22  C   LIG d   1      -0.901  79.249 110.632  0.00  0.00     0.382 C 
ATOM     23  O   LIG d   1      -1.689  78.326 110.950  0.00  0.00    -0.241 OA
ATOM     24  O   LIG d   1      -0.636  79.443 109.430  0.00  0.00    -0.241 OA
ENDBRANCH   3  22
TORSDOF 7
ENDMDL
MODEL 7
REMARK VINA RESULT:      -3.7      4.500      7.243
REMARK  7 active torsions:
REMARK  status: ('A' for Active; 'I' for Inactive)
REMARK    1  A    between atoms: C_2  and  C_3 
REMARK    2  A    between atoms: C_3  and  O_6 
REMARK    3  A    between atoms: C_3  and  C_4 
REMARK    4  A    between atoms: C_7  and  O_6 
REMARK    5  A    between atoms: C_9  and  C_10 
REMARK    6  A    between atoms: N_15  and  C_14 
REMARK    7  A    between atoms: N_20  and  C_19 
REMARK       I    between atoms: C_22  and  N_20 
ROOT
ATOM      1  C   LIG d   1      -1.973  78.756 116.124  0.00  0.00     0.161 C 
ATOM      2  C   LIG d   1      -1.174  79.840 116.527  0.00  0.00     0.016 C 
ATOM      3  C   LIG d   1       0.100  79.688 117.121  0.00  0.00     0.038 C 
ATOM      4  C   LIG d   1       0.731  78.439 117.216  0.00  0.00     0.028 C 
ATOM      5  C   LIG d   1      -0.247  77.271 117.284  0.00  0.00    -0.047 C 
ATOM      6  C   LIG d   1      -1.254  77.391 116.117  0.00  0.00     0.091 C 
ENDROOT
BRANCH   1   7
ATOM      7  O   LIG d   1      -2.547  79.027 114.830  0.00  0.00    -0.368 OA
BRANCH   7   8
ATOM      8  C   LIG d   1      -1.665  78.854 113.693  0.00  0.00     0.119 C 
BRANCH   8   9
ATOM      9  C   LIG d   1      -1.683  80.169 112.890  0.00  0.00     0.028 C 
ATOM     10  C   LIG d   1      -3.025  80.910 113.006  0.00  0.00     0.006 C 
ENDBRANCH   8   9
BRANCH   8  11
ATOM     11  C   LIG d   1      -2.196  77.785 112.733  0.00  0.00     0.028 C 
ATOM     12  C   LIG d   1      -1.711  77.986 111.289  0.00  0.00     0.006 C 
ENDBRANCH   8  11
ENDBRANCH   7   8
ENDBRANCH   1   7
BRANCH   6  13
ATOM     13  N   LIG d   1      -2.298  76.333 116.159  0.00  0.00    -0.311 N 
ATOM     14  C   LIG d   1      -2.252  75.228 115.417  0.00  0.00     0.210 C 
ATOM     15  C   LIG d   1      -3.439  74.277 115.598  0.00  0.00     0.109 C 
ATOM     16  O   LIG d   1      -1.324  74.929 114.651  0.00  0.00    -0.276 OA
ATOM     17  H   LIG d   1      -3.072  76.480 116.777  0.00  0.00     0.149 HD
ENDBRANCH   6  13
BRANCH   5  18
ATOM     18  N   LIG d   1       0.543  76.025 117.240  0.00  0.00     0.381 N 
ATOM     19  H   LIG d   1       1.050  75.916 118.096  0.00  0.00    -0.090 HD
ATOM     20  H   LIG d   1       1.205  76.087 116.487  0.00  0.00    -0.090 HD
ATOM     21  H   LIG d   1      -0.060  75.244 117.100  0.00  0.00    -0.090 HD
ENDBRANCH   5  18
BRANCH   3  22
ATOM     22  C   LIG d   1       0.740  80.792 117.665  0.00  0.00     0.382 C 
ATOM     23  O   LIG d   1       1.280  80.710 118.794  0.00  0.00    -0.241 OA
ATOM     24  O   LIG d   1       0.745  81.881 117.061  0.00  0.00    -0.241 OA
ENDBRANCH   3  22
TORSDOF 7
ENDMDL
MODEL 8
REMARK VINA RESULT:      -3.5      6.384      7.483
REMARK  7 active torsions:
REMARK  status: ('A' for Active; 'I' for Inactive)
REMARK    1  A    between atoms: C_2  and  C_3 
REMARK    2  A    between atoms: C_3  and  O_6 
REMARK    3  A    between atoms: C_3  and  C_4 
REMARK    4  A    between atoms: C_7  and  O_6 
REMARK    5  A    between atoms: C_9  and  C_10 
REMARK    6  A    between atoms: N_15  and  C_14 
REMARK    7  A    between atoms: N_20  and  C_19 
REMARK       I    between atoms: C_22  and  N_20 
ROOT
ATOM      1  C   LIG d   1       3.566  78.140 117.769  0.00  0.00     0.161 C 
ATOM      2  C   LIG d   1       2.826  76.946 117.765  0.00  0.00     0.016 C 
ATOM      3  C   LIG d   1       1.414  76.906 117.804  0.00  0.00     0.038 C 
ATOM      4  C   LIG d   1       0.636  78.068 117.696  0.00  0.00     0.028 C 
ATOM      5  C   LIG d   1       1.342  79.319 118.206  0.00  0.00    -0.047 C 
ATOM      6  C   LIG d   1       2.733  79.418 117.538  0.00  0.00     0.091 C 
ENDROOT
BRANCH   1   7
ATOM      7  O   LIG d   1       4.633  78.056 116.803  0.00  0.00    -0.368 OA
BRANCH   7   8
ATOM      8  C   LIG d   1       5.920  77.624 117.310  0.00  0.00     0.119 C 
BRANCH   8   9
ATOM      9  C   LIG d   1       6.184  78.395 118.618  0.00  0.00     0.028 C 
ATOM     10  C   LIG d   1       6.929  77.544 119.660  0.00  0.00     0.006 C 
ENDBRANCH   8   9
BRANCH   8  11
ATOM     11  C   LIG d   1       7.055  78.028 116.365  0.00  0.00     0.028 C 
ATOM     12  C   LIG d   1       6.608  79.031 115.290  0.00  0.00     0.006 C 
ENDBRANCH   8  11
ENDBRANCH   7   8
ENDBRANCH   1   7
BRANCH   6  13
ATOM     13  N   LIG d   1       3.525  80.569 118.045  0.00  0.00    -0.311 N 
ATOM     14  C   LIG d   1       4.138  81.444 117.249  0.00  0.00     0.210 C 
ATOM     15  C   LIG d   1       4.918  82.543 117.977  0.00  0.00     0.109 C 
ATOM     16  O   LIG d   1       4.083  81.432 116.010  0.00  0.00    -0.276 OA
ATOM     17  H   LIG d   1       3.596  80.672 119.038  0.00  0.00     0.149 HD
ENDBRANCH   6  13
BRANCH   5  18
ATOM     18  N   LIG d   1       0.475  80.474 117.907  0.00  0.00     0.381 N 
ATOM     19  H   LIG d   1      -0.406  80.364 118.368  0.00  0.00    -0.090 HD
ATOM     20  H   LIG d   1       0.310  80.509 116.916  0.00  0.00    -0.090 HD
ATOM     21  H   LIG d   1       0.913  81.317 118.208  0.00  0.00    -0.090 HD
ENDBRANCH   5  18
BRANCH   3  22
ATOM     22  C   LIG d   1       0.765  75.695 117.993  0.00  0.00     0.382 C 
ATOM     23  O   LIG d   1       1.351  74.756 118.585  0.00  0.00    -0.241 OA
ATOM     24  O   LIG d   1      -0.381  75.514 117.540  0.00  0.00    -0.241 OA
ENDBRANCH   3  22
TORSDOF 7
ENDMDL
MODEL 9
REMARK VINA RESULT:      -3.4      6.354      8.671
REMARK  7 active torsions:
REMARK  status: ('A' for Active; 'I' for Inactive)
REMARK    1  A    between atoms: C_2  and  C_3 
REMARK    2  A    between atoms: C_3  and  O_6 
REMARK    3  A    between atoms: C_3  and  C_4 
REMARK    4  A    between atoms: C_7  and  O_6 
REMARK    5  A    between atoms: C_9  and  C_10 
REMARK    6  A    between atoms: N_15  and  C_14 
REMARK    7  A    between atoms: N_20  and  C_19 
REMARK       I    between atoms: C_22  and  N_20 
ROOT
ATOM      1  C   LIG d   1       0.677  77.844 117.628  0.00  0.00     0.161 C 
ATOM      2  C   LIG d   1       1.140  79.167 117.710  0.00  0.00     0.016 C 
ATOM      3  C   LIG d   1       0.286  80.294 117.676  0.00  0.00     0.038 C 
ATOM      4  C   LIG d   1      -1.111  80.167 117.709  0.00  0.00     0.028 C 
ATOM      5  C   LIG d   1      -1.614  78.854 117.117  0.00  0.00    -0.047 C 
ATOM      6  C   LIG d   1      -0.850  77.682 117.776  0.00  0.00     0.091 C 
ENDROOT
BRANCH   1   7
ATOM      7  O   LIG d   1       1.364  77.025 118.595  0.00  0.00    -0.368 OA
BRANCH   7   8
ATOM      8  C   LIG d   1       2.531  76.313 118.115  0.00  0.00     0.119 C 
BRANCH   8   9
ATOM      9  C   LIG d   1       2.520  74.916 118.764  0.00  0.00     0.028 C 
ATOM     10  C   LIG d   1       1.095  74.388 118.998  0.00  0.00     0.006 C 
ENDBRANCH   8   9
BRANCH   8  11
ATOM     11  C   LIG d   1       3.825  76.975 118.598  0.00  0.00     0.028 C 
ATOM     12  C   LIG d   1       4.602  77.662 117.464  0.00  0.00     0.006 C 
ENDBRANCH   8  11
ENDBRANCH   7   8
ENDBRANCH   1   7
BRANCH   6  13
ATOM     13  N   LIG d   1      -1.222  76.366 117.194  0.00  0.00    -0.311 N 
ATOM     14  C   LIG d   1      -2.177  75.585 117.696  0.00  0.00     0.210 C 
ATOM     15  C   LIG d   1      -2.386  74.261 116.956  0.00  0.00     0.109 C 
ATOM     16  O   LIG d   1      -2.892  75.879 118.666  0.00  0.00    -0.276 OA
ATOM     17  H   LIG d   1      -0.713  76.064 116.386  0.00  0.00     0.149 HD
ENDBRANCH   6  13
BRANCH   5  18
ATOM     18  N   LIG d   1      -3.070  78.794 117.341  0.00  0.00     0.381 N 
ATOM     19  H   LIG d   1      -3.258  78.446 118.261  0.00  0.00    -0.090 HD
ATOM     20  H   LIG d   1      -3.475  78.159 116.676  0.00  0.00    -0.090 HD
ATOM     21  H   LIG d   1      -3.470  79.700 117.233  0.00  0.00    -0.090 HD
ENDBRANCH   5  18
BRANCH   3  22
ATOM     22  C   LIG d   1       0.829  81.565 117.567  0.00  0.00     0.382 C 
ATOM     23  O   LIG d   1       1.276  82.145 118.586  0.00  0.00    -0.241 OA
ATOM     24  O   LIG d   1       0.839  82.157 116.471  0.00  0.00    -0.241 OA
ENDBRANCH   3  22
TORSDOF 7
ENDMDL
