MODEL 1
REMARK VINA RESULT:      -5.9      0.000      0.000
REMARK  7 active torsions:
REMARK  status: ('A' for Active; 'I' for Inactive)
REMARK    1  A    between atoms: C_2  and  C_3 
REMARK    2  A    between atoms: C_3  and  O_6 
REMARK    3  A    between atoms: C_3  and  C_4 
REMARK    4  A    between atoms: C_7  and  O_6 
REMARK    5  A    between atoms: C_9  and  C_10 
REMARK    6  A    between atoms: N_15  and  C_14 
REMARK    7  A    between atoms: N_20  and  C_19 
REMARK       I    between atoms: C_22  and  N_20 
ROOT
ATOM      1  C   LIG d   1       0.438  82.965 111.739  0.00  0.00     0.161 C 
ATOM      2  C   LIG d   1      -0.795  82.594 112.301  0.00  0.00     0.016 C 
ATOM      3  C   LIG d   1      -1.335  81.291 112.200  0.00  0.00     0.038 C 
ATOM      4  C   LIG d   1      -0.603  80.225 111.657  0.00  0.00     0.028 C 
ATOM      5  C   LIG d   1       0.434  80.664 110.629  0.00  0.00    -0.047 C 
ATOM      6  C   LIG d   1       1.302  81.788 111.239  0.00  0.00     0.091 C 
ENDROOT
BRANCH   1   7
ATOM      7  O   LIG d   1       1.180  83.768 112.678  0.00  0.00    -0.368 OA
BRANCH   7   8
ATOM      8  C   LIG d   1       1.055  83.397 114.073  0.00  0.00     0.119 C 
BRANCH   8   9
ATOM      9  C   LIG d   1       0.744  84.680 114.868  0.00  0.00     0.028 C 
ATOM     10  C   LIG d   1      -0.177  84.417 116.071  0.00  0.00     0.006 C 
ENDBRANCH   8   9
BRANCH   8  11
ATOM     11  C   LIG d   1       2.384  82.883 114.635  0.00  0.00     0.028 C 
ATOM     12  C   LIG d   1       3.405  84.008 114.871  0.00  0.00     0.006 C 
ENDBRANCH   8  11
ENDBRANCH   7   8
ENDBRANCH   1   7
BRANCH   6  13
ATOM     13  N   LIG d   1       2.287  82.334 110.270  0.00  0.00    -0.311 N 
ATOM     14  C   LIG d   1       3.566  82.553 110.570  0.00  0.00     0.210 C 
ATOM     15  C   LIG d   1       4.406  83.138 109.431  0.00  0.00     0.109 C 
ATOM     16  O   LIG d   1       4.092  82.289 111.662  0.00  0.00    -0.276 OA
ATOM     17  H   LIG d   1       1.953  82.547 109.351  0.00  0.00     0.149 HD
ENDBRANCH   6  13
BRANCH   5  18
ATOM     18  N   LIG d   1       1.216  79.472 110.248  0.00  0.00     0.381 N 
ATOM     19  H   LIG d   1       2.155  79.563 110.581  0.00  0.00    -0.090 HD
ATOM     20  H   LIG d   1       1.242  79.407 109.245  0.00  0.00    -0.090 HD
ATOM     21  H   LIG d   1       0.798  78.653 110.631  0.00  0.00    -0.090 HD
ENDBRANCH   5  18
BRANCH   3  22
ATOM     22  C   LIG d   1      -2.638  81.053 112.610  0.00  0.00     0.382 C 
ATOM     23  O   LIG d   1      -3.046  79.875 112.751  0.00  0.00    -0.241 OA
ATOM     24  O   LIG d   1      -3.424  82.001 112.799  0.00  0.00    -0.241 OA
ENDBRANCH   3  22
TORSDOF 7
ENDMDL
MODEL 2
REMARK VINA RESULT:      -5.3      1.703      4.773
REMARK  7 active torsions:
REMARK  status: ('A' for Active; 'I' for Inactive)
REMARK    1  A    between atoms: C_2  and  C_3 
REMARK    2  A    between atoms: C_3  and  O_6 
REMARK    3  A    between atoms: C_3  and  C_4 
REMARK    4  A    between atoms: C_7  and  O_6 
REMARK    5  A    between atoms: C_9  and  C_10 
REMARK    6  A    between atoms: N_15  and  C_14 
REMARK    7  A    between atoms: N_20  and  C_19 
REMARK       I    between atoms: C_22  and  N_20 
ROOT
ATOM      1  C   LIG d   1       0.657  82.484 112.565  0.00  0.00     0.161 C 
ATOM      2  C   LIG d   1       1.758  83.233 112.117  0.00  0.00     0.016 C 
ATOM      3  C   LIG d   1       2.398  83.010 110.876  0.00  0.00     0.038 C 
ATOM      4  C   LIG d   1       1.881  82.117 109.926  0.00  0.00     0.028 C 
ATOM      5  C   LIG d   1       1.069  80.982 110.540  0.00  0.00    -0.047 C 
ATOM      6  C   LIG d   1       0.011  81.581 111.495  0.00  0.00     0.091 C 
ENDROOT
BRANCH   1   7
ATOM      7  O   LIG d   1      -0.329  83.364 113.141  0.00  0.00    -0.368 OA
BRANCH   7   8
ATOM      8  C   LIG d   1      -0.422  83.357 114.587  0.00  0.00     0.119 C 
BRANCH   8   9
ATOM      9  C   LIG d   1      -1.917  83.274 114.954  0.00  0.00     0.028 C 
ATOM     10  C   LIG d   1      -2.210  82.156 115.968  0.00  0.00     0.006 C 
ENDBRANCH   8   9
BRANCH   8  11
ATOM     11  C   LIG d   1       0.069  84.680 115.183  0.00  0.00     0.028 C 
ATOM     12  C   LIG d   1       0.875  84.488 116.477  0.00  0.00     0.006 C 
ENDBRANCH   8  11
ENDBRANCH   7   8
ENDBRANCH   1   7
BRANCH   6  13
ATOM     13  N   LIG d   1      -0.772  80.534 112.202  0.00  0.00    -0.311 N 
ATOM     14  C   LIG d   1      -2.079  80.630 112.438  0.00  0.00     0.210 C 
ATOM     15  C   LIG d   1      -2.687  79.448 113.200  0.00  0.00     0.109 C 
ATOM     16  O   LIG d   1      -2.799  81.566 112.059  0.00  0.00    -0.276 OA
ATOM     17  H   LIG d   1      -0.272  79.725 112.517  0.00  0.00     0.149 HD
ENDBRANCH   6  13
BRANCH   5  18
ATOM     18  N   LIG d   1       0.476  80.207 109.433  0.00  0.00     0.381 N 
ATOM     19  H   LIG d   1      -0.386  80.627 109.150  0.00  0.00    -0.090 HD
ATOM     20  H   LIG d   1       0.283  79.275 109.755  0.00  0.00    -0.090 HD
ATOM     21  H   LIG d   1       1.108  80.176 108.663  0.00  0.00    -0.090 HD
ENDBRANCH   5  18
BRANCH   3  22
ATOM     22  C   LIG d   1       3.591  83.656 110.592  0.00  0.00     0.382 C 
ATOM     23  O   LIG d   1       4.603  83.447 111.303  0.00  0.00    -0.241 OA
ATOM     24  O   LIG d   1       3.656  84.480 109.660  0.00  0.00    -0.241 OA
ENDBRANCH   3  22
TORSDOF 7
ENDMDL
MODEL 3
REMARK VINA RESULT:      -5.2      2.369      4.240
REMARK  7 active torsions:
REMARK  status: ('A' for Active; 'I' for Inactive)
REMARK    1  A    between atoms: C_2  and  C_3 
REMARK    2  A    between atoms: C_3  and  O_6 
REMARK    3  A    between atoms: C_3  and  C_4 
REMARK    4  A    between atoms: C_7  and  O_6 
REMARK    5  A    between atoms: C_9  and  C_10 
REMARK    6  A    between atoms: N_15  and  C_14 
REMARK    7  A    between atoms: N_20  and  C_19 
REMARK       I    between atoms: C_22  and  N_20 
ROOT
ATOM      1  C   LIG d   1      -0.065  81.174 111.446  0.00  0.00     0.161 C 
ATOM      2  C   LIG d   1      -0.728  79.936 111.493  0.00  0.00     0.016 C 
ATOM      3  C   LIG d   1      -1.702  79.612 112.465  0.00  0.00     0.038 C 
ATOM      4  C   LIG d   1      -2.192  80.565 113.370  0.00  0.00     0.028 C 
ATOM      5  C   LIG d   1      -1.192  81.672 113.684  0.00  0.00    -0.047 C 
ATOM      6  C   LIG d   1      -0.667  82.265 112.357  0.00  0.00     0.091 C 
ENDROOT
BRANCH   1   7
ATOM      7  O   LIG d   1       0.003  81.641 110.084  0.00  0.00    -0.368 OA
BRANCH   7   8
ATOM      8  C   LIG d   1       1.320  81.656 109.480  0.00  0.00     0.119 C 
BRANCH   8   9
ATOM      9  C   LIG d   1       2.263  80.867 110.408  0.00  0.00     0.028 C 
ATOM     10  C   LIG d   1       2.845  79.617 109.726  0.00  0.00     0.006 C 
ENDBRANCH   8   9
BRANCH   8  11
ATOM     11  C   LIG d   1       1.893  83.076 109.432  0.00  0.00     0.028 C 
ATOM     12  C   LIG d   1       3.348  83.147 109.922  0.00  0.00     0.006 C 
ENDBRANCH   8  11
ENDBRANCH   7   8
ENDBRANCH   1   7
BRANCH   6  13
ATOM     13  N   LIG d   1       0.380  83.298 112.572  0.00  0.00    -0.311 N 
ATOM     14  C   LIG d   1       1.510  83.069 113.239  0.00  0.00     0.210 C 
ATOM     15  C   LIG d   1       2.444  84.277 113.363  0.00  0.00     0.109 C 
ATOM     16  O   LIG d   1       1.842  81.972 113.712  0.00  0.00    -0.276 OA
ATOM     17  H   LIG d   1       0.206  84.209 112.195  0.00  0.00     0.149 HD
ENDBRANCH   6  13
BRANCH   5  18
ATOM     18  N   LIG d   1      -1.880  82.667 114.529  0.00  0.00     0.381 N 
ATOM     19  H   LIG d   1      -1.347  83.514 114.558  0.00  0.00    -0.090 HD
ATOM     20  H   LIG d   1      -1.950  82.307 115.465  0.00  0.00    -0.090 HD
ATOM     21  H   LIG d   1      -2.790  82.851 114.168  0.00  0.00    -0.090 HD
ENDBRANCH   5  18
BRANCH   3  22
ATOM     22  C   LIG d   1      -2.168  78.310 112.563  0.00  0.00     0.382 C 
ATOM     23  O   LIG d   1      -1.488  77.444 113.165  0.00  0.00    -0.241 OA
ATOM     24  O   LIG d   1      -3.238  77.979 112.019  0.00  0.00    -0.241 OA
ENDBRANCH   3  22
TORSDOF 7
ENDMDL
MODEL 4
REMARK VINA RESULT:      -5.1      2.008      4.730
REMARK  7 active torsions:
REMARK  status: ('A' for Active; 'I' for Inactive)
REMARK    1  A    between atoms: C_2  and  C_3 
REMARK    2  A    between atoms: C_3  and  O_6 
REMARK    3  A    between atoms: C_3  and  C_4 
REMARK    4  A    between atoms: C_7  and  O_6 
REMARK    5  A    between atoms: C_9  and  C_10 
REMARK    6  A    between atoms: N_15  and  C_14 
REMARK    7  A    between atoms: N_20  and  C_19 
REMARK       I    between atoms: C_22  and  N_20 
ROOT
ATOM      1  C   LIG d   1       1.091  82.341 112.350  0.00  0.00     0.161 C 
ATOM      2  C   LIG d   1       2.063  81.889 111.442  0.00  0.00     0.016 C 
ATOM      3  C   LIG d   1       1.876  80.773 110.593  0.00  0.00     0.038 C 
ATOM      4  C   LIG d   1       0.638  80.121 110.487  0.00  0.00     0.028 C 
ATOM      5  C   LIG d   1      -0.211  80.226 111.750  0.00  0.00    -0.047 C 
ATOM      6  C   LIG d   1      -0.306  81.711 112.170  0.00  0.00     0.091 C 
ENDROOT
BRANCH   1   7
ATOM      7  O   LIG d   1       1.003  83.778 112.296  0.00  0.00    -0.368 OA
BRANCH   7   8
ATOM      8  C   LIG d   1       1.659  84.498 113.369  0.00  0.00     0.119 C 
BRANCH   8   9
ATOM      9  C   LIG d   1       3.169  84.508 113.064  0.00  0.00     0.028 C 
ATOM     10  C   LIG d   1       4.023  84.678 114.333  0.00  0.00     0.006 C 
ENDBRANCH   8   9
BRANCH   8  11
ATOM     11  C   LIG d   1       1.519  83.758 114.703  0.00  0.00     0.028 C 
ATOM     12  C   LIG d   1       0.453  84.378 115.619  0.00  0.00     0.006 C 
ENDBRANCH   8  11
ENDBRANCH   7   8
ENDBRANCH   1   7
BRANCH   6  13
ATOM     13  N   LIG d   1      -1.049  81.893 113.443  0.00  0.00    -0.311 N 
ATOM     14  C   LIG d   1      -2.377  81.972 113.512  0.00  0.00     0.210 C 
ATOM     15  C   LIG d   1      -2.940  82.181 114.921  0.00  0.00     0.109 C 
ATOM     16  O   LIG d   1      -3.144  81.857 112.544  0.00  0.00    -0.276 OA
ATOM     17  H   LIG d   1      -0.507  81.965 114.282  0.00  0.00     0.149 HD
ENDBRANCH   6  13
BRANCH   5  18
ATOM     18  N   LIG d   1      -1.525  79.624 111.454  0.00  0.00     0.381 N 
ATOM     19  H   LIG d   1      -2.227  80.042 112.031  0.00  0.00    -0.090 HD
ATOM     20  H   LIG d   1      -1.487  78.642 111.665  0.00  0.00    -0.090 HD
ATOM     21  H   LIG d   1      -1.752  79.757 110.493  0.00  0.00    -0.090 HD
ENDBRANCH   5  18
BRANCH   3  22
ATOM     22  C   LIG d   1       2.947  80.274 109.868  0.00  0.00     0.382 C 
ATOM     23  O   LIG d   1       3.828  81.055 109.433  0.00  0.00    -0.241 OA
ATOM     24  O   LIG d   1       3.021  79.059 109.605  0.00  0.00    -0.241 OA
ENDBRANCH   3  22
TORSDOF 7
ENDMDL
MODEL 5
REMARK VINA RESULT:      -5.1      2.054      5.007
REMARK  7 active torsions:
REMARK  status: ('A' for Active; 'I' for Inactive)
REMARK    1  A    between atoms: C_2  and  C_3 
REMARK    2  A    between atoms: C_3  and  O_6 
REMARK    3  A    between atoms: C_3  and  C_4 
REMARK    4  A    between atoms: C_7  and  O_6 
REMARK    5  A    between atoms: C_9  and  C_10 
REMARK    6  A    between atoms: N_15  and  C_14 
REMARK    7  A    between atoms: N_20  and  C_19 
REMARK       I    between atoms: C_22  and  N_20 
ROOT
ATOM      1  C   LIG d   1       0.671  81.468 113.714  0.00  0.00     0.161 C 
ATOM      2  C   LIG d   1       1.625  82.301 113.106  0.00  0.00     0.016 C 
ATOM      3  C   LIG d   1       1.878  82.308 111.715  0.00  0.00     0.038 C 
ATOM      4  C   LIG d   1       1.082  81.587 110.813  0.00  0.00     0.028 C 
ATOM      5  C   LIG d   1       0.439  80.349 111.428  0.00  0.00    -0.047 C 
ATOM      6  C   LIG d   1      -0.284  80.755 112.733  0.00  0.00     0.091 C 
ENDROOT
BRANCH   1   7
ATOM      7  O   LIG d   1      -0.081  82.217 114.689  0.00  0.00    -0.368 OA
BRANCH   7   8
ATOM      8  C   LIG d   1      -1.182  83.008 114.176  0.00  0.00     0.119 C 
BRANCH   8   9
ATOM      9  C   LIG d   1      -0.902  84.480 114.536  0.00  0.00     0.028 C 
ATOM     10  C   LIG d   1       0.070  84.620 115.720  0.00  0.00     0.006 C 
ENDBRANCH   8   9
BRANCH   8  11
ATOM     11  C   LIG d   1      -2.495  82.659 114.882  0.00  0.00     0.028 C 
ATOM     12  C   LIG d   1      -2.287  81.783 116.128  0.00  0.00     0.006 C 
ENDBRANCH   8  11
ENDBRANCH   7   8
ENDBRANCH   1   7
BRANCH   6  13
ATOM     13  N   LIG d   1      -0.870  79.589 113.443  0.00  0.00    -0.311 N 
ATOM     14  C   LIG d   1      -2.156  79.252 113.364  0.00  0.00     0.210 C 
ATOM     15  C   LIG d   1      -2.556  78.027 114.191  0.00  0.00     0.109 C 
ATOM     16  O   LIG d   1      -2.997  79.833 112.662  0.00  0.00    -0.276 OA
ATOM     17  H   LIG d   1      -0.252  79.043 114.011  0.00  0.00     0.149 HD
ENDBRANCH   6  13
BRANCH   5  18
ATOM     18  N   LIG d   1      -0.470  79.771 110.420  0.00  0.00     0.381 N 
ATOM     19  H   LIG d   1      -1.205  79.269 110.876  0.00  0.00    -0.090 HD
ATOM     20  H   LIG d   1       0.047  79.125 109.849  0.00  0.00    -0.090 HD
ATOM     21  H   LIG d   1      -0.853  80.494 109.852  0.00  0.00    -0.090 HD
ENDBRANCH   5  18
BRANCH   3  22
ATOM     22  C   LIG d   1       2.964  83.013 111.218  0.00  0.00     0.382 C 
ATOM     23  O   LIG d   1       3.040  83.264 109.991  0.00  0.00    -0.241 OA
ATOM     24  O   LIG d   1       3.889  83.364 111.974  0.00  0.00    -0.241 OA
ENDBRANCH   3  22
TORSDOF 7
ENDMDL
MODEL 6
REMARK VINA RESULT:      -5.0      1.816      2.306
REMARK  7 active torsions:
REMARK  status: ('A' for Active; 'I' for Inactive)
REMARK    1  A    between atoms: C_2  and  C_3 
REMARK    2  A    between atoms: C_3  and  O_6 
REMARK    3  A    between atoms: C_3  and  C_4 
REMARK    4  A    between atoms: C_7  and  O_6 
REMARK    5  A    between atoms: C_9  and  C_10 
REMARK    6  A    between atoms: N_15  and  C_14 
REMARK    7  A    between atoms: N_20  and  C_19 
REMARK       I    between atoms: C_22  and  N_20 
ROOT
ATOM      1  C   LIG d   1      -1.207  81.970 112.310  0.00  0.00     0.161 C 
ATOM      2  C   LIG d   1      -2.024  80.916 112.752  0.00  0.00     0.016 C 
ATOM      3  C   LIG d   1      -1.816  79.565 112.390  0.00  0.00     0.038 C 
ATOM      4  C   LIG d   1      -0.678  79.155 111.679  0.00  0.00     0.028 C 
ATOM      5  C   LIG d   1      -0.097  80.246 110.786  0.00  0.00    -0.047 C 
ATOM      6  C   LIG d   1       0.103  81.529 111.625  0.00  0.00     0.091 C 
ENDROOT
BRANCH   1   7
ATOM      7  O   LIG d   1      -0.923  82.861 113.407  0.00  0.00    -0.368 OA
BRANCH   7   8
ATOM      8  C   LIG d   1      -1.004  82.284 114.734  0.00  0.00     0.119 C 
BRANCH   8   9
ATOM      9  C   LIG d   1      -1.227  83.440 115.728  0.00  0.00     0.028 C 
ATOM     10  C   LIG d   1      -0.384  84.680 115.386  0.00  0.00     0.006 C 
ENDBRANCH   8   9
BRANCH   8  11
ATOM     11  C   LIG d   1       0.326  81.646 115.146  0.00  0.00     0.028 C 
ATOM     12  C   LIG d   1       0.142  80.320 115.900  0.00  0.00     0.006 C 
ENDBRANCH   8  11
ENDBRANCH   7   8
ENDBRANCH   1   7
BRANCH   6  13
ATOM     13  N   LIG d   1       0.590  82.671 110.808  0.00  0.00    -0.311 N 
ATOM     14  C   LIG d   1       1.880  82.956 110.642  0.00  0.00     0.210 C 
ATOM     15  C   LIG d   1       2.164  84.189 109.778  0.00  0.00     0.109 C 
ATOM     16  O   LIG d   1       2.817  82.287 111.103  0.00  0.00    -0.276 OA
ATOM     17  H   LIG d   1      -0.103  83.248 110.372  0.00  0.00     0.149 HD
ENDBRANCH   6  13
BRANCH   5  18
ATOM     18  N   LIG d   1       1.160  79.729 110.212  0.00  0.00     0.381 N 
ATOM     19  H   LIG d   1       1.331  78.803 110.549  0.00  0.00    -0.090 HD
ATOM     20  H   LIG d   1       1.919  80.318 110.507  0.00  0.00    -0.090 HD
ATOM     21  H   LIG d   1       1.103  79.722 109.217  0.00  0.00    -0.090 HD
ENDBRANCH   5  18
BRANCH   3  22
ATOM     22  C   LIG d   1      -2.773  78.613 112.707  0.00  0.00     0.382 C 
ATOM     23  O   LIG d   1      -3.067  78.395 113.907  0.00  0.00    -0.241 OA
ATOM     24  O   LIG d   1      -3.314  77.939 111.810  0.00  0.00    -0.241 OA
ENDBRANCH   3  22
TORSDOF 7
ENDMDL
MODEL 7
REMARK VINA RESULT:      -4.6      2.219      4.833
REMARK  7 active torsions:
REMARK  status: ('A' for Active; 'I' for Inactive)
REMARK    1  A    between atoms: C_2  and  C_3 
REMARK    2  A    between atoms: C_3  and  O_6 
REMARK    3  A    between atoms: C_3  and  C_4 
REMARK    4  A    between atoms: C_7  and  O_6 
REMARK    5  A    between atoms: C_9  and  C_10 
REMARK    6  A    between atoms: N_15  and  C_14 
REMARK    7  A    between atoms: N_20  and  C_19 
REMARK       I    between atoms: C_22  and  N_20 
ROOT
ATOM      1  C   LIG d   1       0.890  82.268 114.066  0.00  0.00     0.161 C 
ATOM      2  C   LIG d   1       1.927  82.121 113.130  0.00  0.00     0.016 C 
ATOM      3  C   LIG d   1       1.765  81.472 111.885  0.00  0.00     0.038 C 
ATOM      4  C   LIG d   1       0.506  81.058 111.423  0.00  0.00     0.028 C 
ATOM      5  C   LIG d   1      -0.474  80.733 112.545  0.00  0.00    -0.047 C 
ATOM      6  C   LIG d   1      -0.516  81.921 113.534  0.00  0.00     0.091 C 
ENDROOT
BRANCH   1   7
ATOM      7  O   LIG d   1       0.905  83.605 114.606  0.00  0.00    -0.368 OA
BRANCH   7   8
ATOM      8  C   LIG d   1       1.219  83.719 116.016  0.00  0.00     0.119 C 
BRANCH   8   9
ATOM      9  C   LIG d   1       0.014  84.389 116.705  0.00  0.00     0.028 C 
ATOM     10  C   LIG d   1      -0.431  83.636 117.970  0.00  0.00     0.006 C 
ENDBRANCH   8   9
BRANCH   8  11
ATOM     11  C   LIG d   1       2.399  84.667 116.249  0.00  0.00     0.028 C 
ATOM     12  C   LIG d   1       3.747  84.052 115.844  0.00  0.00     0.006 C 
ENDBRANCH   8  11
ENDBRANCH   7   8
ENDBRANCH   1   7
BRANCH   6  13
ATOM     13  N   LIG d   1      -1.387  81.651 114.707  0.00  0.00    -0.311 N 
ATOM     14  C   LIG d   1      -2.680  81.968 114.748  0.00  0.00     0.210 C 
ATOM     15  C   LIG d   1      -3.390  81.620 116.061  0.00  0.00     0.109 C 
ATOM     16  O   LIG d   1      -3.314  82.475 113.811  0.00  0.00    -0.276 OA
ATOM     17  H   LIG d   1      -0.962  81.213 115.500  0.00  0.00     0.149 HD
ENDBRANCH   6  13
BRANCH   5  18
ATOM     18  N   LIG d   1      -1.782  80.449 111.926  0.00  0.00     0.381 N 
ATOM     19  H   LIG d   1      -2.426  81.183 112.143  0.00  0.00    -0.090 HD
ATOM     20  H   LIG d   1      -2.142  79.591 112.306  0.00  0.00    -0.090 HD
ATOM     21  H   LIG d   1      -1.681  80.367 110.938  0.00  0.00    -0.090 HD
ENDBRANCH   5  18
BRANCH   3  22
ATOM     22  C   LIG d   1       2.876  81.197 111.103  0.00  0.00     0.382 C 
ATOM     23  O   LIG d   1       3.993  81.682 111.408  0.00  0.00    -0.241 OA
ATOM     24  O   LIG d   1       2.768  80.508 110.071  0.00  0.00    -0.241 OA
ENDBRANCH   3  22
TORSDOF 7
ENDMDL
MODEL 8
REMARK VINA RESULT:      -4.5      2.529      5.293
REMARK  7 active torsions:
REMARK  status: ('A' for Active; 'I' for Inactive)
REMARK    1  A    between atoms: C_2  and  C_3 
REMARK    2  A    between atoms: C_3  and  O_6 
REMARK    3  A    between atoms: C_3  and  C_4 
REMARK    4  A    between atoms: C_7  and  O_6 
REMARK    5  A    between atoms: C_9  and  C_10 
REMARK    6  A    between atoms: N_15  and  C_14 
REMARK    7  A    between atoms: N_20  and  C_19 
REMARK       I    between atoms: C_22  and  N_20 
ROOT
ATOM      1  C   LIG d   1      -0.101  83.434 112.818  0.00  0.00     0.161 C 
ATOM      2  C   LIG d   1       0.324  82.982 111.558  0.00  0.00     0.016 C 
ATOM      3  C   LIG d   1       1.487  82.202 111.362  0.00  0.00     0.038 C 
ATOM      4  C   LIG d   1       2.227  81.691 112.439  0.00  0.00     0.028 C 
ATOM      5  C   LIG d   1       2.123  82.540 113.702  0.00  0.00    -0.047 C 
ATOM      6  C   LIG d   1       0.631  82.794 114.016  0.00  0.00     0.091 C 
ENDROOT
BRANCH   1   7
ATOM      7  O   LIG d   1      -1.526  83.253 112.947  0.00  0.00    -0.368 OA
BRANCH   7   8
ATOM      8  C   LIG d   1      -1.957  82.043 113.616  0.00  0.00     0.119 C 
BRANCH   8   9
ATOM      9  C   LIG d   1      -2.662  81.160 112.568  0.00  0.00     0.028 C 
ATOM     10  C   LIG d   1      -1.813  79.944 112.159  0.00  0.00     0.006 C 
ENDBRANCH   8   9
BRANCH   8  11
ATOM     11  C   LIG d   1      -3.021  82.342 114.677  0.00  0.00     0.028 C 
ATOM     12  C   LIG d   1      -3.023  81.319 115.824  0.00  0.00     0.006 C 
ENDBRANCH   8  11
ENDBRANCH   7   8
ENDBRANCH   1   7
BRANCH   6  13
ATOM     13  N   LIG d   1       0.442  83.687 115.188  0.00  0.00    -0.311 N 
ATOM     14  C   LIG d   1       0.281  83.239 116.432  0.00  0.00     0.210 C 
ATOM     15  C   LIG d   1       0.081  84.329 117.491  0.00  0.00     0.109 C 
ATOM     16  O   LIG d   1       0.316  82.045 116.764  0.00  0.00    -0.276 OA
ATOM     17  H   LIG d   1       0.431  84.673 115.014  0.00  0.00     0.149 HD
ENDBRANCH   6  13
BRANCH   5  18
ATOM     18  N   LIG d   1       2.827  81.822 114.781  0.00  0.00     0.381 N 
ATOM     19  H   LIG d   1       2.863  80.845 114.570  0.00  0.00    -0.090 HD
ATOM     20  H   LIG d   1       2.316  81.941 115.638  0.00  0.00    -0.090 HD
ATOM     21  H   LIG d   1       3.751  82.181 114.884  0.00  0.00    -0.090 HD
ENDBRANCH   5  18
BRANCH   3  22
ATOM     22  C   LIG d   1       1.944  81.960 110.076  0.00  0.00     0.382 C 
ATOM     23  O   LIG d   1       2.745  82.759 109.534  0.00  0.00    -0.241 OA
ATOM     24  O   LIG d   1       1.531  80.976 109.434  0.00  0.00    -0.241 OA
ENDBRANCH   3  22
TORSDOF 7
ENDMDL
MODEL 9
REMARK VINA RESULT:      -4.5      2.443      4.658
REMARK  7 active torsions:
REMARK  status: ('A' for Active; 'I' for Inactive)
REMARK    1  A    between atoms: C_2  and  C_3 
REMARK    2  A    between atoms: C_3  and  O_6 
REMARK    3  A    between atoms: C_3  and  C_4 
REMARK    4  A    between atoms: C_7  and  O_6 
REMARK    5  A    between atoms: C_9  and  C_10 
REMARK    6  A    between atoms: N_15  and  C_14 
REMARK    7  A    between atoms: N_20  and  C_19 
REMARK       I    between atoms: C_22  and  N_20 
ROOT
ATOM      1  C   LIG d   1       1.649  82.632 112.944  0.00  0.00     0.161 C 
ATOM      2  C   LIG d   1       0.483  82.071 112.397  0.00  0.00     0.016 C 
ATOM      3  C   LIG d   1      -0.816  82.344 112.885  0.00  0.00     0.038 C 
ATOM      4  C   LIG d   1      -1.050  83.321 113.864  0.00  0.00     0.028 C 
ATOM      5  C   LIG d   1       0.139  83.543 114.793  0.00  0.00    -0.047 C 
ATOM      6  C   LIG d   1       1.405  83.785 113.940  0.00  0.00     0.091 C 
ENDROOT
BRANCH   1   7
ATOM      7  O   LIG d   1       2.528  83.061 111.886  0.00  0.00    -0.368 OA
BRANCH   7   8
ATOM      8  C   LIG d   1       2.387  82.370 110.621  0.00  0.00     0.119 C 
BRANCH   8   9
ATOM      9  C   LIG d   1       3.637  81.489 110.433  0.00  0.00     0.028 C 
ATOM     10  C   LIG d   1       3.317  80.158 109.732  0.00  0.00     0.006 C 
ENDBRANCH   8   9
BRANCH   8  11
ATOM     11  C   LIG d   1       2.403  83.351 109.445  0.00  0.00     0.028 C 
ATOM     12  C   LIG d   1       1.180  84.282 109.430  0.00  0.00     0.006 C 
ENDBRANCH   8  11
ENDBRANCH   7   8
ENDBRANCH   1   7
BRANCH   6  13
ATOM     13  N   LIG d   1       2.629  83.928 114.771  0.00  0.00    -0.311 N 
ATOM     14  C   LIG d   1       3.042  83.002 115.634  0.00  0.00     0.210 C 
ATOM     15  C   LIG d   1       4.317  83.358 116.404  0.00  0.00     0.109 C 
ATOM     16  O   LIG d   1       2.490  81.905 115.812  0.00  0.00    -0.276 OA
ATOM     17  H   LIG d   1       3.154  84.774 114.667  0.00  0.00     0.149 HD
ENDBRANCH   6  13
BRANCH   5  18
ATOM     18  N   LIG d   1      -0.191  84.680 115.674  0.00  0.00     0.381 N 
ATOM     19  H   LIG d   1      -0.505  85.455 115.124  0.00  0.00    -0.090 HD
ATOM     20  H   LIG d   1       0.638  84.959 116.168  0.00  0.00    -0.090 HD
ATOM     21  H   LIG d   1      -0.900  84.415 116.322  0.00  0.00    -0.090 HD
ENDBRANCH   5  18
BRANCH   3  22
ATOM     22  C   LIG d   1      -1.894  81.606 112.419  0.00  0.00     0.382 C 
ATOM     23  O   LIG d   1      -3.057  81.895 112.789  0.00  0.00    -0.241 OA
ATOM     24  O   LIG d   1      -1.713  80.628 111.669  0.00  0.00    -0.241 OA
ENDBRANCH   3  22
TORSDOF 7
ENDMDL
