MODEL 1
REMARK VINA RESULT:      -4.7      0.000      0.000
REMARK  7 active torsions:
REMARK  status: ('A' for Active; 'I' for Inactive)
REMARK    1  A    between atoms: C_2  and  C_3 
REMARK    2  A    between atoms: C_3  and  O_6 
REMARK    3  A    between atoms: C_3  and  C_4 
REMARK    4  A    between atoms: C_7  and  O_6 
REMARK    5  A    between atoms: C_9  and  C_10 
REMARK    6  A    between atoms: N_15  and  C_14 
REMARK    7  A    between atoms: N_20  and  C_19 
REMARK       I    between atoms: C_22  and  N_20 
ROOT
ATOM      1  C   LIG d   1      -0.817  78.368 114.341  0.00  0.00     0.161 C 
ATOM      2  C   LIG d   1      -1.394  79.618 114.057  0.00  0.00     0.016 C 
ATOM      3  C   LIG d   1      -1.924  79.960 112.792  0.00  0.00     0.038 C 
ATOM      4  C   LIG d   1      -2.051  79.017 111.761  0.00  0.00     0.028 C 
ATOM      5  C   LIG d   1      -1.024  77.893 111.839  0.00  0.00    -0.047 C 
ATOM      6  C   LIG d   1      -1.047  77.290 113.262  0.00  0.00     0.091 C 
ENDROOT
BRANCH   1   7
ATOM      7  O   LIG d   1      -1.275  77.899 115.624  0.00  0.00    -0.368 OA
BRANCH   7   8
ATOM      8  C   LIG d   1      -0.900  78.704 116.769  0.00  0.00     0.119 C 
BRANCH   8   9
ATOM      9  C   LIG d   1       0.621  78.549 116.965  0.00  0.00     0.028 C 
ATOM     10  C   LIG d   1       1.020  77.111 117.338  0.00  0.00     0.006 C 
ENDBRANCH   8   9
BRANCH   8  11
ATOM     11  C   LIG d   1      -1.532  78.170 118.057  0.00  0.00     0.028 C 
ATOM     12  C   LIG d   1      -2.792  77.328 117.799  0.00  0.00     0.006 C 
ENDBRANCH   8  11
ENDBRANCH   7   8
ENDBRANCH   1   7
BRANCH   6  13
ATOM     13  N   LIG d   1      -0.013  76.239 113.449  0.00  0.00    -0.311 N 
ATOM     14  C   LIG d   1      -0.220  75.122 114.144  0.00  0.00     0.210 C 
ATOM     15  C   LIG d   1       0.985  74.180 114.230  0.00  0.00     0.109 C 
ATOM     16  O   LIG d   1      -1.298  74.806 114.670  0.00  0.00    -0.276 OA
ATOM     17  H   LIG d   1       0.882  76.399 113.029  0.00  0.00     0.149 HD
ENDBRANCH   6  13
BRANCH   5  18
ATOM     18  N   LIG d   1      -1.357  76.912 110.789  0.00  0.00     0.381 N 
ATOM     19  H   LIG d   1      -0.697  76.979 110.041  0.00  0.00    -0.090 HD
ATOM     20  H   LIG d   1      -2.270  77.122 110.425  0.00  0.00    -0.090 HD
ATOM     21  H   LIG d   1      -1.348  75.990 111.168  0.00  0.00    -0.090 HD
ENDBRANCH   5  18
BRANCH   3  22
ATOM     22  C   LIG d   1      -2.298  81.271 112.536  0.00  0.00     0.382 C 
ATOM     23  O   LIG d   1      -1.472  82.072 112.037  0.00  0.00    -0.241 OA
ATOM     24  O   LIG d   1      -3.437  81.673 112.838  0.00  0.00    -0.241 OA
ENDBRANCH   3  22
TORSDOF 7
ENDMDL
MODEL 2
REMARK VINA RESULT:      -4.6      2.994      4.895
REMARK  7 active torsions:
REMARK  status: ('A' for Active; 'I' for Inactive)
REMARK    1  A    between atoms: C_2  and  C_3 
REMARK    2  A    between atoms: C_3  and  O_6 
REMARK    3  A    between atoms: C_3  and  C_4 
REMARK    4  A    between atoms: C_7  and  O_6 
REMARK    5  A    between atoms: C_9  and  C_10 
REMARK    6  A    between atoms: N_15  and  C_14 
REMARK    7  A    between atoms: N_20  and  C_19 
REMARK       I    between atoms: C_22  and  N_20 
ROOT
ATOM      1  C   LIG d   1      -0.906  79.996 113.031  0.00  0.00     0.161 C 
ATOM      2  C   LIG d   1      -1.474  78.775 112.632  0.00  0.00     0.016 C 
ATOM      3  C   LIG d   1      -1.346  78.248 111.326  0.00  0.00     0.038 C 
ATOM      4  C   LIG d   1      -0.509  78.837 110.367  0.00  0.00     0.028 C 
ATOM      5  C   LIG d   1      -0.320  80.337 110.568  0.00  0.00    -0.047 C 
ATOM      6  C   LIG d   1       0.104  80.598 112.031  0.00  0.00     0.091 C 
ENDROOT
BRANCH   1   7
ATOM      7  O   LIG d   1      -0.298  79.850 114.330  0.00  0.00    -0.368 OA
BRANCH   7   8
ATOM      8  C   LIG d   1      -0.664  78.663 115.076  0.00  0.00     0.119 C 
BRANCH   8   9
ATOM      9  C   LIG d   1      -1.380  79.125 116.359  0.00  0.00     0.028 C 
ATOM     10  C   LIG d   1      -0.395  79.559 117.458  0.00  0.00     0.006 C 
ENDBRANCH   8   9
BRANCH   8  11
ATOM     11  C   LIG d   1       0.575  77.902 115.555  0.00  0.00     0.028 C 
ATOM     12  C   LIG d   1       0.633  76.462 115.021  0.00  0.00     0.006 C 
ENDBRANCH   8  11
ENDBRANCH   7   8
ENDBRANCH   1   7
BRANCH   6  13
ATOM     13  N   LIG d   1       0.228  82.047 112.335  0.00  0.00    -0.311 N 
ATOM     14  C   LIG d   1       1.373  82.721 112.238  0.00  0.00     0.210 C 
ATOM     15  C   LIG d   1       1.286  84.202 112.617  0.00  0.00     0.109 C 
ATOM     16  O   LIG d   1       2.446  82.239 111.843  0.00  0.00    -0.276 OA
ATOM     17  H   LIG d   1      -0.600  82.524 112.633  0.00  0.00     0.149 HD
ENDBRANCH   6  13
BRANCH   5  18
ATOM     18  N   LIG d   1       0.681  80.795 109.586  0.00  0.00     0.381 N 
ATOM     19  H   LIG d   1       1.070  80.008 109.106  0.00  0.00    -0.090 HD
ATOM     20  H   LIG d   1       1.423  81.265 110.073  0.00  0.00    -0.090 HD
ATOM     21  H   LIG d   1       0.258  81.416 108.932  0.00  0.00    -0.090 HD
ENDBRANCH   5  18
BRANCH   3  22
ATOM     22  C   LIG d   1      -2.093  77.139 110.956  0.00  0.00     0.382 C 
ATOM     23  O   LIG d   1      -3.333  77.244 110.796  0.00  0.00    -0.241 OA
ATOM     24  O   LIG d   1      -1.549  76.026 110.825  0.00  0.00    -0.241 OA
ENDBRANCH   3  22
TORSDOF 7
ENDMDL
MODEL 3
REMARK VINA RESULT:      -4.6      0.571      1.640
REMARK  7 active torsions:
REMARK  status: ('A' for Active; 'I' for Inactive)
REMARK    1  A    between atoms: C_2  and  C_3 
REMARK    2  A    between atoms: C_3  and  O_6 
REMARK    3  A    between atoms: C_3  and  C_4 
REMARK    4  A    between atoms: C_7  and  O_6 
REMARK    5  A    between atoms: C_9  and  C_10 
REMARK    6  A    between atoms: N_15  and  C_14 
REMARK    7  A    between atoms: N_20  and  C_19 
REMARK       I    between atoms: C_22  and  N_20 
ROOT
ATOM      1  C   LIG d   1      -0.916  78.387 114.492  0.00  0.00     0.161 C 
ATOM      2  C   LIG d   1      -1.483  79.632 114.169  0.00  0.00     0.016 C 
ATOM      3  C   LIG d   1      -1.936  79.968 112.873  0.00  0.00     0.038 C 
ATOM      4  C   LIG d   1      -1.992  79.022 111.839  0.00  0.00     0.028 C 
ATOM      5  C   LIG d   1      -0.964  77.905 111.983  0.00  0.00    -0.047 C 
ATOM      6  C   LIG d   1      -1.071  77.305 113.403  0.00  0.00     0.091 C 
ENDROOT
BRANCH   1   7
ATOM      7  O   LIG d   1      -1.450  77.917 115.745  0.00  0.00    -0.368 OA
BRANCH   7   8
ATOM      8  C   LIG d   1      -0.555  77.979 116.883  0.00  0.00     0.119 C 
BRANCH   8   9
ATOM      9  C   LIG d   1      -1.088  79.068 117.833  0.00  0.00     0.028 C 
ATOM     10  C   LIG d   1      -2.606  78.959 118.058  0.00  0.00     0.006 C 
ENDBRANCH   8   9
BRANCH   8  11
ATOM     11  C   LIG d   1       0.842  78.451 116.468  0.00  0.00     0.028 C 
ATOM     12  C   LIG d   1       1.907  77.352 116.602  0.00  0.00     0.006 C 
ENDBRANCH   8  11
ENDBRANCH   7   8
ENDBRANCH   1   7
BRANCH   6  13
ATOM     13  N   LIG d   1      -0.043  76.262 113.657  0.00  0.00    -0.311 N 
ATOM     14  C   LIG d   1      -0.306  75.106 114.265  0.00  0.00     0.210 C 
ATOM     15  C   LIG d   1       0.901  74.180 114.444  0.00  0.00     0.109 C 
ATOM     16  O   LIG d   1      -1.431  74.746 114.643  0.00  0.00    -0.276 OA
ATOM     17  H   LIG d   1       0.891  76.458 113.354  0.00  0.00     0.149 HD
ENDBRANCH   6  13
BRANCH   5  18
ATOM     18  N   LIG d   1      -1.224  76.919 110.917  0.00  0.00     0.381 N 
ATOM     19  H   LIG d   1      -1.735  77.351 110.173  0.00  0.00    -0.090 HD
ATOM     20  H   LIG d   1      -1.784  76.174 111.293  0.00  0.00    -0.090 HD
ATOM     21  H   LIG d   1      -0.364  76.556 110.571  0.00  0.00    -0.090 HD
ENDBRANCH   5  18
BRANCH   3  22
ATOM     22  C   LIG d   1      -2.302  81.275 112.591  0.00  0.00     0.382 C 
ATOM     23  O   LIG d   1      -1.471  82.062 112.077  0.00  0.00    -0.241 OA
ATOM     24  O   LIG d   1      -3.440  81.690 112.883  0.00  0.00    -0.241 OA
ENDBRANCH   3  22
TORSDOF 7
ENDMDL
MODEL 4
REMARK VINA RESULT:      -4.5      2.310      6.070
REMARK  7 active torsions:
REMARK  status: ('A' for Active; 'I' for Inactive)
REMARK    1  A    between atoms: C_2  and  C_3 
REMARK    2  A    between atoms: C_3  and  O_6 
REMARK    3  A    between atoms: C_3  and  C_4 
REMARK    4  A    between atoms: C_7  and  O_6 
REMARK    5  A    between atoms: C_9  and  C_10 
REMARK    6  A    between atoms: N_15  and  C_14 
REMARK    7  A    between atoms: N_20  and  C_19 
REMARK       I    between atoms: C_22  and  N_20 
ROOT
ATOM      1  C   LIG d   1      -1.001  77.320 113.776  0.00  0.00     0.161 C 
ATOM      2  C   LIG d   1      -1.202  76.215 114.620  0.00  0.00     0.016 C 
ATOM      3  C   LIG d   1      -1.052  76.272 116.025  0.00  0.00     0.038 C 
ATOM      4  C   LIG d   1      -0.837  77.482 116.700  0.00  0.00     0.028 C 
ATOM      5  C   LIG d   1      -0.128  78.532 115.850  0.00  0.00    -0.047 C 
ATOM      6  C   LIG d   1      -0.875  78.675 114.504  0.00  0.00     0.091 C 
ENDROOT
BRANCH   1   7
ATOM      7  O   LIG d   1      -2.050  77.378 112.789  0.00  0.00    -0.368 OA
BRANCH   7   8
ATOM      8  C   LIG d   1      -1.697  76.928 111.458  0.00  0.00     0.119 C 
BRANCH   8   9
ATOM      9  C   LIG d   1      -0.172  76.709 111.432  0.00  0.00     0.028 C 
ATOM     10  C   LIG d   1       0.210  75.290 110.981  0.00  0.00     0.006 C 
ENDBRANCH   8   9
BRANCH   8  11
ATOM     11  C   LIG d   1      -1.968  78.014 110.413  0.00  0.00     0.028 C 
ATOM     12  C   LIG d   1      -0.681  78.657 109.873  0.00  0.00     0.006 C 
ENDBRANCH   8  11
ENDBRANCH   7   8
ENDBRANCH   1   7
BRANCH   6  13
ATOM     13  N   LIG d   1      -0.199  79.622 113.579  0.00  0.00    -0.311 N 
ATOM     14  C   LIG d   1      -0.850  80.535 112.860  0.00  0.00     0.210 C 
ATOM     15  C   LIG d   1       0.036  81.396 111.954  0.00  0.00     0.109 C 
ATOM     16  O   LIG d   1      -2.073  80.734 112.910  0.00  0.00    -0.276 OA
ATOM     17  H   LIG d   1       0.797  79.550 113.500  0.00  0.00     0.149 HD
ENDBRANCH   6  13
BRANCH   5  18
ATOM     18  N   LIG d   1      -0.092  79.785 116.627  0.00  0.00     0.381 N 
ATOM     19  H   LIG d   1      -0.647  80.482 116.172  0.00  0.00    -0.090 HD
ATOM     20  H   LIG d   1       0.856  80.114 116.669  0.00  0.00    -0.090 HD
ATOM     21  H   LIG d   1      -0.437  79.625 117.548  0.00  0.00    -0.090 HD
ENDBRANCH   5  18
BRANCH   3  22
ATOM     22  C   LIG d   1      -1.077  75.100 116.766  0.00  0.00     0.382 C 
ATOM     23  O   LIG d   1      -1.873  74.180 116.458  0.00  0.00    -0.241 OA
ATOM     24  O   LIG d   1      -0.345  74.969 117.766  0.00  0.00    -0.241 OA
ENDBRANCH   3  22
TORSDOF 7
ENDMDL
MODEL 5
REMARK VINA RESULT:      -4.4      2.109      4.663
REMARK  7 active torsions:
REMARK  status: ('A' for Active; 'I' for Inactive)
REMARK    1  A    between atoms: C_2  and  C_3 
REMARK    2  A    between atoms: C_3  and  O_6 
REMARK    3  A    between atoms: C_3  and  C_4 
REMARK    4  A    between atoms: C_7  and  O_6 
REMARK    5  A    between atoms: C_9  and  C_10 
REMARK    6  A    between atoms: N_15  and  C_14 
REMARK    7  A    between atoms: N_20  and  C_19 
REMARK       I    between atoms: C_22  and  N_20 
ROOT
ATOM      1  C   LIG d   1      -1.137  79.235 114.513  0.00  0.00     0.161 C 
ATOM      2  C   LIG d   1      -1.472  77.919 114.873  0.00  0.00     0.016 C 
ATOM      3  C   LIG d   1      -1.704  76.889 113.932  0.00  0.00     0.038 C 
ATOM      4  C   LIG d   1      -1.468  77.071 112.561  0.00  0.00     0.028 C 
ATOM      5  C   LIG d   1      -1.618  78.519 112.107  0.00  0.00    -0.047 C 
ATOM      6  C   LIG d   1      -0.766  79.424 113.027  0.00  0.00     0.091 C 
ENDROOT
BRANCH   1   7
ATOM      7  O   LIG d   1      -0.076  79.718 115.359  0.00  0.00    -0.368 OA
BRANCH   7   8
ATOM      8  C   LIG d   1       0.082  79.043 116.632  0.00  0.00     0.119 C 
BRANCH   8   9
ATOM      9  C   LIG d   1      -0.406  80.007 117.731  0.00  0.00     0.028 C 
ATOM     10  C   LIG d   1      -1.678  79.501 118.432  0.00  0.00     0.006 C 
ENDBRANCH   8   9
BRANCH   8  11
ATOM     11  C   LIG d   1       1.559  78.785 116.946  0.00  0.00     0.028 C 
ATOM     12  C   LIG d   1       2.044  77.415 116.446  0.00  0.00     0.006 C 
ENDBRANCH   8  11
ENDBRANCH   7   8
ENDBRANCH   1   7
BRANCH   6  13
ATOM     13  N   LIG d   1      -0.922  80.866 112.704  0.00  0.00    -0.311 N 
ATOM     14  C   LIG d   1      -0.152  81.509 111.828  0.00  0.00     0.210 C 
ATOM     15  C   LIG d   1      -0.469  82.998 111.660  0.00  0.00     0.109 C 
ATOM     16  O   LIG d   1       0.742  80.980 111.152  0.00  0.00    -0.276 OA
ATOM     17  H   LIG d   1      -1.645  81.366 113.185  0.00  0.00     0.149 HD
ENDBRANCH   6  13
BRANCH   5  18
ATOM     18  N   LIG d   1      -1.210  78.586 110.691  0.00  0.00     0.381 N 
ATOM     19  H   LIG d   1      -0.643  79.396 110.540  0.00  0.00    -0.090 HD
ATOM     20  H   LIG d   1      -2.033  78.667 110.120  0.00  0.00    -0.090 HD
ATOM     21  H   LIG d   1      -0.703  77.766 110.443  0.00  0.00    -0.090 HD
ENDBRANCH   5  18
BRANCH   3  22
ATOM     22  C   LIG d   1      -2.217  75.673 114.357  0.00  0.00     0.382 C 
ATOM     23  O   LIG d   1      -1.442  74.775 114.766  0.00  0.00    -0.241 OA
ATOM     24  O   LIG d   1      -3.440  75.446 114.295  0.00  0.00    -0.241 OA
ENDBRANCH   3  22
TORSDOF 7
ENDMDL
MODEL 6
REMARK VINA RESULT:      -4.4      1.430      2.080
REMARK  7 active torsions:
REMARK  status: ('A' for Active; 'I' for Inactive)
REMARK    1  A    between atoms: C_2  and  C_3 
REMARK    2  A    between atoms: C_3  and  O_6 
REMARK    3  A    between atoms: C_3  and  C_4 
REMARK    4  A    between atoms: C_7  and  O_6 
REMARK    5  A    between atoms: C_9  and  C_10 
REMARK    6  A    between atoms: N_15  and  C_14 
REMARK    7  A    between atoms: N_20  and  C_19 
REMARK       I    between atoms: C_22  and  N_20 
ROOT
ATOM      1  C   LIG d   1      -2.072  77.729 114.460  0.00  0.00     0.161 C 
ATOM      2  C   LIG d   1      -2.332  79.079 114.170  0.00  0.00     0.016 C 
ATOM      3  C   LIG d   1      -2.256  79.623 112.867  0.00  0.00     0.038 C 
ATOM      4  C   LIG d   1      -2.062  78.816 111.737  0.00  0.00     0.028 C 
ATOM      5  C   LIG d   1      -1.296  77.531 112.034  0.00  0.00    -0.047 C 
ATOM      6  C   LIG d   1      -1.968  76.810 113.225  0.00  0.00     0.091 C 
ENDROOT
BRANCH   1   7
ATOM      7  O   LIG d   1      -3.066  77.226 115.376  0.00  0.00    -0.368 OA
BRANCH   7   8
ATOM      8  C   LIG d   1      -2.615  76.974 116.729  0.00  0.00     0.119 C 
BRANCH   8   9
ATOM      9  C   LIG d   1      -3.403  75.761 117.261  0.00  0.00     0.028 C 
ATOM     10  C   LIG d   1      -2.920  74.434 116.650  0.00  0.00     0.006 C 
ENDBRANCH   8   9
BRANCH   8  11
ATOM     11  C   LIG d   1      -2.978  78.133 117.662  0.00  0.00     0.028 C 
ATOM     12  C   LIG d   1      -1.770  79.015 118.014  0.00  0.00     0.006 C 
ENDBRANCH   8  11
ENDBRANCH   7   8
ENDBRANCH   1   7
BRANCH   6  13
ATOM     13  N   LIG d   1      -1.232  75.586 113.635  0.00  0.00    -0.311 N 
ATOM     14  C   LIG d   1      -0.074  75.613 114.293  0.00  0.00     0.210 C 
ATOM     15  C   LIG d   1       0.526  74.238 114.602  0.00  0.00     0.109 C 
ATOM     16  O   LIG d   1       0.496  76.645 114.679  0.00  0.00    -0.276 OA
ATOM     17  H   LIG d   1      -1.639  74.705 113.390  0.00  0.00     0.149 HD
ENDBRANCH   6  13
BRANCH   5  18
ATOM     18  N   LIG d   1      -1.286  76.723 110.800  0.00  0.00     0.381 N 
ATOM     19  H   LIG d   1      -2.205  76.693 110.406  0.00  0.00    -0.090 HD
ATOM     20  H   LIG d   1      -1.010  75.784 111.028  0.00  0.00    -0.090 HD
ATOM     21  H   LIG d   1      -0.648  77.113 110.142  0.00  0.00    -0.090 HD
ENDBRANCH   5  18
BRANCH   3  22
ATOM     22  C   LIG d   1      -2.336  80.996 112.691  0.00  0.00     0.382 C 
ATOM     23  O   LIG d   1      -3.439  81.581 112.813  0.00  0.00    -0.241 OA
ATOM     24  O   LIG d   1      -1.327  81.651 112.367  0.00  0.00    -0.241 OA
ENDBRANCH   3  22
TORSDOF 7
ENDMDL
MODEL 7
REMARK VINA RESULT:      -4.4      2.453      3.982
REMARK  7 active torsions:
REMARK  status: ('A' for Active; 'I' for Inactive)
REMARK    1  A    between atoms: C_2  and  C_3 
REMARK    2  A    between atoms: C_3  and  O_6 
REMARK    3  A    between atoms: C_3  and  C_4 
REMARK    4  A    between atoms: C_7  and  O_6 
REMARK    5  A    between atoms: C_9  and  C_10 
REMARK    6  A    between atoms: N_15  and  C_14 
REMARK    7  A    between atoms: N_20  and  C_19 
REMARK       I    between atoms: C_22  and  N_20 
ROOT
ATOM      1  C   LIG d   1      -2.292  76.729 114.899  0.00  0.00     0.161 C 
ATOM      2  C   LIG d   1      -2.502  76.759 113.510  0.00  0.00     0.016 C 
ATOM      3  C   LIG d   1      -1.903  77.711 112.653  0.00  0.00     0.038 C 
ATOM      4  C   LIG d   1      -0.928  78.610 113.110  0.00  0.00     0.028 C 
ATOM      5  C   LIG d   1      -1.060  78.947 114.591  0.00  0.00    -0.047 C 
ATOM      6  C   LIG d   1      -1.145  77.632 115.399  0.00  0.00     0.091 C 
ENDROOT
BRANCH   1   7
ATOM      7  O   LIG d   1      -2.085  75.370 115.332  0.00  0.00    -0.368 OA
BRANCH   7   8
ATOM      8  C   LIG d   1      -0.760  75.052 115.824  0.00  0.00     0.119 C 
BRANCH   8   9
ATOM      9  C   LIG d   1      -0.068  74.180 114.759  0.00  0.00     0.028 C 
ATOM     10  C   LIG d   1       0.836  75.002 113.825  0.00  0.00     0.006 C 
ENDBRANCH   8   9
BRANCH   8  11
ATOM     11  C   LIG d   1      -0.827  74.180 117.082  0.00  0.00     0.028 C 
ATOM     12  C   LIG d   1      -2.063  74.474 117.946  0.00  0.00     0.006 C 
ENDBRANCH   8  11
ENDBRANCH   7   8
ENDBRANCH   1   7
BRANCH   6  13
ATOM     13  N   LIG d   1      -1.360  77.871 116.850  0.00  0.00    -0.311 N 
ATOM     14  C   LIG d   1      -0.368  77.966 117.733  0.00  0.00     0.210 C 
ATOM     15  C   LIG d   1      -0.810  78.194 119.182  0.00  0.00     0.109 C 
ATOM     16  O   LIG d   1       0.839  77.915 117.449  0.00  0.00    -0.276 OA
ATOM     17  H   LIG d   1      -2.308  77.956 117.162  0.00  0.00     0.149 HD
ENDBRANCH   6  13
BRANCH   5  18
ATOM     18  N   LIG d   1       0.098  79.781 114.964  0.00  0.00     0.381 N 
ATOM     19  H   LIG d   1       0.923  79.217 115.005  0.00  0.00    -0.090 HD
ATOM     20  H   LIG d   1      -0.063  80.172 115.876  0.00  0.00    -0.090 HD
ATOM     21  H   LIG d   1       0.219  80.512 114.298  0.00  0.00    -0.090 HD
ENDBRANCH   5  18
BRANCH   3  22
ATOM     22  C   LIG d   1      -2.309  77.796 111.330  0.00  0.00     0.382 C 
ATOM     23  O   LIG d   1      -3.337  77.184 110.949  0.00  0.00    -0.241 OA
ATOM     24  O   LIG d   1      -1.637  78.440 110.503  0.00  0.00    -0.241 OA
ENDBRANCH   3  22
TORSDOF 7
ENDMDL
MODEL 8
REMARK VINA RESULT:      -4.3      2.745      5.685
REMARK  7 active torsions:
REMARK  status: ('A' for Active; 'I' for Inactive)
REMARK    1  A    between atoms: C_2  and  C_3 
REMARK    2  A    between atoms: C_3  and  O_6 
REMARK    3  A    between atoms: C_3  and  C_4 
REMARK    4  A    between atoms: C_7  and  O_6 
REMARK    5  A    between atoms: C_9  and  C_10 
REMARK    6  A    between atoms: N_15  and  C_14 
REMARK    7  A    between atoms: N_20  and  C_19 
REMARK       I    between atoms: C_22  and  N_20 
ROOT
ATOM      1  C   LIG d   1      -1.145  76.629 113.353  0.00  0.00     0.161 C 
ATOM      2  C   LIG d   1      -0.308  75.991 112.422  0.00  0.00     0.016 C 
ATOM      3  C   LIG d   1       0.603  74.966 112.769  0.00  0.00     0.038 C 
ATOM      4  C   LIG d   1       0.630  74.402 114.053  0.00  0.00     0.028 C 
ATOM      5  C   LIG d   1       0.159  75.357 115.144  0.00  0.00    -0.047 C 
ATOM      6  C   LIG d   1      -1.209  75.950 114.737  0.00  0.00     0.091 C 
ENDROOT
BRANCH   1   7
ATOM      7  O   LIG d   1      -2.470  76.770 112.802  0.00  0.00    -0.368 OA
BRANCH   7   8
ATOM      8  C   LIG d   1      -2.740  78.008 112.101  0.00  0.00     0.119 C 
BRANCH   8   9
ATOM      9  C   LIG d   1      -2.374  77.791 110.620  0.00  0.00     0.028 C 
ATOM     10  C   LIG d   1      -1.109  78.563 110.208  0.00  0.00     0.006 C 
ENDBRANCH   8   9
BRANCH   8  11
ATOM     11  C   LIG d   1      -1.821  79.134 112.585  0.00  0.00     0.028 C 
ATOM     12  C   LIG d   1      -2.595  80.319 113.185  0.00  0.00     0.006 C 
ENDBRANCH   8  11
ENDBRANCH   7   8
ENDBRANCH   1   7
BRANCH   6  13
ATOM     13  N   LIG d   1      -1.702  76.958 115.710  0.00  0.00    -0.311 N 
ATOM     14  C   LIG d   1      -2.530  76.667 116.712  0.00  0.00     0.210 C 
ATOM     15  C   LIG d   1      -2.931  77.858 117.588  0.00  0.00     0.109 C 
ATOM     16  O   LIG d   1      -2.944  75.529 116.979  0.00  0.00    -0.276 OA
ATOM     17  H   LIG d   1      -1.391  77.902 115.587  0.00  0.00     0.149 HD
ENDBRANCH   6  13
BRANCH   5  18
ATOM     18  N   LIG d   1       0.107  74.597 116.408  0.00  0.00     0.381 N 
ATOM     19  H   LIG d   1       0.148  73.616 116.216  0.00  0.00    -0.090 HD
ATOM     20  H   LIG d   1      -0.765  74.793 116.869  0.00  0.00    -0.090 HD
ATOM     21  H   LIG d   1       0.867  74.860 116.996  0.00  0.00    -0.090 HD
ENDBRANCH   5  18
BRANCH   3  22
ATOM     22  C   LIG d   1       1.527  74.524 111.835  0.00  0.00     0.382 C 
ATOM     23  O   LIG d   1       1.200  74.424 110.628  0.00  0.00    -0.241 OA
ATOM     24  O   LIG d   1       2.670  74.180 112.191  0.00  0.00    -0.241 OA
ENDBRANCH   3  22
TORSDOF 7
ENDMDL
MODEL 9
REMARK VINA RESULT:      -4.2      2.751      5.358
REMARK  7 active torsions:
REMARK  status: ('A' for Active; 'I' for Inactive)
REMARK    1  A    between atoms: C_2  and  C_3 
REMARK    2  A    between atoms: C_3  and  O_6 
REMARK    3  A    between atoms: C_3  and  C_4 
REMARK    4  A    between atoms: C_7  and  O_6 
REMARK    5  A    between atoms: C_9  and  C_10 
REMARK    6  A    between atoms: N_15  and  C_14 
REMARK    7  A    between atoms: N_20  and  C_19 
REMARK       I    between atoms: C_22  and  N_20 
ROOT
ATOM      1  C   LIG d   1      -0.505  79.661 112.963  0.00  0.00     0.161 C 
ATOM      2  C   LIG d   1      -1.157  78.949 111.942  0.00  0.00     0.016 C 
ATOM      3  C   LIG d   1      -1.814  77.714 112.152  0.00  0.00     0.038 C 
ATOM      4  C   LIG d   1      -1.994  77.179 113.436  0.00  0.00     0.028 C 
ATOM      5  C   LIG d   1      -0.918  77.608 114.427  0.00  0.00    -0.047 C 
ATOM      6  C   LIG d   1      -0.787  79.148 114.391  0.00  0.00     0.091 C 
ENDROOT
BRANCH   1   7
ATOM      7  O   LIG d   1      -0.825  81.062 112.862  0.00  0.00    -0.368 OA
BRANCH   7   8
ATOM      8  C   LIG d   1      -0.260  81.765 111.728  0.00  0.00     0.119 C 
BRANCH   8   9
ATOM      9  C   LIG d   1       1.267  81.821 111.932  0.00  0.00     0.028 C 
ATOM     10  C   LIG d   1       2.042  81.351 110.690  0.00  0.00     0.006 C 
ENDBRANCH   8   9
BRANCH   8  11
ATOM     11  C   LIG d   1      -0.718  83.226 111.694  0.00  0.00     0.028 C 
ATOM     12  C   LIG d   1       0.363  84.201 112.189  0.00  0.00     0.006 C 
ENDBRANCH   8  11
ENDBRANCH   7   8
ENDBRANCH   1   7
BRANCH   6  13
ATOM     13  N   LIG d   1       0.303  79.645 115.270  0.00  0.00    -0.311 N 
ATOM     14  C   LIG d   1       0.170  79.800 116.586  0.00  0.00     0.210 C 
ATOM     15  C   LIG d   1       1.410  80.344 117.302  0.00  0.00     0.109 C 
ATOM     16  O   LIG d   1      -0.847  79.508 117.234  0.00  0.00    -0.276 OA
ATOM     17  H   LIG d   1       1.173  79.876 114.832  0.00  0.00     0.149 HD
ENDBRANCH   6  13
BRANCH   5  18
ATOM     18  N   LIG d   1      -1.304  77.092 115.754  0.00  0.00     0.381 N 
ATOM     19  H   LIG d   1      -1.748  76.201 115.655  0.00  0.00    -0.090 HD
ATOM     20  H   LIG d   1      -1.960  77.727 116.172  0.00  0.00    -0.090 HD
ATOM     21  H   LIG d   1      -0.498  77.007 116.334  0.00  0.00    -0.090 HD
ENDBRANCH   5  18
BRANCH   3  22
ATOM     22  C   LIG d   1      -2.264  76.982 111.064  0.00  0.00     0.382 C 
ATOM     23  O   LIG d   1      -3.394  77.219 110.573  0.00  0.00    -0.241 OA
ATOM     24  O   LIG d   1      -1.574  76.058 110.595  0.00  0.00    -0.241 OA
ENDBRANCH   3  22
TORSDOF 7
ENDMDL
