MODEL 1
REMARK VINA RESULT:      -5.5      0.000      0.000
REMARK  7 active torsions:
REMARK  status: ('A' for Active; 'I' for Inactive)
REMARK    1  A    between atoms: C_2  and  C_3 
REMARK    2  A    between atoms: C_3  and  O_6 
REMARK    3  A    between atoms: C_3  and  C_4 
REMARK    4  A    between atoms: C_7  and  O_6 
REMARK    5  A    between atoms: C_9  and  C_10 
REMARK    6  A    between atoms: N_15  and  C_14 
REMARK    7  A    between atoms: N_20  and  C_19 
REMARK       I    between atoms: C_22  and  N_20 
ROOT
ATOM      1  C   LIG d   1       1.646  81.439 112.595  0.00  0.00     0.161 C 
ATOM      2  C   LIG d   1       2.845  81.643 111.891  0.00  0.00     0.016 C 
ATOM      3  C   LIG d   1       3.005  81.334 110.521  0.00  0.00     0.038 C 
ATOM      4  C   LIG d   1       1.925  80.939 109.719  0.00  0.00     0.028 C 
ATOM      5  C   LIG d   1       0.817  80.238 110.498  0.00  0.00    -0.047 C 
ATOM      6  C   LIG d   1       0.425  81.113 111.710  0.00  0.00     0.091 C 
ENDROOT
BRANCH   1   7
ATOM      7  O   LIG d   1       1.370  82.581 113.430  0.00  0.00    -0.368 OA
BRANCH   7   8
ATOM      8  C   LIG d   1       1.780  83.868 112.906  0.00  0.00     0.119 C 
BRANCH   8   9
ATOM      9  C   LIG d   1       2.368  84.679 114.077  0.00  0.00     0.028 C 
ATOM     10  C   LIG d   1       3.803  84.247 114.427  0.00  0.00     0.006 C 
ENDBRANCH   8   9
BRANCH   8  11
ATOM     11  C   LIG d   1       0.577  84.680 112.416  0.00  0.00     0.028 C 
ATOM     12  C   LIG d   1       0.226  84.397 110.946  0.00  0.00     0.006 C 
ENDBRANCH   8  11
ENDBRANCH   7   8
ENDBRANCH   1   7
BRANCH   6  13
ATOM     13  N   LIG d   1      -0.594  80.462 112.574  0.00  0.00    -0.311 N 
ATOM     14  C   LIG d   1      -1.785  80.999 112.835  0.00  0.00     0.210 C 
ATOM     15  C   LIG d   1      -2.678  80.171 113.765  0.00  0.00     0.109 C 
ATOM     16  O   LIG d   1      -2.199  82.067 112.359  0.00  0.00    -0.276 OA
ATOM     17  H   LIG d   1      -0.353  79.577 112.976  0.00  0.00     0.149 HD
ENDBRANCH   6  13
BRANCH   5  18
ATOM     18  N   LIG d   1      -0.303  80.004 109.567  0.00  0.00     0.381 N 
ATOM     19  H   LIG d   1      -0.680  80.880 109.263  0.00  0.00    -0.090 HD
ATOM     20  H   LIG d   1      -1.027  79.501 110.049  0.00  0.00    -0.090 HD
ATOM     21  H   LIG d   1       0.010  79.479 108.781  0.00  0.00    -0.090 HD
ENDBRANCH   5  18
BRANCH   3  22
ATOM     22  C   LIG d   1       4.268  81.382 109.949  0.00  0.00     0.382 C 
ATOM     23  O   LIG d   1       4.824  80.324 109.569  0.00  0.00    -0.241 OA
ATOM     24  O   LIG d   1       4.875  82.465 109.848  0.00  0.00    -0.241 OA
ENDBRANCH   3  22
TORSDOF 7
ENDMDL
MODEL 2
REMARK VINA RESULT:      -5.4      2.445      4.848
REMARK  7 active torsions:
REMARK  status: ('A' for Active; 'I' for Inactive)
REMARK    1  A    between atoms: C_2  and  C_3 
REMARK    2  A    between atoms: C_3  and  O_6 
REMARK    3  A    between atoms: C_3  and  C_4 
REMARK    4  A    between atoms: C_7  and  O_6 
REMARK    5  A    between atoms: C_9  and  C_10 
REMARK    6  A    between atoms: N_15  and  C_14 
REMARK    7  A    between atoms: N_20  and  C_19 
REMARK       I    between atoms: C_22  and  N_20 
ROOT
ATOM      1  C   LIG d   1       0.700  80.582 111.135  0.00  0.00     0.161 C 
ATOM      2  C   LIG d   1      -0.083  79.565 110.562  0.00  0.00     0.016 C 
ATOM      3  C   LIG d   1      -1.109  78.887 111.259  0.00  0.00     0.038 C 
ATOM      4  C   LIG d   1      -1.526  79.286 112.538  0.00  0.00     0.028 C 
ATOM      5  C   LIG d   1      -0.430  79.974 113.345  0.00  0.00    -0.047 C 
ATOM      6  C   LIG d   1       0.185  81.107 112.492  0.00  0.00     0.091 C 
ENDROOT
BRANCH   1   7
ATOM      7  O   LIG d   1       0.848  81.669 110.200  0.00  0.00    -0.368 OA
BRANCH   7   8
ATOM      8  C   LIG d   1       2.079  81.689 109.436  0.00  0.00     0.119 C 
BRANCH   8   9
ATOM      9  C   LIG d   1       3.092  80.788 110.167  0.00  0.00     0.028 C 
ATOM     10  C   LIG d   1       4.549  81.176 109.862  0.00  0.00     0.006 C 
ENDBRANCH   8   9
BRANCH   8  11
ATOM     11  C   LIG d   1       2.708  83.085 109.430  0.00  0.00     0.028 C 
ATOM     12  C   LIG d   1       1.661  84.211 109.431  0.00  0.00     0.006 C 
ENDBRANCH   8  11
ENDBRANCH   7   8
ENDBRANCH   1   7
BRANCH   6  13
ATOM     13  N   LIG d   1       1.322  81.777 113.175  0.00  0.00    -0.311 N 
ATOM     14  C   LIG d   1       1.473  83.100 113.221  0.00  0.00     0.210 C 
ATOM     15  C   LIG d   1       2.726  83.583 113.959  0.00  0.00     0.109 C 
ATOM     16  O   LIG d   1       0.671  83.920 112.749  0.00  0.00    -0.276 OA
ATOM     17  H   LIG d   1       2.004  81.188 113.611  0.00  0.00     0.149 HD
ENDBRANCH   6  13
BRANCH   5  18
ATOM     18  N   LIG d   1      -1.038  80.460 114.598  0.00  0.00     0.381 N 
ATOM     19  H   LIG d   1      -0.657  81.354 114.836  0.00  0.00    -0.090 HD
ATOM     20  H   LIG d   1      -0.817  79.816 115.337  0.00  0.00    -0.090 HD
ATOM     21  H   LIG d   1      -2.026  80.529 114.493  0.00  0.00    -0.090 HD
ENDBRANCH   5  18
BRANCH   3  22
ATOM     22  C   LIG d   1      -1.702  77.769 110.692  0.00  0.00     0.382 C 
ATOM     23  O   LIG d   1      -2.850  77.855 110.193  0.00  0.00    -0.241 OA
ATOM     24  O   LIG d   1      -1.123  76.667 110.712  0.00  0.00    -0.241 OA
ENDBRANCH   3  22
TORSDOF 7
ENDMDL
MODEL 3
REMARK VINA RESULT:      -4.8      1.109      1.525
REMARK  7 active torsions:
REMARK  status: ('A' for Active; 'I' for Inactive)
REMARK    1  A    between atoms: C_2  and  C_3 
REMARK    2  A    between atoms: C_3  and  O_6 
REMARK    3  A    between atoms: C_3  and  C_4 
REMARK    4  A    between atoms: C_7  and  O_6 
REMARK    5  A    between atoms: C_9  and  C_10 
REMARK    6  A    between atoms: N_15  and  C_14 
REMARK    7  A    between atoms: N_20  and  C_19 
REMARK       I    between atoms: C_22  and  N_20 
ROOT
ATOM      1  C   LIG d   1       1.681  81.321 112.525  0.00  0.00     0.161 C 
ATOM      2  C   LIG d   1       2.875  81.546 111.820  0.00  0.00     0.016 C 
ATOM      3  C   LIG d   1       3.008  81.336 110.428  0.00  0.00     0.038 C 
ATOM      4  C   LIG d   1       1.905  81.031 109.616  0.00  0.00     0.028 C 
ATOM      5  C   LIG d   1       0.790  80.303 110.358  0.00  0.00    -0.047 C 
ATOM      6  C   LIG d   1       0.439  81.095 111.638  0.00  0.00     0.091 C 
ENDROOT
BRANCH   1   7
ATOM      7  O   LIG d   1       1.447  82.404 113.447  0.00  0.00    -0.368 OA
BRANCH   7   8
ATOM      8  C   LIG d   1       2.567  82.781 114.285  0.00  0.00     0.119 C 
BRANCH   8   9
ATOM      9  C   LIG d   1       2.174  82.483 115.745  0.00  0.00     0.028 C 
ATOM     10  C   LIG d   1       2.162  83.748 116.620  0.00  0.00     0.006 C 
ENDBRANCH   8   9
BRANCH   8  11
ATOM     11  C   LIG d   1       2.819  84.290 114.233  0.00  0.00     0.028 C 
ATOM     12  C   LIG d   1       3.895  84.680 113.207  0.00  0.00     0.006 C 
ENDBRANCH   8  11
ENDBRANCH   7   8
ENDBRANCH   1   7
BRANCH   6  13
ATOM     13  N   LIG d   1      -0.586  80.407 112.467  0.00  0.00    -0.311 N 
ATOM     14  C   LIG d   1      -1.760  80.952 112.781  0.00  0.00     0.210 C 
ATOM     15  C   LIG d   1      -2.662  80.081 113.662  0.00  0.00     0.109 C 
ATOM     16  O   LIG d   1      -2.154  82.061 112.388  0.00  0.00    -0.276 OA
ATOM     17  H   LIG d   1      -0.362  79.491 112.802  0.00  0.00     0.149 HD
ENDBRANCH   6  13
BRANCH   5  18
ATOM     18  N   LIG d   1      -0.350  80.169 109.430  0.00  0.00     0.381 N 
ATOM     19  H   LIG d   1      -1.209  80.254 109.935  0.00  0.00    -0.090 HD
ATOM     20  H   LIG d   1      -0.320  79.258 109.008  0.00  0.00    -0.090 HD
ATOM     21  H   LIG d   1      -0.299  80.872 108.725  0.00  0.00    -0.090 HD
ENDBRANCH   5  18
BRANCH   3  22
ATOM     22  C   LIG d   1       4.262  81.394 109.841  0.00  0.00     0.382 C 
ATOM     23  O   LIG d   1       4.833  80.337 109.476  0.00  0.00    -0.241 OA
ATOM     24  O   LIG d   1       4.850  82.484 109.712  0.00  0.00    -0.241 OA
ENDBRANCH   3  22
TORSDOF 7
ENDMDL
MODEL 4
REMARK VINA RESULT:      -4.7      2.449      4.409
REMARK  7 active torsions:
REMARK  status: ('A' for Active; 'I' for Inactive)
REMARK    1  A    between atoms: C_2  and  C_3 
REMARK    2  A    between atoms: C_3  and  O_6 
REMARK    3  A    between atoms: C_3  and  C_4 
REMARK    4  A    between atoms: C_7  and  O_6 
REMARK    5  A    between atoms: C_9  and  C_10 
REMARK    6  A    between atoms: N_15  and  C_14 
REMARK    7  A    between atoms: N_20  and  C_19 
REMARK       I    between atoms: C_22  and  N_20 
ROOT
ATOM      1  C   LIG d   1      -0.317  81.338 111.811  0.00  0.00     0.161 C 
ATOM      2  C   LIG d   1       0.695  81.927 111.034  0.00  0.00     0.016 C 
ATOM      3  C   LIG d   1       1.988  82.212 111.528  0.00  0.00     0.038 C 
ATOM      4  C   LIG d   1       2.408  81.787 112.797  0.00  0.00     0.028 C 
ATOM      5  C   LIG d   1       1.264  81.639 113.795  0.00  0.00    -0.047 C 
ATOM      6  C   LIG d   1       0.157  80.766 113.164  0.00  0.00     0.091 C 
ENDROOT
BRANCH   1   7
ATOM      7  O   LIG d   1      -0.991  80.320 111.045  0.00  0.00    -0.368 OA
BRANCH   7   8
ATOM      8  C   LIG d   1      -0.274  79.073 110.872  0.00  0.00     0.119 C 
BRANCH   8   9
ATOM      9  C   LIG d   1       0.302  79.065 109.443  0.00  0.00     0.028 C 
ATOM     10  C   LIG d   1       1.839  79.001 109.430  0.00  0.00     0.006 C 
ENDBRANCH   8   9
BRANCH   8  11
ATOM     11  C   LIG d   1      -1.223  77.872 110.933  0.00  0.00     0.028 C 
ATOM     12  C   LIG d   1      -2.559  78.202 111.617  0.00  0.00     0.006 C 
ENDBRANCH   8  11
ENDBRANCH   7   8
ENDBRANCH   1   7
BRANCH   6  13
ATOM     13  N   LIG d   1      -1.036  80.640 114.041  0.00  0.00    -0.311 N 
ATOM     14  C   LIG d   1      -1.358  79.520 114.686  0.00  0.00     0.210 C 
ATOM     15  C   LIG d   1      -2.639  79.600 115.522  0.00  0.00     0.109 C 
ATOM     16  O   LIG d   1      -0.686  78.477 114.670  0.00  0.00    -0.276 OA
ATOM     17  H   LIG d   1      -1.620  81.448 114.136  0.00  0.00     0.149 HD
ENDBRANCH   6  13
BRANCH   5  18
ATOM     18  N   LIG d   1       1.824  81.059 115.031  0.00  0.00     0.381 N 
ATOM     19  H   LIG d   1       1.346  80.208 115.252  0.00  0.00    -0.090 HD
ATOM     20  H   LIG d   1       1.681  81.706 115.787  0.00  0.00    -0.090 HD
ATOM     21  H   LIG d   1       2.797  80.882 114.915  0.00  0.00    -0.090 HD
ENDBRANCH   5  18
BRANCH   3  22
ATOM     22  C   LIG d   1       2.865  82.966 110.763  0.00  0.00     0.382 C 
ATOM     23  O   LIG d   1       2.497  83.421 109.653  0.00  0.00    -0.241 OA
ATOM     24  O   LIG d   1       4.033  83.161 111.149  0.00  0.00    -0.241 OA
ENDBRANCH   3  22
TORSDOF 7
ENDMDL
MODEL 5
REMARK VINA RESULT:      -4.7      4.753      6.893
REMARK  7 active torsions:
REMARK  status: ('A' for Active; 'I' for Inactive)
REMARK    1  A    between atoms: C_2  and  C_3 
REMARK    2  A    between atoms: C_3  and  O_6 
REMARK    3  A    between atoms: C_3  and  C_4 
REMARK    4  A    between atoms: C_7  and  O_6 
REMARK    5  A    between atoms: C_9  and  C_10 
REMARK    6  A    between atoms: N_15  and  C_14 
REMARK    7  A    between atoms: N_20  and  C_19 
REMARK       I    between atoms: C_22  and  N_20 
ROOT
ATOM      1  C   LIG d   1      -1.939  78.482 115.002  0.00  0.00     0.161 C 
ATOM      2  C   LIG d   1      -2.287  79.761 114.538  0.00  0.00     0.016 C 
ATOM      3  C   LIG d   1      -2.248  80.132 113.174  0.00  0.00     0.038 C 
ATOM      4  C   LIG d   1      -2.001  79.196 112.158  0.00  0.00     0.028 C 
ATOM      5  C   LIG d   1      -1.152  78.015 112.616  0.00  0.00    -0.047 C 
ATOM      6  C   LIG d   1      -1.774  77.416 113.898  0.00  0.00     0.091 C 
ENDROOT
BRANCH   1   7
ATOM      7  O   LIG d   1      -2.896  78.041 115.985  0.00  0.00    -0.368 OA
BRANCH   7   8
ATOM      8  C   LIG d   1      -2.457  78.080 117.365  0.00  0.00     0.119 C 
BRANCH   8   9
ATOM      9  C   LIG d   1      -3.147  79.283 118.036  0.00  0.00     0.028 C 
ATOM     10  C   LIG d   1      -2.139  80.300 118.597  0.00  0.00     0.006 C 
ENDBRANCH   8   9
BRANCH   8  11
ATOM     11  C   LIG d   1      -0.956  78.367 117.464  0.00  0.00     0.028 C 
ATOM     12  C   LIG d   1      -0.179  77.242 118.167  0.00  0.00     0.006 C 
ENDBRANCH   8  11
ENDBRANCH   7   8
ENDBRANCH   1   7
BRANCH   6  13
ATOM     13  N   LIG d   1      -0.958  76.309 114.460  0.00  0.00    -0.311 N 
ATOM     14  C   LIG d   1      -1.482  75.185 114.946  0.00  0.00     0.210 C 
ATOM     15  C   LIG d   1      -0.464  74.181 115.496  0.00  0.00     0.109 C 
ATOM     16  O   LIG d   1      -2.692  74.911 114.946  0.00  0.00    -0.276 OA
ATOM     17  H   LIG d   1       0.036  76.434 114.471  0.00  0.00     0.149 HD
ENDBRANCH   6  13
BRANCH   5  18
ATOM     18  N   LIG d   1      -1.088  77.053 111.500  0.00  0.00     0.381 N 
ATOM     19  H   LIG d   1      -0.196  77.113 111.051  0.00  0.00    -0.090 HD
ATOM     20  H   LIG d   1      -1.796  77.289 110.827  0.00  0.00    -0.090 HD
ATOM     21  H   LIG d   1      -1.236  76.128 111.839  0.00  0.00    -0.090 HD
ENDBRANCH   5  18
BRANCH   3  22
ATOM     22  C   LIG d   1      -2.419  81.461 112.818  0.00  0.00     0.382 C 
ATOM     23  O   LIG d   1      -1.548  82.042 112.126  0.00  0.00    -0.241 OA
ATOM     24  O   LIG d   1      -3.412  82.099 113.216  0.00  0.00    -0.241 OA
ENDBRANCH   3  22
TORSDOF 7
ENDMDL
MODEL 6
REMARK VINA RESULT:      -4.5      5.182      7.081
REMARK  7 active torsions:
REMARK  status: ('A' for Active; 'I' for Inactive)
REMARK    1  A    between atoms: C_2  and  C_3 
REMARK    2  A    between atoms: C_3  and  O_6 
REMARK    3  A    between atoms: C_3  and  C_4 
REMARK    4  A    between atoms: C_7  and  O_6 
REMARK    5  A    between atoms: C_9  and  C_10 
REMARK    6  A    between atoms: N_15  and  C_14 
REMARK    7  A    between atoms: N_20  and  C_19 
REMARK       I    between atoms: C_22  and  N_20 
ROOT
ATOM      1  C   LIG d   1      -1.960  77.564 114.436  0.00  0.00     0.161 C 
ATOM      2  C   LIG d   1      -1.600  77.186 113.131  0.00  0.00     0.016 C 
ATOM      3  C   LIG d   1      -1.575  78.084 112.040  0.00  0.00     0.038 C 
ATOM      4  C   LIG d   1      -1.763  79.463 112.210  0.00  0.00     0.028 C 
ATOM      5  C   LIG d   1      -2.624  79.813 113.420  0.00  0.00    -0.047 C 
ATOM      6  C   LIG d   1      -2.060  79.087 114.663  0.00  0.00     0.091 C 
ENDROOT
BRANCH   1   7
ATOM      7  O   LIG d   1      -1.048  76.975 115.384  0.00  0.00    -0.368 OA
BRANCH   7   8
ATOM      8  C   LIG d   1      -1.594  75.936 116.232  0.00  0.00     0.119 C 
BRANCH   8   9
ATOM      9  C   LIG d   1      -1.404  76.384 117.694  0.00  0.00     0.028 C 
ATOM     10  C   LIG d   1      -0.721  75.308 118.555  0.00  0.00     0.006 C 
ENDBRANCH   8   9
BRANCH   8  11
ATOM     11  C   LIG d   1      -0.797  74.634 116.101  0.00  0.00     0.028 C 
ATOM     12  C   LIG d   1      -0.367  74.342 114.655  0.00  0.00     0.006 C 
ENDBRANCH   8  11
ENDBRANCH   7   8
ENDBRANCH   1   7
BRANCH   6  13
ATOM     13  N   LIG d   1      -2.893  79.307 115.874  0.00  0.00    -0.311 N 
ATOM     14  C   LIG d   1      -2.416  79.815 117.009  0.00  0.00     0.210 C 
ATOM     15  C   LIG d   1      -3.440  79.940 118.142  0.00  0.00     0.109 C 
ATOM     16  O   LIG d   1      -1.250  80.203 117.176  0.00  0.00    -0.276 OA
ATOM     17  H   LIG d   1      -3.859  79.049 115.816  0.00  0.00     0.149 HD
ENDBRANCH   6  13
BRANCH   5  18
ATOM     18  N   LIG d   1      -2.624  81.281 113.558  0.00  0.00     0.381 N 
ATOM     19  H   LIG d   1      -2.181  81.541 114.416  0.00  0.00    -0.090 HD
ATOM     20  H   LIG d   1      -3.574  81.605 113.582  0.00  0.00    -0.090 HD
ATOM     21  H   LIG d   1      -2.144  81.696 112.789  0.00  0.00    -0.090 HD
ENDBRANCH   5  18
BRANCH   3  22
ATOM     22  C   LIG d   1      -1.399  77.597 110.753  0.00  0.00     0.382 C 
ATOM     23  O   LIG d   1      -1.121  76.387 110.574  0.00  0.00    -0.241 OA
ATOM     24  O   LIG d   1      -1.471  78.362 109.773  0.00  0.00    -0.241 OA
ENDBRANCH   3  22
TORSDOF 7
ENDMDL
MODEL 7
REMARK VINA RESULT:      -4.5      3.152      5.058
REMARK  7 active torsions:
REMARK  status: ('A' for Active; 'I' for Inactive)
REMARK    1  A    between atoms: C_2  and  C_3 
REMARK    2  A    between atoms: C_3  and  O_6 
REMARK    3  A    between atoms: C_3  and  C_4 
REMARK    4  A    between atoms: C_7  and  O_6 
REMARK    5  A    between atoms: C_9  and  C_10 
REMARK    6  A    between atoms: N_15  and  C_14 
REMARK    7  A    between atoms: N_20  and  C_19 
REMARK       I    between atoms: C_22  and  N_20 
ROOT
ATOM      1  C   LIG d   1      -0.228  80.280 113.003  0.00  0.00     0.161 C 
ATOM      2  C   LIG d   1      -0.775  79.556 111.930  0.00  0.00     0.016 C 
ATOM      3  C   LIG d   1      -1.543  78.381 112.095  0.00  0.00     0.038 C 
ATOM      4  C   LIG d   1      -1.946  77.930 113.361  0.00  0.00     0.028 C 
ATOM      5  C   LIG d   1      -0.997  78.342 114.481  0.00  0.00    -0.047 C 
ATOM      6  C   LIG d   1      -0.751  79.866 114.394  0.00  0.00     0.091 C 
ENDROOT
BRANCH   1   7
ATOM      7  O   LIG d   1      -0.428  81.691 112.792  0.00  0.00    -0.368 OA
BRANCH   7   8
ATOM      8  C   LIG d   1       0.754  82.459 112.456  0.00  0.00     0.119 C 
BRANCH   8   9
ATOM      9  C   LIG d   1       0.553  83.021 111.035  0.00  0.00     0.028 C 
ATOM     10  C   LIG d   1      -0.445  84.190 111.002  0.00  0.00     0.006 C 
ENDBRANCH   8   9
BRANCH   8  11
ATOM     11  C   LIG d   1       1.993  81.563 112.366  0.00  0.00     0.028 C 
ATOM     12  C   LIG d   1       2.810  81.803 111.087  0.00  0.00     0.006 C 
ENDBRANCH   8  11
ENDBRANCH   7   8
ENDBRANCH   1   7
BRANCH   6  13
ATOM     13  N   LIG d   1       0.233  80.339 115.403  0.00  0.00    -0.311 N 
ATOM     14  C   LIG d   1      -0.104  80.719 116.634  0.00  0.00     0.210 C 
ATOM     15  C   LIG d   1       1.063  81.191 117.507  0.00  0.00     0.109 C 
ATOM     16  O   LIG d   1      -1.254  80.681 117.096  0.00  0.00    -0.276 OA
ATOM     17  H   LIG d   1       1.194  80.372 115.122  0.00  0.00     0.149 HD
ENDBRANCH   6  13
BRANCH   5  18
ATOM     18  N   LIG d   1      -1.608  77.927 115.758  0.00  0.00     0.381 N 
ATOM     19  H   LIG d   1      -0.933  77.441 116.314  0.00  0.00    -0.090 HD
ATOM     20  H   LIG d   1      -2.369  77.300 115.565  0.00  0.00    -0.090 HD
ATOM     21  H   LIG d   1      -1.942  78.725 116.251  0.00  0.00    -0.090 HD
ENDBRANCH   5  18
BRANCH   3  22
ATOM     22  C   LIG d   1      -1.883  77.620 110.986  0.00  0.00     0.382 C 
ATOM     23  O   LIG d   1      -1.176  76.636 110.660  0.00  0.00    -0.241 OA
ATOM     24  O   LIG d   1      -2.862  77.932 110.282  0.00  0.00    -0.241 OA
ENDBRANCH   3  22
TORSDOF 7
ENDMDL
MODEL 8
REMARK VINA RESULT:      -4.5      5.220      7.890
REMARK  7 active torsions:
REMARK  status: ('A' for Active; 'I' for Inactive)
REMARK    1  A    between atoms: C_2  and  C_3 
REMARK    2  A    between atoms: C_3  and  O_6 
REMARK    3  A    between atoms: C_3  and  C_4 
REMARK    4  A    between atoms: C_7  and  O_6 
REMARK    5  A    between atoms: C_9  and  C_10 
REMARK    6  A    between atoms: N_15  and  C_14 
REMARK    7  A    between atoms: N_20  and  C_19 
REMARK       I    between atoms: C_22  and  N_20 
ROOT
ATOM      1  C   LIG d   1      -2.513  77.732 115.771  0.00  0.00     0.161 C 
ATOM      2  C   LIG d   1      -2.713  77.627 114.384  0.00  0.00     0.016 C 
ATOM      3  C   LIG d   1      -2.001  78.396 113.435  0.00  0.00     0.038 C 
ATOM      4  C   LIG d   1      -0.927  79.220 113.803  0.00  0.00     0.028 C 
ATOM      5  C   LIG d   1      -1.025  79.739 115.234  0.00  0.00    -0.047 C 
ATOM      6  C   LIG d   1      -1.269  78.545 116.185  0.00  0.00     0.091 C 
ENDROOT
BRANCH   1   7
ATOM      7  O   LIG d   1      -2.472  76.418 116.360  0.00  0.00    -0.368 OA
BRANCH   7   8
ATOM      8  C   LIG d   1      -1.165  75.797 116.443  0.00  0.00     0.119 C 
BRANCH   8   9
ATOM      9  C   LIG d   1      -1.170  74.579 115.499  0.00  0.00     0.028 C 
ATOM     10  C   LIG d   1      -0.290  74.796 114.257  0.00  0.00     0.006 C 
ENDBRANCH   8   9
BRANCH   8  11
ATOM     11  C   LIG d   1      -0.907  75.226 117.841  0.00  0.00     0.028 C 
ATOM     12  C   LIG d   1       0.579  75.254 118.231  0.00  0.00     0.006 C 
ENDBRANCH   8  11
ENDBRANCH   7   8
ENDBRANCH   1   7
BRANCH   6  13
ATOM     13  N   LIG d   1      -1.460  78.974 117.595  0.00  0.00    -0.311 N 
ATOM     14  C   LIG d   1      -0.475  79.011 118.491  0.00  0.00     0.210 C 
ATOM     15  C   LIG d   1      -0.893  79.464 119.893  0.00  0.00     0.109 C 
ATOM     16  O   LIG d   1       0.711  78.744 118.248  0.00  0.00    -0.276 OA
ATOM     17  H   LIG d   1      -2.386  79.238 117.870  0.00  0.00     0.149 HD
ENDBRANCH   6  13
BRANCH   5  18
ATOM     18  N   LIG d   1       0.222  80.469 115.530  0.00  0.00     0.381 N 
ATOM     19  H   LIG d   1       0.327  81.233 114.893  0.00  0.00    -0.090 HD
ATOM     20  H   LIG d   1       1.001  79.846 115.405  0.00  0.00    -0.090 HD
ATOM     21  H   LIG d   1       0.205  80.808 116.466  0.00  0.00    -0.090 HD
ENDBRANCH   5  18
BRANCH   3  22
ATOM     22  C   LIG d   1      -2.389  78.375 112.104  0.00  0.00     0.382 C 
ATOM     23  O   LIG d   1      -1.702  78.974 111.241  0.00  0.00    -0.241 OA
ATOM     24  O   LIG d   1      -3.440  77.801 111.761  0.00  0.00    -0.241 OA
ENDBRANCH   3  22
TORSDOF 7
ENDMDL
MODEL 9
REMARK VINA RESULT:      -4.3      3.922      6.758
REMARK  7 active torsions:
REMARK  status: ('A' for Active; 'I' for Inactive)
REMARK    1  A    between atoms: C_2  and  C_3 
REMARK    2  A    between atoms: C_3  and  O_6 
REMARK    3  A    between atoms: C_3  and  C_4 
REMARK    4  A    between atoms: C_7  and  O_6 
REMARK    5  A    between atoms: C_9  and  C_10 
REMARK    6  A    between atoms: N_15  and  C_14 
REMARK    7  A    between atoms: N_20  and  C_19 
REMARK       I    between atoms: C_22  and  N_20 
ROOT
ATOM      1  C   LIG d   1      -1.872  79.761 114.866  0.00  0.00     0.161 C 
ATOM      2  C   LIG d   1      -2.301  78.539 115.410  0.00  0.00     0.016 C 
ATOM      3  C   LIG d   1      -2.296  77.322 114.690  0.00  0.00     0.038 C 
ATOM      4  C   LIG d   1      -1.716  77.217 113.417  0.00  0.00     0.028 C 
ATOM      5  C   LIG d   1      -1.730  78.525 112.634  0.00  0.00    -0.047 C 
ATOM      6  C   LIG d   1      -1.132  79.645 113.516  0.00  0.00     0.091 C 
ENDROOT
BRANCH   1   7
ATOM      7  O   LIG d   1      -1.057  80.464 115.825  0.00  0.00    -0.368 OA
BRANCH   7   8
ATOM      8  C   LIG d   1      -0.875  79.812 117.106  0.00  0.00     0.119 C 
BRANCH   8   9
ATOM      9  C   LIG d   1      -1.167  80.856 118.201  0.00  0.00     0.028 C 
ATOM     10  C   LIG d   1      -2.499  80.591 118.924  0.00  0.00     0.006 C 
ENDBRANCH   8   9
BRANCH   8  11
ATOM     11  C   LIG d   1       0.584  79.398 117.319  0.00  0.00     0.028 C 
ATOM     12  C   LIG d   1       0.751  77.882 117.507  0.00  0.00     0.006 C 
ENDBRANCH   8  11
ENDBRANCH   7   8
ENDBRANCH   1   7
BRANCH   6  13
ATOM     13  N   LIG d   1      -1.186  80.976 112.857  0.00  0.00    -0.311 N 
ATOM     14  C   LIG d   1      -0.195  81.467 112.116  0.00  0.00     0.210 C 
ATOM     15  C   LIG d   1      -0.447  82.866 111.545  0.00  0.00     0.109 C 
ATOM     16  O   LIG d   1       0.856  80.864 111.850  0.00  0.00    -0.276 OA
ATOM     17  H   LIG d   1      -2.016  81.519 112.995  0.00  0.00     0.149 HD
ENDBRANCH   6  13
BRANCH   5  18
ATOM     18  N   LIG d   1      -0.974  78.307 111.386  0.00  0.00     0.381 N 
ATOM     19  H   LIG d   1      -0.007  78.164 111.597  0.00  0.00    -0.090 HD
ATOM     20  H   LIG d   1      -1.054  79.126 110.810  0.00  0.00    -0.090 HD
ATOM     21  H   LIG d   1      -1.336  77.515 110.902  0.00  0.00    -0.090 HD
ENDBRANCH   5  18
BRANCH   3  22
ATOM     22  C   LIG d   1      -2.912  76.203 115.228  0.00  0.00     0.382 C 
ATOM     23  O   LIG d   1      -3.191  75.226 114.491  0.00  0.00    -0.241 OA
ATOM     24  O   LIG d   1      -3.232  76.175 116.431  0.00  0.00    -0.241 OA
ENDBRANCH   3  22
TORSDOF 7
ENDMDL
