MODEL 1
REMARK VINA RESULT:      -5.4      0.000      0.000
REMARK  7 active torsions:
REMARK  status: ('A' for Active; 'I' for Inactive)
REMARK    1  A    between atoms: C_2  and  C_3 
REMARK    2  A    between atoms: C_3  and  O_6 
REMARK    3  A    between atoms: C_3  and  C_4 
REMARK    4  A    between atoms: C_7  and  O_6 
REMARK    5  A    between atoms: C_9  and  C_10 
REMARK    6  A    between atoms: N_15  and  C_14 
REMARK    7  A    between atoms: N_20  and  C_19 
REMARK       I    between atoms: C_22  and  N_20 
ROOT
ATOM      1  C   LIG d   1       0.450  82.575 111.864  0.00  0.00     0.161 C 
ATOM      2  C   LIG d   1      -0.792  82.215 112.413  0.00  0.00     0.016 C 
ATOM      3  C   LIG d   1      -1.375  80.937 112.248  0.00  0.00     0.038 C 
ATOM      4  C   LIG d   1      -0.680  79.878 111.647  0.00  0.00     0.028 C 
ATOM      5  C   LIG d   1       0.367  80.336 110.636  0.00  0.00    -0.047 C 
ATOM      6  C   LIG d   1       1.273  81.398 111.299  0.00  0.00     0.091 C 
ENDROOT
BRANCH   1   7
ATOM      7  O   LIG d   1       1.222  83.304 112.839  0.00  0.00    -0.368 OA
BRANCH   7   8
ATOM      8  C   LIG d   1       0.740  83.248 114.204  0.00  0.00     0.119 C 
BRANCH   8   9
ATOM      9  C   LIG d   1       0.822  84.674 114.782  0.00  0.00     0.028 C 
ATOM     10  C   LIG d   1       1.103  84.680 116.294  0.00  0.00     0.006 C 
ENDBRANCH   8   9
BRANCH   8  11
ATOM     11  C   LIG d   1       1.662  82.400 115.086  0.00  0.00     0.028 C 
ATOM     12  C   LIG d   1       3.126  82.431 114.620  0.00  0.00     0.006 C 
ENDBRANCH   8  11
ENDBRANCH   7   8
ENDBRANCH   1   7
BRANCH   6  13
ATOM     13  N   LIG d   1       2.271  81.961 110.353  0.00  0.00    -0.311 N 
ATOM     14  C   LIG d   1       3.573  82.039 110.623  0.00  0.00     0.210 C 
ATOM     15  C   LIG d   1       4.426  82.672 109.518  0.00  0.00     0.109 C 
ATOM     16  O   LIG d   1       4.108  81.616 111.658  0.00  0.00    -0.276 OA
ATOM     17  H   LIG d   1       1.928  82.300 109.476  0.00  0.00     0.149 HD
ENDBRANCH   6  13
BRANCH   5  18
ATOM     18  N   LIG d   1       1.108  79.141 110.190  0.00  0.00     0.381 N 
ATOM     19  H   LIG d   1       0.465  78.442 109.874  0.00  0.00    -0.090 HD
ATOM     20  H   LIG d   1       1.622  78.768 110.968  0.00  0.00    -0.090 HD
ATOM     21  H   LIG d   1       1.734  79.384 109.454  0.00  0.00    -0.090 HD
ENDBRANCH   5  18
BRANCH   3  22
ATOM     22  C   LIG d   1      -2.683  80.721 112.654  0.00  0.00     0.382 C 
ATOM     23  O   LIG d   1      -3.440  81.697 112.876  0.00  0.00    -0.241 OA
ATOM     24  O   LIG d   1      -3.103  79.564 112.843  0.00  0.00    -0.241 OA
ENDBRANCH   3  22
TORSDOF 7
ENDMDL
MODEL 2
REMARK VINA RESULT:      -5.2      2.371      4.435
REMARK  7 active torsions:
REMARK  status: ('A' for Active; 'I' for Inactive)
REMARK    1  A    between atoms: C_2  and  C_3 
REMARK    2  A    between atoms: C_3  and  O_6 
REMARK    3  A    between atoms: C_3  and  C_4 
REMARK    4  A    between atoms: C_7  and  O_6 
REMARK    5  A    between atoms: C_9  and  C_10 
REMARK    6  A    between atoms: N_15  and  C_14 
REMARK    7  A    between atoms: N_20  and  C_19 
REMARK       I    between atoms: C_22  and  N_20 
ROOT
ATOM      1  C   LIG d   1       1.241  81.995 111.098  0.00  0.00     0.161 C 
ATOM      2  C   LIG d   1       1.430  80.734 110.509  0.00  0.00     0.016 C 
ATOM      3  C   LIG d   1       0.472  79.695 110.570  0.00  0.00     0.038 C 
ATOM      4  C   LIG d   1      -0.811  79.900 111.098  0.00  0.00     0.028 C 
ATOM      5  C   LIG d   1      -0.864  81.001 112.152  0.00  0.00    -0.047 C 
ATOM      6  C   LIG d   1      -0.197  82.274 111.582  0.00  0.00     0.091 C 
ENDROOT
BRANCH   1   7
ATOM      7  O   LIG d   1       1.673  83.028 110.190  0.00  0.00    -0.368 OA
BRANCH   7   8
ATOM      8  C   LIG d   1       2.894  83.721 110.547  0.00  0.00     0.119 C 
BRANCH   8   9
ATOM      9  C   LIG d   1       3.984  83.282 109.550  0.00  0.00     0.028 C 
ATOM     10  C   LIG d   1       4.859  82.144 110.100  0.00  0.00     0.006 C 
ENDBRANCH   8   9
BRANCH   8  11
ATOM     11  C   LIG d   1       3.402  83.280 111.923  0.00  0.00     0.028 C 
ATOM     12  C   LIG d   1       3.692  84.465 112.859  0.00  0.00     0.006 C 
ENDBRANCH   8  11
ENDBRANCH   7   8
ENDBRANCH   1   7
BRANCH   6  13
ATOM     13  N   LIG d   1      -0.131  83.374 112.579  0.00  0.00    -0.311 N 
ATOM     14  C   LIG d   1       0.283  83.202 113.833  0.00  0.00     0.210 C 
ATOM     15  C   LIG d   1       0.254  84.464 114.702  0.00  0.00     0.109 C 
ATOM     16  O   LIG d   1       0.701  82.132 114.300  0.00  0.00    -0.276 OA
ATOM     17  H   LIG d   1      -0.423  84.282 112.276  0.00  0.00     0.149 HD
ENDBRANCH   6  13
BRANCH   5  18
ATOM     18  N   LIG d   1      -2.279  81.202 112.516  0.00  0.00     0.381 N 
ATOM     19  H   LIG d   1      -2.806  81.447 111.701  0.00  0.00    -0.090 HD
ATOM     20  H   LIG d   1      -2.341  81.961 113.172  0.00  0.00    -0.090 HD
ATOM     21  H   LIG d   1      -2.648  80.371 112.922  0.00  0.00    -0.090 HD
ENDBRANCH   5  18
BRANCH   3  22
ATOM     22  C   LIG d   1       0.810  78.423 110.134  0.00  0.00     0.382 C 
ATOM     23  O   LIG d   1       0.119  77.436 110.485  0.00  0.00    -0.241 OA
ATOM     24  O   LIG d   1       1.822  78.244 109.430  0.00  0.00    -0.241 OA
ENDBRANCH   3  22
TORSDOF 7
ENDMDL
MODEL 3
REMARK VINA RESULT:      -4.9      2.152      4.177
REMARK  7 active torsions:
REMARK  status: ('A' for Active; 'I' for Inactive)
REMARK    1  A    between atoms: C_2  and  C_3 
REMARK    2  A    between atoms: C_3  and  O_6 
REMARK    3  A    between atoms: C_3  and  C_4 
REMARK    4  A    between atoms: C_7  and  O_6 
REMARK    5  A    between atoms: C_9  and  C_10 
REMARK    6  A    between atoms: N_15  and  C_14 
REMARK    7  A    between atoms: N_20  and  C_19 
REMARK       I    between atoms: C_22  and  N_20 
ROOT
ATOM      1  C   LIG d   1       1.260  82.818 111.508  0.00  0.00     0.161 C 
ATOM      2  C   LIG d   1       0.035  82.132 111.471  0.00  0.00     0.016 C 
ATOM      3  C   LIG d   1      -0.961  82.262 112.466  0.00  0.00     0.038 C 
ATOM      4  C   LIG d   1      -0.861  83.210 113.495  0.00  0.00     0.028 C 
ATOM      5  C   LIG d   1       0.578  83.563 113.856  0.00  0.00    -0.047 C 
ATOM      6  C   LIG d   1       1.340  83.940 112.565  0.00  0.00     0.091 C 
ENDROOT
BRANCH   1   7
ATOM      7  O   LIG d   1       1.568  83.339 110.200  0.00  0.00    -0.368 OA
BRANCH   7   8
ATOM      8  C   LIG d   1       2.635  82.670 109.483  0.00  0.00     0.119 C 
BRANCH   8   9
ATOM      9  C   LIG d   1       2.937  81.354 110.226  0.00  0.00     0.028 C 
ATOM     10  C   LIG d   1       2.483  80.115 109.435  0.00  0.00     0.006 C 
ENDBRANCH   8   9
BRANCH   8  11
ATOM     11  C   LIG d   1       3.936  83.475 109.540  0.00  0.00     0.028 C 
ATOM     12  C   LIG d   1       5.116  82.663 110.096  0.00  0.00     0.006 C 
ENDBRANCH   8  11
ENDBRANCH   7   8
ENDBRANCH   1   7
BRANCH   6  13
ATOM     13  N   LIG d   1       2.778  84.218 112.817  0.00  0.00    -0.311 N 
ATOM     14  C   LIG d   1       3.603  83.347 113.395  0.00  0.00     0.210 C 
ATOM     15  C   LIG d   1       5.041  83.842 113.579  0.00  0.00     0.109 C 
ATOM     16  O   LIG d   1       3.288  82.200 113.745  0.00  0.00    -0.276 OA
ATOM     17  H   LIG d   1       3.126  85.114 112.536  0.00  0.00     0.149 HD
ENDBRANCH   6  13
BRANCH   5  18
ATOM     18  N   LIG d   1       0.534  84.659 114.842  0.00  0.00     0.381 N 
ATOM     19  H   LIG d   1      -0.150  85.335 114.568  0.00  0.00    -0.090 HD
ATOM     20  H   LIG d   1       1.432  85.110 114.866  0.00  0.00    -0.090 HD
ATOM     21  H   LIG d   1       0.312  84.298 115.744  0.00  0.00    -0.090 HD
ENDBRANCH   5  18
BRANCH   3  22
ATOM     22  C   LIG d   1      -2.055  81.410 112.459  0.00  0.00     0.382 C 
ATOM     23  O   LIG d   1      -3.162  81.807 112.898  0.00  0.00    -0.241 OA
ATOM     24  O   LIG d   1      -1.939  80.236 112.061  0.00  0.00    -0.241 OA
ENDBRANCH   3  22
TORSDOF 7
ENDMDL
MODEL 4
REMARK VINA RESULT:      -4.6      2.349      4.280
REMARK  7 active torsions:
REMARK  status: ('A' for Active; 'I' for Inactive)
REMARK    1  A    between atoms: C_2  and  C_3 
REMARK    2  A    between atoms: C_3  and  O_6 
REMARK    3  A    between atoms: C_3  and  C_4 
REMARK    4  A    between atoms: C_7  and  O_6 
REMARK    5  A    between atoms: C_9  and  C_10 
REMARK    6  A    between atoms: N_15  and  C_14 
REMARK    7  A    between atoms: N_20  and  C_19 
REMARK       I    between atoms: C_22  and  N_20 
ROOT
ATOM      1  C   LIG d   1       1.811  81.850 111.995  0.00  0.00     0.161 C 
ATOM      2  C   LIG d   1       1.465  80.760 111.180  0.00  0.00     0.016 C 
ATOM      3  C   LIG d   1       0.139  80.293 111.027  0.00  0.00     0.038 C 
ATOM      4  C   LIG d   1      -0.957  80.983 111.565  0.00  0.00     0.028 C 
ATOM      5  C   LIG d   1      -0.610  81.795 112.809  0.00  0.00    -0.047 C 
ATOM      6  C   LIG d   1       0.616  82.684 112.502  0.00  0.00     0.091 C 
ENDROOT
BRANCH   1   7
ATOM      7  O   LIG d   1       2.756  82.694 111.307  0.00  0.00    -0.368 OA
BRANCH   7   8
ATOM      8  C   LIG d   1       4.156  82.420 111.557  0.00  0.00     0.119 C 
BRANCH   8   9
ATOM      9  C   LIG d   1       4.756  83.660 112.247  0.00  0.00     0.028 C 
ATOM     10  C   LIG d   1       5.212  83.369 113.686  0.00  0.00     0.006 C 
ENDBRANCH   8   9
BRANCH   8  11
ATOM     11  C   LIG d   1       4.936  82.267 110.248  0.00  0.00     0.028 C 
ATOM     12  C   LIG d   1       4.615  80.956 109.512  0.00  0.00     0.006 C 
ENDBRANCH   8  11
ENDBRANCH   7   8
ENDBRANCH   1   7
BRANCH   6  13
ATOM     13  N   LIG d   1       1.074  83.449 113.692  0.00  0.00    -0.311 N 
ATOM     14  C   LIG d   1       1.251  82.900 114.892  0.00  0.00     0.210 C 
ATOM     15  C   LIG d   1       1.708  83.871 115.986  0.00  0.00     0.109 C 
ATOM     16  O   LIG d   1       1.104  81.696 115.148  0.00  0.00    -0.276 OA
ATOM     17  H   LIG d   1       1.247  84.427 113.566  0.00  0.00     0.149 HD
ENDBRANCH   6  13
BRANCH   5  18
ATOM     18  N   LIG d   1      -1.808  82.570 113.183  0.00  0.00     0.381 N 
ATOM     19  H   LIG d   1      -2.551  82.377 112.542  0.00  0.00    -0.090 HD
ATOM     20  H   LIG d   1      -1.591  83.550 113.129  0.00  0.00    -0.090 HD
ATOM     21  H   LIG d   1      -2.090  82.336 114.110  0.00  0.00    -0.090 HD
ENDBRANCH   5  18
BRANCH   3  22
ATOM     22  C   LIG d   1      -0.096  79.099 110.362  0.00  0.00     0.382 C 
ATOM     23  O   LIG d   1      -1.273  78.703 110.183  0.00  0.00    -0.241 OA
ATOM     24  O   LIG d   1       0.854  78.392 109.977  0.00  0.00    -0.241 OA
ENDBRANCH   3  22
TORSDOF 7
ENDMDL
MODEL 5
REMARK VINA RESULT:      -4.3      2.566      5.714
REMARK  7 active torsions:
REMARK  status: ('A' for Active; 'I' for Inactive)
REMARK    1  A    between atoms: C_2  and  C_3 
REMARK    2  A    between atoms: C_3  and  O_6 
REMARK    3  A    between atoms: C_3  and  C_4 
REMARK    4  A    between atoms: C_7  and  O_6 
REMARK    5  A    between atoms: C_9  and  C_10 
REMARK    6  A    between atoms: N_15  and  C_14 
REMARK    7  A    between atoms: N_20  and  C_19 
REMARK       I    between atoms: C_22  and  N_20 
ROOT
ATOM      1  C   LIG d   1       1.585  82.444 112.842  0.00  0.00     0.161 C 
ATOM      2  C   LIG d   1       2.118  82.097 111.589  0.00  0.00     0.016 C 
ATOM      3  C   LIG d   1       3.505  82.022 111.327  0.00  0.00     0.038 C 
ATOM      4  C   LIG d   1       4.460  82.143 112.348  0.00  0.00     0.028 C 
ATOM      5  C   LIG d   1       3.986  82.991 113.523  0.00  0.00    -0.047 C 
ATOM      6  C   LIG d   1       2.610  82.471 113.995  0.00  0.00     0.091 C 
ENDROOT
BRANCH   1   7
ATOM      7  O   LIG d   1       0.488  81.567 113.166  0.00  0.00    -0.368 OA
BRANCH   7   8
ATOM      8  C   LIG d   1      -0.460  81.311 112.101  0.00  0.00     0.119 C 
BRANCH   8   9
ATOM      9  C   LIG d   1      -1.842  81.789 112.587  0.00  0.00     0.028 C 
ATOM     10  C   LIG d   1      -2.883  80.657 112.601  0.00  0.00     0.006 C 
ENDBRANCH   8   9
BRANCH   8  11
ATOM     11  C   LIG d   1      -0.617  79.810 111.844  0.00  0.00     0.028 C 
ATOM     12  C   LIG d   1      -0.079  79.381 110.469  0.00  0.00     0.006 C 
ENDBRANCH   8  11
ENDBRANCH   7   8
ENDBRANCH   1   7
BRANCH   6  13
ATOM     13  N   LIG d   1       2.035  83.298 115.088  0.00  0.00    -0.311 N 
ATOM     14  C   LIG d   1       2.205  83.025 116.381  0.00  0.00     0.210 C 
ATOM     15  C   LIG d   1       1.511  83.994 117.343  0.00  0.00     0.109 C 
ATOM     16  O   LIG d   1       2.891  82.091 116.822  0.00  0.00    -0.276 OA
ATOM     17  H   LIG d   1       1.490  84.093 114.820  0.00  0.00     0.149 HD
ENDBRANCH   6  13
BRANCH   5  18
ATOM     18  N   LIG d   1       5.022  82.920 114.570  0.00  0.00     0.381 N 
ATOM     19  H   LIG d   1       5.255  81.964 114.752  0.00  0.00    -0.090 HD
ATOM     20  H   LIG d   1       4.658  83.321 115.416  0.00  0.00    -0.090 HD
ATOM     21  H   LIG d   1       5.835  83.418 114.281  0.00  0.00    -0.090 HD
ENDBRANCH   5  18
BRANCH   3  22
ATOM     22  C   LIG d   1       3.951  81.864 110.024  0.00  0.00     0.382 C 
ATOM     23  O   LIG d   1       3.780  80.771 109.431  0.00  0.00    -0.241 OA
ATOM     24  O   LIG d   1       4.560  82.785 109.448  0.00  0.00    -0.241 OA
ENDBRANCH   3  22
TORSDOF 7
ENDMDL
MODEL 6
REMARK VINA RESULT:      -4.3      2.601      4.868
REMARK  7 active torsions:
REMARK  status: ('A' for Active; 'I' for Inactive)
REMARK    1  A    between atoms: C_2  and  C_3 
REMARK    2  A    between atoms: C_3  and  O_6 
REMARK    3  A    between atoms: C_3  and  C_4 
REMARK    4  A    between atoms: C_7  and  O_6 
REMARK    5  A    between atoms: C_9  and  C_10 
REMARK    6  A    between atoms: N_15  and  C_14 
REMARK    7  A    between atoms: N_20  and  C_19 
REMARK       I    between atoms: C_22  and  N_20 
ROOT
ATOM      1  C   LIG d   1       1.890  82.358 113.110  0.00  0.00     0.161 C 
ATOM      2  C   LIG d   1       1.387  82.201 114.413  0.00  0.00     0.016 C 
ATOM      3  C   LIG d   1       2.192  82.279 115.572  0.00  0.00     0.038 C 
ATOM      4  C   LIG d   1       3.538  82.670 115.516  0.00  0.00     0.028 C 
ATOM      5  C   LIG d   1       4.208  82.345 114.185  0.00  0.00    -0.047 C 
ATOM      6  C   LIG d   1       3.334  82.896 113.035  0.00  0.00     0.091 C 
ENDROOT
BRANCH   1   7
ATOM      7  O   LIG d   1       1.003  83.194 112.341  0.00  0.00    -0.368 OA
BRANCH   7   8
ATOM      8  C   LIG d   1       0.282  82.542 111.267  0.00  0.00     0.119 C 
BRANCH   8   9
ATOM      9  C   LIG d   1       0.703  81.059 111.262  0.00  0.00     0.028 C 
ATOM     10  C   LIG d   1       1.283  80.618 109.907  0.00  0.00     0.006 C 
ENDBRANCH   8   9
BRANCH   8  11
ATOM     11  C   LIG d   1       0.705  83.088 109.900  0.00  0.00     0.028 C 
ATOM     12  C   LIG d   1       0.664  84.623 109.833  0.00  0.00     0.006 C 
ENDBRANCH   8  11
ENDBRANCH   7   8
ENDBRANCH   1   7
BRANCH   6  13
ATOM     13  N   LIG d   1       3.874  82.547 111.695  0.00  0.00    -0.311 N 
ATOM     14  C   LIG d   1       4.130  83.450 110.750  0.00  0.00     0.210 C 
ATOM     15  C   LIG d   1       4.664  82.876 109.435  0.00  0.00     0.109 C 
ATOM     16  O   LIG d   1       3.995  84.675 110.888  0.00  0.00    -0.276 OA
ATOM     17  H   LIG d   1       4.043  81.578 111.510  0.00  0.00     0.149 HD
ENDBRANCH   6  13
BRANCH   5  18
ATOM     18  N   LIG d   1       5.562  82.929 114.213  0.00  0.00     0.381 N 
ATOM     19  H   LIG d   1       5.637  83.572 114.976  0.00  0.00    -0.090 HD
ATOM     20  H   LIG d   1       5.716  83.434 113.358  0.00  0.00    -0.090 HD
ATOM     21  H   LIG d   1       6.243  82.208 114.309  0.00  0.00    -0.090 HD
ENDBRANCH   5  18
BRANCH   3  22
ATOM     22  C   LIG d   1       1.660  81.923 116.803  0.00  0.00     0.382 C 
ATOM     23  O   LIG d   1       1.064  80.827 116.935  0.00  0.00    -0.241 OA
ATOM     24  O   LIG d   1       1.731  82.703 117.771  0.00  0.00    -0.241 OA
ENDBRANCH   3  22
TORSDOF 7
ENDMDL
MODEL 7
REMARK VINA RESULT:      -4.2      2.034      5.197
REMARK  7 active torsions:
REMARK  status: ('A' for Active; 'I' for Inactive)
REMARK    1  A    between atoms: C_2  and  C_3 
REMARK    2  A    between atoms: C_3  and  O_6 
REMARK    3  A    between atoms: C_3  and  C_4 
REMARK    4  A    between atoms: C_7  and  O_6 
REMARK    5  A    between atoms: C_9  and  C_10 
REMARK    6  A    between atoms: N_15  and  C_14 
REMARK    7  A    between atoms: N_20  and  C_19 
REMARK       I    between atoms: C_22  and  N_20 
ROOT
ATOM      1  C   LIG d   1       1.606  81.700 111.957  0.00  0.00     0.161 C 
ATOM      2  C   LIG d   1       2.845  82.125 111.449  0.00  0.00     0.016 C 
ATOM      3  C   LIG d   1       2.982  83.160 110.496  0.00  0.00     0.038 C 
ATOM      4  C   LIG d   1       1.892  83.949 110.097  0.00  0.00     0.028 C 
ATOM      5  C   LIG d   1       0.552  83.228 110.201  0.00  0.00    -0.047 C 
ATOM      6  C   LIG d   1       0.417  82.623 111.617  0.00  0.00     0.091 C 
ENDROOT
BRANCH   1   7
ATOM      7  O   LIG d   1       1.701  81.511 113.383  0.00  0.00    -0.368 OA
BRANCH   7   8
ATOM      8  C   LIG d   1       2.144  82.658 114.149  0.00  0.00     0.119 C 
BRANCH   8   9
ATOM      9  C   LIG d   1       3.534  82.322 114.724  0.00  0.00     0.028 C 
ATOM     10  C   LIG d   1       4.565  83.430 114.453  0.00  0.00     0.006 C 
ENDBRANCH   8   9
BRANCH   8  11
ATOM     11  C   LIG d   1       1.248  82.894 115.368  0.00  0.00     0.028 C 
ATOM     12  C   LIG d   1       1.789  82.230 116.644  0.00  0.00     0.006 C 
ENDBRANCH   8  11
ENDBRANCH   7   8
ENDBRANCH   1   7
BRANCH   6  13
ATOM     13  N   LIG d   1      -0.829  81.829 111.777  0.00  0.00    -0.311 N 
ATOM     14  C   LIG d   1      -1.793  82.144 112.641  0.00  0.00     0.210 C 
ATOM     15  C   LIG d   1      -2.984  81.180 112.660  0.00  0.00     0.109 C 
ATOM     16  O   LIG d   1      -1.790  83.147 113.370  0.00  0.00    -0.276 OA
ATOM     17  H   LIG d   1      -0.928  81.015 111.202  0.00  0.00     0.149 HD
ENDBRANCH   6  13
BRANCH   5  18
ATOM     18  N   LIG d   1      -0.506  84.207 109.887  0.00  0.00     0.381 N 
ATOM     19  H   LIG d   1      -0.278  85.094 110.291  0.00  0.00    -0.090 HD
ATOM     20  H   LIG d   1      -1.371  83.891 110.288  0.00  0.00    -0.090 HD
ATOM     21  H   LIG d   1      -0.603  84.299 108.900  0.00  0.00    -0.090 HD
ENDBRANCH   5  18
BRANCH   3  22
ATOM     22  C   LIG d   1       4.213  83.389 109.902  0.00  0.00     0.382 C 
ATOM     23  O   LIG d   1       4.969  82.424 109.633  0.00  0.00    -0.241 OA
ATOM     24  O   LIG d   1       4.597  84.551 109.671  0.00  0.00    -0.241 OA
ENDBRANCH   3  22
TORSDOF 7
ENDMDL
MODEL 8
REMARK VINA RESULT:      -4.0      2.774      4.184
REMARK  7 active torsions:
REMARK  status: ('A' for Active; 'I' for Inactive)
REMARK    1  A    between atoms: C_2  and  C_3 
REMARK    2  A    between atoms: C_3  and  O_6 
REMARK    3  A    between atoms: C_3  and  C_4 
REMARK    4  A    between atoms: C_7  and  O_6 
REMARK    5  A    between atoms: C_9  and  C_10 
REMARK    6  A    between atoms: N_15  and  C_14 
REMARK    7  A    between atoms: N_20  and  C_19 
REMARK       I    between atoms: C_22  and  N_20 
ROOT
ATOM      1  C   LIG d   1       1.804  82.800 114.836  0.00  0.00     0.161 C 
ATOM      2  C   LIG d   1       0.586  82.635 114.156  0.00  0.00     0.016 C 
ATOM      3  C   LIG d   1       0.427  82.885 112.774  0.00  0.00     0.038 C 
ATOM      4  C   LIG d   1       1.518  83.174 111.942  0.00  0.00     0.028 C 
ATOM      5  C   LIG d   1       2.676  83.845 112.673  0.00  0.00    -0.047 C 
ATOM      6  C   LIG d   1       3.031  83.008 113.924  0.00  0.00     0.091 C 
ENDROOT
BRANCH   1   7
ATOM      7  O   LIG d   1       2.023  81.686 115.724  0.00  0.00    -0.368 OA
BRANCH   7   8
ATOM      8  C   LIG d   1       1.702  81.911 117.119  0.00  0.00     0.119 C 
BRANCH   8   9
ATOM      9  C   LIG d   1       3.027  82.153 117.867  0.00  0.00     0.028 C 
ATOM     10  C   LIG d   1       4.003  80.972 117.730  0.00  0.00     0.006 C 
ENDBRANCH   8   9
BRANCH   8  11
ATOM     11  C   LIG d   1       1.098  80.657 117.760  0.00  0.00     0.028 C 
ATOM     12  C   LIG d   1       0.413  80.947 119.105  0.00  0.00     0.006 C 
ENDBRANCH   8  11
ENDBRANCH   7   8
ENDBRANCH   1   7
BRANCH   6  13
ATOM     13  N   LIG d   1       4.099  83.639 114.743  0.00  0.00    -0.311 N 
ATOM     14  C   LIG d   1       5.271  83.057 114.993  0.00  0.00     0.210 C 
ATOM     15  C   LIG d   1       6.222  83.871 115.876  0.00  0.00     0.109 C 
ATOM     16  O   LIG d   1       5.626  81.958 114.540  0.00  0.00    -0.276 OA
ATOM     17  H   LIG d   1       3.907  84.545 115.123  0.00  0.00     0.149 HD
ENDBRANCH   6  13
BRANCH   5  18
ATOM     18  N   LIG d   1       3.796  83.964 111.720  0.00  0.00     0.381 N 
ATOM     19  H   LIG d   1       4.310  84.802 111.904  0.00  0.00    -0.090 HD
ATOM     20  H   LIG d   1       3.425  84.019 110.788  0.00  0.00    -0.090 HD
ATOM     21  H   LIG d   1       4.397  83.173 111.800  0.00  0.00    -0.090 HD
ENDBRANCH   5  18
BRANCH   3  22
ATOM     22  C   LIG d   1      -0.844  82.885 112.217  0.00  0.00     0.382 C 
ATOM     23  O   LIG d   1      -0.984  82.990 110.975  0.00  0.00    -0.241 OA
ATOM     24  O   LIG d   1      -1.852  82.827 112.946  0.00  0.00    -0.241 OA
ENDBRANCH   3  22
TORSDOF 7
ENDMDL
MODEL 9
REMARK VINA RESULT:      -3.2      2.476      4.952
REMARK  7 active torsions:
REMARK  status: ('A' for Active; 'I' for Inactive)
REMARK    1  A    between atoms: C_2  and  C_3 
REMARK    2  A    between atoms: C_3  and  O_6 
REMARK    3  A    between atoms: C_3  and  C_4 
REMARK    4  A    between atoms: C_7  and  O_6 
REMARK    5  A    between atoms: C_9  and  C_10 
REMARK    6  A    between atoms: N_15  and  C_14 
REMARK    7  A    between atoms: N_20  and  C_19 
REMARK       I    between atoms: C_22  and  N_20 
ROOT
ATOM      1  C   LIG d   1       1.868  82.235 113.415  0.00  0.00     0.161 C 
ATOM      2  C   LIG d   1       1.430  81.807 114.679  0.00  0.00     0.016 C 
ATOM      3  C   LIG d   1       1.975  82.284 115.894  0.00  0.00     0.038 C 
ATOM      4  C   LIG d   1       2.897  83.340 115.929  0.00  0.00     0.028 C 
ATOM      5  C   LIG d   1       3.737  83.454 114.661  0.00  0.00    -0.047 C 
ATOM      6  C   LIG d   1       2.795  83.468 113.435  0.00  0.00     0.091 C 
ENDROOT
BRANCH   1   7
ATOM      7  O   LIG d   1       0.732  82.476 112.561  0.00  0.00    -0.368 OA
BRANCH   7   8
ATOM      8  C   LIG d   1       0.240  81.334 111.818  0.00  0.00     0.119 C 
BRANCH   8   9
ATOM      9  C   LIG d   1       0.380  81.661 110.319  0.00  0.00     0.028 C 
ATOM     10  C   LIG d   1       1.631  81.022 109.693  0.00  0.00     0.006 C 
ENDBRANCH   8   9
BRANCH   8  11
ATOM     11  C   LIG d   1      -1.260  81.123 112.049  0.00  0.00     0.028 C 
ATOM     12  C   LIG d   1      -1.905  82.264 112.853  0.00  0.00     0.006 C 
ENDBRANCH   8  11
ENDBRANCH   7   8
ENDBRANCH   1   7
BRANCH   6  13
ATOM     13  N   LIG d   1       3.539  83.492 112.149  0.00  0.00    -0.311 N 
ATOM     14  C   LIG d   1       4.340  82.507 111.747  0.00  0.00     0.210 C 
ATOM     15  C   LIG d   1       5.027  82.742 110.398  0.00  0.00     0.109 C 
ATOM     16  O   LIG d   1       4.521  81.447 112.364  0.00  0.00    -0.276 OA
ATOM     17  H   LIG d   1       3.425  84.302 111.571  0.00  0.00     0.149 HD
ENDBRANCH   6  13
BRANCH   5  18
ATOM     18  N   LIG d   1       4.555  84.675 114.776  0.00  0.00     0.381 N 
ATOM     19  H   LIG d   1       3.960  85.479 114.812  0.00  0.00    -0.090 HD
ATOM     20  H   LIG d   1       5.140  84.752 113.963  0.00  0.00    -0.090 HD
ATOM     21  H   LIG d   1       5.118  84.632 115.597  0.00  0.00    -0.090 HD
ENDBRANCH   5  18
BRANCH   3  22
ATOM     22  C   LIG d   1       1.626  81.674 117.089  0.00  0.00     0.382 C 
ATOM     23  O   LIG d   1       1.022  80.574 117.080  0.00  0.00    -0.241 OA
ATOM     24  O   LIG d   1       1.869  82.231 118.177  0.00  0.00    -0.241 OA
ENDBRANCH   3  22
TORSDOF 7
ENDMDL
