MODEL 1
REMARK VINA RESULT:      -5.2      0.000      0.000
REMARK  7 active torsions:
REMARK  status: ('A' for Active; 'I' for Inactive)
REMARK    1  A    between atoms: C_2  and  C_3 
REMARK    2  A    between atoms: C_3  and  O_6 
REMARK    3  A    between atoms: C_3  and  C_4 
REMARK    4  A    between atoms: C_7  and  O_6 
REMARK    5  A    between atoms: C_9  and  C_10 
REMARK    6  A    between atoms: N_15  and  C_14 
REMARK    7  A    between atoms: N_20  and  C_19 
REMARK       I    between atoms: C_22  and  N_20 
ROOT
ATOM      1  C   LIG d   1      -0.270  80.177 111.692  0.00  0.00     0.161 C 
ATOM      2  C   LIG d   1      -1.361  79.324 111.457  0.00  0.00     0.016 C 
ATOM      3  C   LIG d   1      -2.008  78.589 112.477  0.00  0.00     0.038 C 
ATOM      4  C   LIG d   1      -1.701  78.774 113.833  0.00  0.00     0.028 C 
ATOM      5  C   LIG d   1      -0.270  79.246 114.071  0.00  0.00    -0.047 C 
ATOM      6  C   LIG d   1       0.007  80.477 113.180  0.00  0.00     0.091 C 
ENDROOT
BRANCH   1   7
ATOM      7  O   LIG d   1      -0.442  81.404 110.956  0.00  0.00    -0.368 OA
BRANCH   7   8
ATOM      8  C   LIG d   1       0.413  81.580 109.800  0.00  0.00     0.119 C 
BRANCH   8   9
ATOM      9  C   LIG d   1       1.536  80.528 109.890  0.00  0.00     0.028 C 
ATOM     10  C   LIG d   1       2.932  81.166 109.988  0.00  0.00     0.006 C 
ENDBRANCH   8   9
BRANCH   8  11
ATOM     11  C   LIG d   1       1.125  82.936 109.834  0.00  0.00     0.028 C 
ATOM     12  C   LIG d   1       0.198  84.085 110.262  0.00  0.00     0.006 C 
ENDBRANCH   8  11
ENDBRANCH   7   8
ENDBRANCH   1   7
BRANCH   6  13
ATOM     13  N   LIG d   1       1.412  80.951 113.289  0.00  0.00    -0.311 N 
ATOM     14  C   LIG d   1       1.742  82.227 113.481  0.00  0.00     0.210 C 
ATOM     15  C   LIG d   1       3.248  82.502 113.544  0.00  0.00     0.109 C 
ATOM     16  O   LIG d   1       0.931  83.152 113.638  0.00  0.00    -0.276 OA
ATOM     17  H   LIG d   1       2.133  80.262 113.204  0.00  0.00     0.149 HD
ENDBRANCH   6  13
BRANCH   5  18
ATOM     18  N   LIG d   1      -0.129  79.531 115.512  0.00  0.00     0.381 N 
ATOM     19  H   LIG d   1      -0.237  80.512 115.675  0.00  0.00    -0.090 HD
ATOM     20  H   LIG d   1       0.793  79.262 115.807  0.00  0.00    -0.090 HD
ATOM     21  H   LIG d   1      -0.813  79.023 116.028  0.00  0.00    -0.090 HD
ENDBRANCH   5  18
BRANCH   3  22
ATOM     22  C   LIG d   1      -2.947  77.626 112.140  0.00  0.00     0.382 C 
ATOM     23  O   LIG d   1      -3.424  76.878 113.027  0.00  0.00    -0.241 OA
ATOM     24  O   LIG d   1      -3.289  77.465 110.953  0.00  0.00    -0.241 OA
ENDBRANCH   3  22
TORSDOF 7
ENDMDL
MODEL 2
REMARK VINA RESULT:      -4.9      3.004      4.597
REMARK  7 active torsions:
REMARK  status: ('A' for Active; 'I' for Inactive)
REMARK    1  A    between atoms: C_2  and  C_3 
REMARK    2  A    between atoms: C_3  and  O_6 
REMARK    3  A    between atoms: C_3  and  C_4 
REMARK    4  A    between atoms: C_7  and  O_6 
REMARK    5  A    between atoms: C_9  and  C_10 
REMARK    6  A    between atoms: N_15  and  C_14 
REMARK    7  A    between atoms: N_20  and  C_19 
REMARK       I    between atoms: C_22  and  N_20 
ROOT
ATOM      1  C   LIG d   1      -0.570  77.227 114.084  0.00  0.00     0.161 C 
ATOM      2  C   LIG d   1      -1.039  76.125 114.819  0.00  0.00     0.016 C 
ATOM      3  C   LIG d   1      -1.319  76.176 116.204  0.00  0.00     0.038 C 
ATOM      4  C   LIG d   1      -1.294  77.382 116.921  0.00  0.00     0.028 C 
ATOM      5  C   LIG d   1      -0.341  78.417 116.333  0.00  0.00    -0.047 C 
ATOM      6  C   LIG d   1      -0.643  78.578 114.826  0.00  0.00     0.091 C 
ENDROOT
BRANCH   1   7
ATOM      7  O   LIG d   1      -1.270  77.308 112.826  0.00  0.00    -0.368 OA
BRANCH   7   8
ATOM      8  C   LIG d   1      -0.442  77.407 111.641  0.00  0.00     0.119 C 
BRANCH   8   9
ATOM      9  C   LIG d   1      -1.163  78.342 110.650  0.00  0.00     0.028 C 
ATOM     10  C   LIG d   1      -0.185  79.242 109.875  0.00  0.00     0.006 C 
ENDBRANCH   8   9
BRANCH   8  11
ATOM     11  C   LIG d   1      -0.333  76.059 110.923  0.00  0.00     0.028 C 
ATOM     12  C   LIG d   1       0.879  75.235 111.383  0.00  0.00     0.006 C 
ENDBRANCH   8  11
ENDBRANCH   7   8
ENDBRANCH   1   7
BRANCH   6  13
ATOM     13  N   LIG d   1       0.300  79.510 114.155  0.00  0.00    -0.311 N 
ATOM     14  C   LIG d   1      -0.093  80.521 113.382  0.00  0.00     0.210 C 
ATOM     15  C   LIG d   1       1.042  81.349 112.772  0.00  0.00     0.109 C 
ATOM     16  O   LIG d   1      -1.276  80.831 113.171  0.00  0.00    -0.276 OA
ATOM     17  H   LIG d   1       1.278  79.351 114.298  0.00  0.00     0.149 HD
ENDBRANCH   6  13
BRANCH   5  18
ATOM     18  N   LIG d   1      -0.516  79.668 117.095  0.00  0.00     0.381 N 
ATOM     19  H   LIG d   1      -1.485  79.806 117.300  0.00  0.00    -0.090 HD
ATOM     20  H   LIG d   1      -0.199  80.438 116.533  0.00  0.00    -0.090 HD
ATOM     21  H   LIG d   1       0.008  79.628 117.942  0.00  0.00    -0.090 HD
ENDBRANCH   5  18
BRANCH   3  22
ATOM     22  C   LIG d   1      -1.591  75.005 116.894  0.00  0.00     0.382 C 
ATOM     23  O   LIG d   1      -2.563  74.288 116.553  0.00  0.00    -0.241 OA
ATOM     24  O   LIG d   1      -0.904  74.678 117.880  0.00  0.00    -0.241 OA
ENDBRANCH   3  22
TORSDOF 7
ENDMDL
MODEL 3
REMARK VINA RESULT:      -4.8      2.403      4.099
REMARK  7 active torsions:
REMARK  status: ('A' for Active; 'I' for Inactive)
REMARK    1  A    between atoms: C_2  and  C_3 
REMARK    2  A    between atoms: C_3  and  O_6 
REMARK    3  A    between atoms: C_3  and  C_4 
REMARK    4  A    between atoms: C_7  and  O_6 
REMARK    5  A    between atoms: C_9  and  C_10 
REMARK    6  A    between atoms: N_15  and  C_14 
REMARK    7  A    between atoms: N_20  and  C_19 
REMARK       I    between atoms: C_22  and  N_20 
ROOT
ATOM      1  C   LIG d   1       0.424  82.802 112.157  0.00  0.00     0.161 C 
ATOM      2  C   LIG d   1      -0.783  82.306 112.677  0.00  0.00     0.016 C 
ATOM      3  C   LIG d   1      -1.303  81.031 112.358  0.00  0.00     0.038 C 
ATOM      4  C   LIG d   1      -0.570  80.098 111.609  0.00  0.00     0.028 C 
ATOM      5  C   LIG d   1       0.424  80.740 110.648  0.00  0.00    -0.047 C 
ATOM      6  C   LIG d   1       1.291  81.755 111.427  0.00  0.00     0.091 C 
ENDROOT
BRANCH   1   7
ATOM      7  O   LIG d   1       1.182  83.439 113.204  0.00  0.00    -0.368 OA
BRANCH   7   8
ATOM      8  C   LIG d   1       2.175  82.615 113.864  0.00  0.00     0.119 C 
BRANCH   8   9
ATOM      9  C   LIG d   1       1.883  82.660 115.376  0.00  0.00     0.028 C 
ATOM     10  C   LIG d   1       3.127  82.343 116.224  0.00  0.00     0.006 C 
ENDBRANCH   8   9
BRANCH   8  11
ATOM     11  C   LIG d   1       3.581  83.201 113.704  0.00  0.00     0.028 C 
ATOM     12  C   LIG d   1       3.567  84.658 113.214  0.00  0.00     0.006 C 
ENDBRANCH   8  11
ENDBRANCH   7   8
ENDBRANCH   1   7
BRANCH   6  13
ATOM     13  N   LIG d   1       2.235  82.490 110.545  0.00  0.00    -0.311 N 
ATOM     14  C   LIG d   1       3.504  82.128 110.366  0.00  0.00     0.210 C 
ATOM     15  C   LIG d   1       4.309  83.035 109.430  0.00  0.00     0.109 C 
ATOM     16  O   LIG d   1       4.031  81.124 110.869  0.00  0.00    -0.276 OA
ATOM     17  H   LIG d   1       1.882  83.299 110.073  0.00  0.00     0.149 HD
ENDBRANCH   6  13
BRANCH   5  18
ATOM     18  N   LIG d   1       1.215  79.656 110.035  0.00  0.00     0.381 N 
ATOM     19  H   LIG d   1       0.619  79.076 109.478  0.00  0.00    -0.090 HD
ATOM     20  H   LIG d   1       1.613  79.091 110.764  0.00  0.00    -0.090 HD
ATOM     21  H   LIG d   1       1.939  80.040 109.469  0.00  0.00    -0.090 HD
ENDBRANCH   5  18
BRANCH   3  22
ATOM     22  C   LIG d   1      -2.588  80.693 112.756  0.00  0.00     0.382 C 
ATOM     23  O   LIG d   1      -2.953  79.493 112.740  0.00  0.00    -0.241 OA
ATOM     24  O   LIG d   1      -3.399  81.577 113.088  0.00  0.00    -0.241 OA
ENDBRANCH   3  22
TORSDOF 7
ENDMDL
MODEL 4
REMARK VINA RESULT:      -4.6      2.691      6.042
REMARK  7 active torsions:
REMARK  status: ('A' for Active; 'I' for Inactive)
REMARK    1  A    between atoms: C_2  and  C_3 
REMARK    2  A    between atoms: C_3  and  O_6 
REMARK    3  A    between atoms: C_3  and  C_4 
REMARK    4  A    between atoms: C_7  and  O_6 
REMARK    5  A    between atoms: C_9  and  C_10 
REMARK    6  A    between atoms: N_15  and  C_14 
REMARK    7  A    between atoms: N_20  and  C_19 
REMARK       I    between atoms: C_22  and  N_20 
ROOT
ATOM      1  C   LIG d   1       1.680  81.681 112.932  0.00  0.00     0.161 C 
ATOM      2  C   LIG d   1       2.886  82.112 112.354  0.00  0.00     0.016 C 
ATOM      3  C   LIG d   1       3.106  82.160 110.958  0.00  0.00     0.038 C 
ATOM      4  C   LIG d   1       2.076  81.921 110.037  0.00  0.00     0.028 C 
ATOM      5  C   LIG d   1       0.988  80.995 110.570  0.00  0.00    -0.047 C 
ATOM      6  C   LIG d   1       0.508  81.522 111.941  0.00  0.00     0.091 C 
ENDROOT
BRANCH   1   7
ATOM      7  O   LIG d   1       1.310  82.565 114.008  0.00  0.00    -0.368 OA
BRANCH   7   8
ATOM      8  C   LIG d   1       2.404  83.155 114.754  0.00  0.00     0.119 C 
BRANCH   8   9
ATOM      9  C   LIG d   1       2.650  82.271 115.992  0.00  0.00     0.028 C 
ATOM     10  C   LIG d   1       4.146  82.022 116.248  0.00  0.00     0.006 C 
ENDBRANCH   8   9
BRANCH   8  11
ATOM     11  C   LIG d   1       2.024  84.531 115.307  0.00  0.00     0.028 C 
ATOM     12  C   LIG d   1       1.412  84.459 116.715  0.00  0.00     0.006 C 
ENDBRANCH   8  11
ENDBRANCH   7   8
ENDBRANCH   1   7
BRANCH   6  13
ATOM     13  N   LIG d   1      -0.497  80.628 112.573  0.00  0.00    -0.311 N 
ATOM     14  C   LIG d   1      -1.765  80.979 112.779  0.00  0.00     0.210 C 
ATOM     15  C   LIG d   1      -2.628  79.914 113.462  0.00  0.00     0.109 C 
ATOM     16  O   LIG d   1      -2.264  82.060 112.432  0.00  0.00    -0.276 OA
ATOM     17  H   LIG d   1      -0.185  79.720 112.857  0.00  0.00     0.149 HD
ENDBRANCH   6  13
BRANCH   5  18
ATOM     18  N   LIG d   1      -0.087  80.943 109.562  0.00  0.00     0.381 N 
ATOM     19  H   LIG d   1      -0.019  81.734 108.953  0.00  0.00    -0.090 HD
ATOM     20  H   LIG d   1      -0.975  80.980 110.031  0.00  0.00    -0.090 HD
ATOM     21  H   LIG d   1      -0.018  80.101 109.033  0.00  0.00    -0.090 HD
ENDBRANCH   5  18
BRANCH   3  22
ATOM     22  C   LIG d   1       4.380  82.411 110.472  0.00  0.00     0.382 C 
ATOM     23  O   LIG d   1       5.384  82.007 111.107  0.00  0.00    -0.241 OA
ATOM     24  O   LIG d   1       4.539  83.074 109.430  0.00  0.00    -0.241 OA
ENDBRANCH   3  22
TORSDOF 7
ENDMDL
MODEL 5
REMARK VINA RESULT:      -4.6      3.387      4.380
REMARK  7 active torsions:
REMARK  status: ('A' for Active; 'I' for Inactive)
REMARK    1  A    between atoms: C_2  and  C_3 
REMARK    2  A    between atoms: C_3  and  O_6 
REMARK    3  A    between atoms: C_3  and  C_4 
REMARK    4  A    between atoms: C_7  and  O_6 
REMARK    5  A    between atoms: C_9  and  C_10 
REMARK    6  A    between atoms: N_15  and  C_14 
REMARK    7  A    between atoms: N_20  and  C_19 
REMARK       I    between atoms: C_22  and  N_20 
ROOT
ATOM      1  C   LIG d   1      -0.112  77.903 114.975  0.00  0.00     0.161 C 
ATOM      2  C   LIG d   1      -1.079  76.885 114.956  0.00  0.00     0.016 C 
ATOM      3  C   LIG d   1      -1.662  76.343 116.124  0.00  0.00     0.038 C 
ATOM      4  C   LIG d   1      -1.426  76.892 117.394  0.00  0.00     0.028 C 
ATOM      5  C   LIG d   1      -0.075  77.588 117.511  0.00  0.00    -0.047 C 
ATOM      6  C   LIG d   1       0.076  78.591 116.344  0.00  0.00     0.091 C 
ENDROOT
BRANCH   1   7
ATOM      7  O   LIG d   1      -0.412  78.882 113.960  0.00  0.00    -0.368 OA
BRANCH   7   8
ATOM      8  C   LIG d   1      -1.731  78.800 113.366  0.00  0.00     0.119 C 
BRANCH   8   9
ATOM      9  C   LIG d   1      -1.565  78.978 111.844  0.00  0.00     0.028 C 
ATOM     10  C   LIG d   1      -0.901  77.760 111.180  0.00  0.00     0.006 C 
ENDBRANCH   8   9
BRANCH   8  11
ATOM     11  C   LIG d   1      -2.619  79.964 113.816  0.00  0.00     0.028 C 
ATOM     12  C   LIG d   1      -2.641  81.121 112.805  0.00  0.00     0.006 C 
ENDBRANCH   8  11
ENDBRANCH   7   8
ENDBRANCH   1   7
BRANCH   6  13
ATOM     13  N   LIG d   1       1.405  79.255 116.335  0.00  0.00    -0.311 N 
ATOM     14  C   LIG d   1       1.651  80.411 116.948  0.00  0.00     0.210 C 
ATOM     15  C   LIG d   1       3.084  80.931 116.798  0.00  0.00     0.109 C 
ATOM     16  O   LIG d   1       0.827  81.040 117.630  0.00  0.00    -0.276 OA
ATOM     17  H   LIG d   1       2.140  78.798 115.832  0.00  0.00     0.149 HD
ENDBRANCH   6  13
BRANCH   5  18
ATOM     18  N   LIG d   1      -0.019  78.232 118.837  0.00  0.00     0.381 N 
ATOM     19  H   LIG d   1      -0.896  78.122 119.304  0.00  0.00    -0.090 HD
ATOM     20  H   LIG d   1       0.153  79.214 118.715  0.00  0.00    -0.090 HD
ATOM     21  H   LIG d   1       0.709  77.825 119.383  0.00  0.00    -0.090 HD
ENDBRANCH   5  18
BRANCH   3  22
ATOM     22  C   LIG d   1      -2.461  75.213 116.033  0.00  0.00     0.382 C 
ATOM     23  O   LIG d   1      -2.314  74.273 116.851  0.00  0.00    -0.241 OA
ATOM     24  O   LIG d   1      -3.298  75.103 115.117  0.00  0.00    -0.241 OA
ENDBRANCH   3  22
TORSDOF 7
ENDMDL
MODEL 6
REMARK VINA RESULT:      -4.4      2.133      2.502
REMARK  7 active torsions:
REMARK  status: ('A' for Active; 'I' for Inactive)
REMARK    1  A    between atoms: C_2  and  C_3 
REMARK    2  A    between atoms: C_3  and  O_6 
REMARK    3  A    between atoms: C_3  and  C_4 
REMARK    4  A    between atoms: C_7  and  O_6 
REMARK    5  A    between atoms: C_9  and  C_10 
REMARK    6  A    between atoms: N_15  and  C_14 
REMARK    7  A    between atoms: N_20  and  C_19 
REMARK       I    between atoms: C_22  and  N_20 
ROOT
ATOM      1  C   LIG d   1      -0.036  79.893 113.216  0.00  0.00     0.161 C 
ATOM      2  C   LIG d   1      -0.790  79.179 112.270  0.00  0.00     0.016 C 
ATOM      3  C   LIG d   1      -1.347  77.904 112.520  0.00  0.00     0.038 C 
ATOM      4  C   LIG d   1      -1.315  77.318 113.794  0.00  0.00     0.028 C 
ATOM      5  C   LIG d   1      -0.132  77.775 114.641  0.00  0.00    -0.047 C 
ATOM      6  C   LIG d   1      -0.085  79.320 114.648  0.00  0.00     0.091 C 
ENDROOT
BRANCH   1   7
ATOM      7  O   LIG d   1      -0.438  81.278 113.217  0.00  0.00    -0.368 OA
BRANCH   7   8
ATOM      8  C   LIG d   1       0.133  82.108 112.175  0.00  0.00     0.119 C 
BRANCH   8   9
ATOM      9  C   LIG d   1       1.634  82.268 112.482  0.00  0.00     0.028 C 
ATOM     10  C   LIG d   1       2.525  81.761 111.336  0.00  0.00     0.006 C 
ENDBRANCH   8   9
BRANCH   8  11
ATOM     11  C   LIG d   1      -0.443  83.526 112.215  0.00  0.00     0.028 C 
ATOM     12  C   LIG d   1      -0.516  84.179 110.826  0.00  0.00     0.006 C 
ENDBRANCH   8  11
ENDBRANCH   7   8
ENDBRANCH   1   7
BRANCH   6  13
ATOM     13  N   LIG d   1       1.092  79.849 115.384  0.00  0.00    -0.311 N 
ATOM     14  C   LIG d   1       1.071  80.147 116.682  0.00  0.00     0.210 C 
ATOM     15  C   LIG d   1       2.387  80.698 117.240  0.00  0.00     0.109 C 
ATOM     16  O   LIG d   1       0.097  79.978 117.431  0.00  0.00    -0.276 OA
ATOM     17  H   LIG d   1       1.934  79.987 114.860  0.00  0.00     0.149 HD
ENDBRANCH   6  13
BRANCH   5  18
ATOM     18  N   LIG d   1      -0.298  77.196 115.988  0.00  0.00     0.381 N 
ATOM     19  H   LIG d   1       0.186  77.757 116.660  0.00  0.00    -0.090 HD
ATOM     20  H   LIG d   1       0.105  76.275 115.998  0.00  0.00    -0.090 HD
ATOM     21  H   LIG d   1      -1.265  77.146 116.221  0.00  0.00    -0.090 HD
ENDBRANCH   5  18
BRANCH   3  22
ATOM     22  C   LIG d   1      -1.910  77.183 111.478  0.00  0.00     0.382 C 
ATOM     23  O   LIG d   1      -3.127  77.320 111.206  0.00  0.00    -0.241 OA
ATOM     24  O   LIG d   1      -1.226  76.364 110.834  0.00  0.00    -0.241 OA
ENDBRANCH   3  22
TORSDOF 7
ENDMDL
MODEL 7
REMARK VINA RESULT:      -4.3      4.681      7.045
REMARK  7 active torsions:
REMARK  status: ('A' for Active; 'I' for Inactive)
REMARK    1  A    between atoms: C_2  and  C_3 
REMARK    2  A    between atoms: C_3  and  O_6 
REMARK    3  A    between atoms: C_3  and  C_4 
REMARK    4  A    between atoms: C_7  and  O_6 
REMARK    5  A    between atoms: C_9  and  C_10 
REMARK    6  A    between atoms: N_15  and  C_14 
REMARK    7  A    between atoms: N_20  and  C_19 
REMARK       I    between atoms: C_22  and  N_20 
ROOT
ATOM      1  C   LIG d   1      -1.152  78.057 117.840  0.00  0.00     0.161 C 
ATOM      2  C   LIG d   1      -1.803  77.009 117.169  0.00  0.00     0.016 C 
ATOM      3  C   LIG d   1      -1.679  76.778 115.779  0.00  0.00     0.038 C 
ATOM      4  C   LIG d   1      -0.768  77.494 114.988  0.00  0.00     0.028 C 
ATOM      5  C   LIG d   1      -0.466  78.889 115.523  0.00  0.00    -0.047 C 
ATOM      6  C   LIG d   1      -0.068  78.780 117.013  0.00  0.00     0.091 C 
ENDROOT
BRANCH   1   7
ATOM      7  O   LIG d   1      -0.597  77.574 119.079  0.00  0.00    -0.368 OA
BRANCH   7   8
ATOM      8  C   LIG d   1       0.103  76.307 119.013  0.00  0.00     0.119 C 
BRANCH   8   9
ATOM      9  C   LIG d   1      -0.698  75.291 119.850  0.00  0.00     0.028 C 
ATOM     10  C   LIG d   1      -1.321  74.182 118.986  0.00  0.00     0.006 C 
ENDBRANCH   8   9
BRANCH   8  11
ATOM     11  C   LIG d   1       1.476  76.394 119.686  0.00  0.00     0.028 C 
ATOM     12  C   LIG d   1       2.565  76.945 118.751  0.00  0.00     0.006 C 
ENDBRANCH   8  11
ENDBRANCH   7   8
ENDBRANCH   1   7
BRANCH   6  13
ATOM     13  N   LIG d   1       0.162  80.109 117.637  0.00  0.00    -0.311 N 
ATOM     14  C   LIG d   1       1.363  80.680 117.724  0.00  0.00     0.210 C 
ATOM     15  C   LIG d   1       1.381  82.043 118.423  0.00  0.00     0.109 C 
ATOM     16  O   LIG d   1       2.409  80.201 117.260  0.00  0.00    -0.276 OA
ATOM     17  H   LIG d   1      -0.637  80.581 118.012  0.00  0.00     0.149 HD
ENDBRANCH   6  13
BRANCH   5  18
ATOM     18  N   LIG d   1       0.597  79.469 114.682  0.00  0.00     0.381 N 
ATOM     19  H   LIG d   1       1.493  79.175 115.017  0.00  0.00    -0.090 HD
ATOM     20  H   LIG d   1       0.551  80.471 114.743  0.00  0.00    -0.090 HD
ATOM     21  H   LIG d   1       0.478  79.182 113.735  0.00  0.00    -0.090 HD
ENDBRANCH   5  18
BRANCH   3  22
ATOM     22  C   LIG d   1      -2.500  75.848 115.161  0.00  0.00     0.382 C 
ATOM     23  O   LIG d   1      -2.340  74.624 115.384  0.00  0.00    -0.241 OA
ATOM     24  O   LIG d   1      -3.370  76.215 114.349  0.00  0.00    -0.241 OA
ENDBRANCH   3  22
TORSDOF 7
ENDMDL
MODEL 8
REMARK VINA RESULT:      -4.2      3.650      6.100
REMARK  7 active torsions:
REMARK  status: ('A' for Active; 'I' for Inactive)
REMARK    1  A    between atoms: C_2  and  C_3 
REMARK    2  A    between atoms: C_3  and  O_6 
REMARK    3  A    between atoms: C_3  and  C_4 
REMARK    4  A    between atoms: C_7  and  O_6 
REMARK    5  A    between atoms: C_9  and  C_10 
REMARK    6  A    between atoms: N_15  and  C_14 
REMARK    7  A    between atoms: N_20  and  C_19 
REMARK       I    between atoms: C_22  and  N_20 
ROOT
ATOM      1  C   LIG d   1      -1.498  78.569 115.861  0.00  0.00     0.161 C 
ATOM      2  C   LIG d   1      -1.728  77.324 116.471  0.00  0.00     0.016 C 
ATOM      3  C   LIG d   1      -1.478  76.087 115.833  0.00  0.00     0.038 C 
ATOM      4  C   LIG d   1      -0.834  76.011 114.590  0.00  0.00     0.028 C 
ATOM      5  C   LIG d   1      -1.045  77.247 113.722  0.00  0.00    -0.047 C 
ATOM      6  C   LIG d   1      -0.692  78.506 114.547  0.00  0.00     0.091 C 
ENDROOT
BRANCH   1   7
ATOM      7  O   LIG d   1      -0.861  79.461 116.797  0.00  0.00    -0.368 OA
BRANCH   7   8
ATOM      8  C   LIG d   1      -0.118  78.833 117.871  0.00  0.00     0.119 C 
BRANCH   8   9
ATOM      9  C   LIG d   1      -0.440  79.602 119.168  0.00  0.00     0.028 C 
ATOM     10  C   LIG d   1      -1.901  79.418 119.611  0.00  0.00     0.006 C 
ENDBRANCH   8   9
BRANCH   8  11
ATOM     11  C   LIG d   1       1.392  78.992 117.671  0.00  0.00     0.028 C 
ATOM     12  C   LIG d   1       1.757  80.242 116.854  0.00  0.00     0.006 C 
ENDBRANCH   8  11
ENDBRANCH   7   8
ENDBRANCH   1   7
BRANCH   6  13
ATOM     13  N   LIG d   1      -0.950  79.764 113.800  0.00  0.00    -0.311 N 
ATOM     14  C   LIG d   1      -2.120  80.054 113.235  0.00  0.00     0.210 C 
ATOM     15  C   LIG d   1      -2.167  81.395 112.496  0.00  0.00     0.109 C 
ATOM     16  O   LIG d   1      -3.134  79.343 113.302  0.00  0.00    -0.276 OA
ATOM     17  H   LIG d   1      -0.191  80.413 113.723  0.00  0.00     0.149 HD
ENDBRANCH   6  13
BRANCH   5  18
ATOM     18  N   LIG d   1      -0.208  77.093 112.516  0.00  0.00     0.381 N 
ATOM     19  H   LIG d   1       0.236  77.963 112.299  0.00  0.00    -0.090 HD
ATOM     20  H   LIG d   1      -0.797  76.838 111.743  0.00  0.00    -0.090 HD
ATOM     21  H   LIG d   1       0.480  76.388 112.667  0.00  0.00    -0.090 HD
ENDBRANCH   5  18
BRANCH   3  22
ATOM     22  C   LIG d   1      -1.911  74.910 116.424  0.00  0.00     0.382 C 
ATOM     23  O   LIG d   1      -1.126  74.242 117.140  0.00  0.00    -0.241 OA
ATOM     24  O   LIG d   1      -3.062  74.483 116.215  0.00  0.00    -0.241 OA
ENDBRANCH   3  22
TORSDOF 7
ENDMDL
MODEL 9
REMARK VINA RESULT:      -4.2      2.178      4.638
REMARK  7 active torsions:
REMARK  status: ('A' for Active; 'I' for Inactive)
REMARK    1  A    between atoms: C_2  and  C_3 
REMARK    2  A    between atoms: C_3  and  O_6 
REMARK    3  A    between atoms: C_3  and  C_4 
REMARK    4  A    between atoms: C_7  and  O_6 
REMARK    5  A    between atoms: C_9  and  C_10 
REMARK    6  A    between atoms: N_15  and  C_14 
REMARK    7  A    between atoms: N_20  and  C_19 
REMARK       I    between atoms: C_22  and  N_20 
ROOT
ATOM      1  C   LIG d   1      -0.563  79.742 114.142  0.00  0.00     0.161 C 
ATOM      2  C   LIG d   1      -1.452  78.715 113.787  0.00  0.00     0.016 C 
ATOM      3  C   LIG d   1      -1.839  78.447 112.454  0.00  0.00     0.038 C 
ATOM      4  C   LIG d   1      -1.241  79.096 111.363  0.00  0.00     0.028 C 
ATOM      5  C   LIG d   1      -0.712  80.485 111.702  0.00  0.00    -0.047 C 
ATOM      6  C   LIG d   1       0.185  80.389 112.957  0.00  0.00     0.091 C 
ENDROOT
BRANCH   1   7
ATOM      7  O   LIG d   1       0.376  79.258 115.123  0.00  0.00    -0.368 OA
BRANCH   7   8
ATOM      8  C   LIG d   1      -0.139  79.084 116.466  0.00  0.00     0.119 C 
BRANCH   8   9
ATOM      9  C   LIG d   1       0.813  79.824 117.426  0.00  0.00     0.028 C 
ATOM     10  C   LIG d   1       1.915  80.595 116.681  0.00  0.00     0.006 C 
ENDBRANCH   8   9
BRANCH   8  11
ATOM     11  C   LIG d   1      -0.087  77.615 116.896  0.00  0.00     0.028 C 
ATOM     12  C   LIG d   1      -1.481  77.010 117.119  0.00  0.00     0.006 C 
ENDBRANCH   8  11
ENDBRANCH   7   8
ENDBRANCH   1   7
BRANCH   6  13
ATOM     13  N   LIG d   1       0.677  81.717 113.406  0.00  0.00    -0.311 N 
ATOM     14  C   LIG d   1       1.825  82.252 112.993  0.00  0.00     0.210 C 
ATOM     15  C   LIG d   1       2.154  83.622 113.595  0.00  0.00     0.109 C 
ATOM     16  O   LIG d   1       2.587  81.736 112.162  0.00  0.00    -0.276 OA
ATOM     17  H   LIG d   1       0.106  82.219 114.057  0.00  0.00     0.149 HD
ENDBRANCH   6  13
BRANCH   5  18
ATOM     18  N   LIG d   1       0.006  80.990 110.516  0.00  0.00     0.381 N 
ATOM     19  H   LIG d   1       0.796  80.407 110.325  0.00  0.00    -0.090 HD
ATOM     20  H   LIG d   1       0.339  81.918 110.708  0.00  0.00    -0.090 HD
ATOM     21  H   LIG d   1      -0.604  81.004 109.728  0.00  0.00    -0.090 HD
ENDBRANCH   5  18
BRANCH   3  22
ATOM     22  C   LIG d   1      -2.864  77.547 112.203  0.00  0.00     0.382 C 
ATOM     23  O   LIG d   1      -3.250  77.349 111.026  0.00  0.00    -0.241 OA
ATOM     24  O   LIG d   1      -3.438  76.965 113.143  0.00  0.00    -0.241 OA
ENDBRANCH   3  22
TORSDOF 7
ENDMDL
