MODEL 1
REMARK VINA RESULT:      -5.5      0.000      0.000
REMARK  7 active torsions:
REMARK  status: ('A' for Active; 'I' for Inactive)
REMARK    1  A    between atoms: C_2  and  C_3 
REMARK    2  A    between atoms: C_3  and  O_6 
REMARK    3  A    between atoms: C_3  and  C_4 
REMARK    4  A    between atoms: C_7  and  O_6 
REMARK    5  A    between atoms: C_9  and  C_10 
REMARK    6  A    between atoms: N_15  and  C_14 
REMARK    7  A    between atoms: N_20  and  C_19 
REMARK       I    between atoms: C_22  and  N_20 
ROOT
ATOM      1  C   LIG d   1       0.391  80.219 110.919  0.00  0.00     0.161 C 
ATOM      2  C   LIG d   1      -0.353  79.271 110.197  0.00  0.00     0.016 C 
ATOM      3  C   LIG d   1      -1.355  78.461 110.778  0.00  0.00     0.038 C 
ATOM      4  C   LIG d   1      -1.789  78.652 112.098  0.00  0.00     0.028 C 
ATOM      5  C   LIG d   1      -0.721  79.252 113.006  0.00  0.00    -0.047 C 
ATOM      6  C   LIG d   1      -0.145  80.519 112.334  0.00  0.00     0.091 C 
ENDROOT
BRANCH   1   7
ATOM      7  O   LIG d   1       0.502  81.437 110.156  0.00  0.00    -0.368 OA
BRANCH   7   8
ATOM      8  C   LIG d   1       1.776  81.667 109.505  0.00  0.00     0.119 C 
BRANCH   8   9
ATOM      9  C   LIG d   1       2.791  80.678 110.110  0.00  0.00     0.028 C 
ATOM     10  C   LIG d   1       3.933  81.391 110.853  0.00  0.00     0.006 C 
ENDBRANCH   8   9
BRANCH   8  11
ATOM     11  C   LIG d   1       2.324  83.060 109.829  0.00  0.00     0.028 C 
ATOM     12  C   LIG d   1       1.256  84.160 109.723  0.00  0.00     0.006 C 
ENDBRANCH   8  11
ENDBRANCH   7   8
ENDBRANCH   1   7
BRANCH   6  13
ATOM     13  N   LIG d   1       0.966  81.121 113.117  0.00  0.00    -0.311 N 
ATOM     14  C   LIG d   1       1.084  82.430 113.334  0.00  0.00     0.210 C 
ATOM     15  C   LIG d   1       2.314  82.842 114.149  0.00  0.00     0.109 C 
ATOM     16  O   LIG d   1       0.271  83.286 112.955  0.00  0.00    -0.276 OA
ATOM     17  H   LIG d   1       1.654  80.496 113.488  0.00  0.00     0.149 HD
ENDBRANCH   6  13
BRANCH   5  18
ATOM     18  N   LIG d   1      -1.349  79.526 114.313  0.00  0.00     0.381 N 
ATOM     19  H   LIG d   1      -1.664  80.475 114.345  0.00  0.00    -0.090 HD
ATOM     20  H   LIG d   1      -0.664  79.396 115.036  0.00  0.00    -0.090 HD
ATOM     21  H   LIG d   1      -2.117  78.908 114.458  0.00  0.00    -0.090 HD
ENDBRANCH   5  18
BRANCH   3  22
ATOM     22  C   LIG d   1      -1.907  77.420 110.048  0.00  0.00     0.382 C 
ATOM     23  O   LIG d   1      -3.079  77.513 109.609  0.00  0.00    -0.241 OA
ATOM     24  O   LIG d   1      -1.264  76.370 109.860  0.00  0.00    -0.241 OA
ENDBRANCH   3  22
TORSDOF 7
ENDMDL
MODEL 2
REMARK VINA RESULT:      -5.3      3.551      4.671
REMARK  7 active torsions:
REMARK  status: ('A' for Active; 'I' for Inactive)
REMARK    1  A    between atoms: C_2  and  C_3 
REMARK    2  A    between atoms: C_3  and  O_6 
REMARK    3  A    between atoms: C_3  and  C_4 
REMARK    4  A    between atoms: C_7  and  O_6 
REMARK    5  A    between atoms: C_9  and  C_10 
REMARK    6  A    between atoms: N_15  and  C_14 
REMARK    7  A    between atoms: N_20  and  C_19 
REMARK       I    between atoms: C_22  and  N_20 
ROOT
ATOM      1  C   LIG d   1       2.200  81.439 111.971  0.00  0.00     0.161 C 
ATOM      2  C   LIG d   1       1.049  82.063 111.461  0.00  0.00     0.016 C 
ATOM      3  C   LIG d   1       0.378  83.117 112.123  0.00  0.00     0.038 C 
ATOM      4  C   LIG d   1       0.903  83.723 113.274  0.00  0.00     0.028 C 
ATOM      5  C   LIG d   1       1.789  82.795 114.097  0.00  0.00    -0.047 C 
ATOM      6  C   LIG d   1       2.850  82.161 113.170  0.00  0.00     0.091 C 
ENDROOT
BRANCH   1   7
ATOM      7  O   LIG d   1       3.163  81.253 110.915  0.00  0.00    -0.368 OA
BRANCH   7   8
ATOM      8  C   LIG d   1       4.136  82.314 110.746  0.00  0.00     0.119 C 
BRANCH   8   9
ATOM      9  C   LIG d   1       3.639  83.218 109.601  0.00  0.00     0.028 C 
ATOM     10  C   LIG d   1       3.459  84.680 110.045  0.00  0.00     0.006 C 
ENDBRANCH   8   9
BRANCH   8  11
ATOM     11  C   LIG d   1       5.484  81.763 110.271  0.00  0.00     0.028 C 
ATOM     12  C   LIG d   1       5.428  80.266 109.927  0.00  0.00     0.006 C 
ENDBRANCH   8  11
ENDBRANCH   7   8
ENDBRANCH   1   7
BRANCH   6  13
ATOM     13  N   LIG d   1       3.706  81.175 113.879  0.00  0.00    -0.311 N 
ATOM     14  C   LIG d   1       4.821  81.504 114.528  0.00  0.00     0.210 C 
ATOM     15  C   LIG d   1       5.565  80.331 115.174  0.00  0.00     0.109 C 
ATOM     16  O   LIG d   1       5.248  82.662 114.658  0.00  0.00    -0.276 OA
ATOM     17  H   LIG d   1       3.417  80.216 113.851  0.00  0.00     0.149 HD
ENDBRANCH   6  13
BRANCH   5  18
ATOM     18  N   LIG d   1       2.378  83.594 115.189  0.00  0.00     0.381 N 
ATOM     19  H   LIG d   1       1.655  84.084 115.677  0.00  0.00    -0.090 HD
ATOM     20  H   LIG d   1       3.007  84.270 114.794  0.00  0.00    -0.090 HD
ATOM     21  H   LIG d   1       2.870  82.999 115.819  0.00  0.00    -0.090 HD
ENDBRANCH   5  18
BRANCH   3  22
ATOM     22  C   LIG d   1      -0.854  83.548 111.654  0.00  0.00     0.382 C 
ATOM     23  O   LIG d   1      -1.847  82.783 111.707  0.00  0.00    -0.241 OA
ATOM     24  O   LIG d   1      -0.975  84.675 111.139  0.00  0.00    -0.241 OA
ENDBRANCH   3  22
TORSDOF 7
ENDMDL
MODEL 3
REMARK VINA RESULT:      -4.9      2.596      5.066
REMARK  7 active torsions:
REMARK  status: ('A' for Active; 'I' for Inactive)
REMARK    1  A    between atoms: C_2  and  C_3 
REMARK    2  A    between atoms: C_3  and  O_6 
REMARK    3  A    between atoms: C_3  and  C_4 
REMARK    4  A    between atoms: C_7  and  O_6 
REMARK    5  A    between atoms: C_9  and  C_10 
REMARK    6  A    between atoms: N_15  and  C_14 
REMARK    7  A    between atoms: N_20  and  C_19 
REMARK       I    between atoms: C_22  and  N_20 
ROOT
ATOM      1  C   LIG d   1       1.484  81.293 112.694  0.00  0.00     0.161 C 
ATOM      2  C   LIG d   1       2.696  81.685 112.104  0.00  0.00     0.016 C 
ATOM      3  C   LIG d   1       2.990  81.503 110.733  0.00  0.00     0.038 C 
ATOM      4  C   LIG d   1       2.024  81.050 109.822  0.00  0.00     0.028 C 
ATOM      5  C   LIG d   1       0.955  80.170 110.461  0.00  0.00    -0.047 C 
ATOM      6  C   LIG d   1       0.376  80.899 111.695  0.00  0.00     0.091 C 
ENDROOT
BRANCH   1   7
ATOM      7  O   LIG d   1       1.014  82.328 113.580  0.00  0.00    -0.368 OA
BRANCH   7   8
ATOM      8  C   LIG d   1       1.831  83.522 113.656  0.00  0.00     0.119 C 
BRANCH   8   9
ATOM      9  C   LIG d   1       1.848  83.980 115.127  0.00  0.00     0.028 C 
ATOM     10  C   LIG d   1       2.816  83.152 115.989  0.00  0.00     0.006 C 
ENDBRANCH   8   9
BRANCH   8  11
ATOM     11  C   LIG d   1       1.200  84.680 112.878  0.00  0.00     0.028 C 
ATOM     12  C   LIG d   1      -0.230  84.371 112.405  0.00  0.00     0.006 C 
ENDBRANCH   8  11
ENDBRANCH   7   8
ENDBRANCH   1   7
BRANCH   6  13
ATOM     13  N   LIG d   1      -0.618  80.071 112.428  0.00  0.00    -0.311 N 
ATOM     14  C   LIG d   1      -1.848  80.489 112.719  0.00  0.00     0.210 C 
ATOM     15  C   LIG d   1      -2.705  79.486 113.498  0.00  0.00     0.109 C 
ATOM     16  O   LIG d   1      -2.323  81.583 112.377  0.00  0.00    -0.276 OA
ATOM     17  H   LIG d   1      -0.326  79.157 112.716  0.00  0.00     0.149 HD
ENDBRANCH   6  13
BRANCH   5  18
ATOM     18  N   LIG d   1      -0.061  79.883 109.430  0.00  0.00     0.381 N 
ATOM     19  H   LIG d   1       0.351  79.950 108.521  0.00  0.00    -0.090 HD
ATOM     20  H   LIG d   1      -0.793  80.567 109.496  0.00  0.00    -0.090 HD
ATOM     21  H   LIG d   1      -0.436  78.970 109.566  0.00  0.00    -0.090 HD
ENDBRANCH   5  18
BRANCH   3  22
ATOM     22  C   LIG d   1       4.275  81.738 110.268  0.00  0.00     0.382 C 
ATOM     23  O   LIG d   1       4.968  80.786 109.834  0.00  0.00    -0.241 OA
ATOM     24  O   LIG d   1       4.765  82.882 110.318  0.00  0.00    -0.241 OA
ENDBRANCH   3  22
TORSDOF 7
ENDMDL
MODEL 4
REMARK VINA RESULT:      -4.5      3.389      5.619
REMARK  7 active torsions:
REMARK  status: ('A' for Active; 'I' for Inactive)
REMARK    1  A    between atoms: C_2  and  C_3 
REMARK    2  A    between atoms: C_3  and  O_6 
REMARK    3  A    between atoms: C_3  and  C_4 
REMARK    4  A    between atoms: C_7  and  O_6 
REMARK    5  A    between atoms: C_9  and  C_10 
REMARK    6  A    between atoms: N_15  and  C_14 
REMARK    7  A    between atoms: N_20  and  C_19 
REMARK       I    between atoms: C_22  and  N_20 
ROOT
ATOM      1  C   LIG d   1       2.533  83.059 113.081  0.00  0.00     0.161 C 
ATOM      2  C   LIG d   1       2.962  83.032 111.744  0.00  0.00     0.016 C 
ATOM      3  C   LIG d   1       4.094  82.308 111.304  0.00  0.00     0.038 C 
ATOM      4  C   LIG d   1       4.790  81.433 112.153  0.00  0.00     0.028 C 
ATOM      5  C   LIG d   1       4.699  81.818 113.625  0.00  0.00    -0.047 C 
ATOM      6  C   LIG d   1       3.213  82.023 114.000  0.00  0.00     0.091 C 
ENDROOT
BRANCH   1   7
ATOM      7  O   LIG d   1       1.100  82.914 113.137  0.00  0.00    -0.368 OA
BRANCH   7   8
ATOM      8  C   LIG d   1       0.460  82.437 111.928  0.00  0.00     0.119 C 
BRANCH   8   9
ATOM      9  C   LIG d   1      -0.794  83.303 111.696  0.00  0.00     0.028 C 
ATOM     10  C   LIG d   1      -0.477  84.607 110.945  0.00  0.00     0.006 C 
ENDBRANCH   8   9
BRANCH   8  11
ATOM     11  C   LIG d   1      -0.061  81.007 112.100  0.00  0.00     0.028 C 
ATOM     12  C   LIG d   1       0.339  80.084 110.937  0.00  0.00     0.006 C 
ENDBRANCH   8  11
ENDBRANCH   7   8
ENDBRANCH   1   7
BRANCH   6  13
ATOM     13  N   LIG d   1       3.040  82.483 115.402  0.00  0.00    -0.311 N 
ATOM     14  C   LIG d   1       2.171  81.937 116.251  0.00  0.00     0.210 C 
ATOM     15  C   LIG d   1       2.139  82.576 117.643  0.00  0.00     0.109 C 
ATOM     16  O   LIG d   1       1.446  80.965 115.993  0.00  0.00    -0.276 OA
ATOM     17  H   LIG d   1       3.611  83.248 115.705  0.00  0.00     0.149 HD
ENDBRANCH   6  13
BRANCH   5  18
ATOM     18  N   LIG d   1       5.350  80.749 114.406  0.00  0.00     0.381 N 
ATOM     19  H   LIG d   1       5.048  80.793 115.359  0.00  0.00    -0.090 HD
ATOM     20  H   LIG d   1       6.344  80.889 114.384  0.00  0.00    -0.090 HD
ATOM     21  H   LIG d   1       5.124  79.858 114.020  0.00  0.00    -0.090 HD
ENDBRANCH   5  18
BRANCH   3  22
ATOM     22  C   LIG d   1       4.565  82.485 110.012  0.00  0.00     0.382 C 
ATOM     23  O   LIG d   1       5.183  81.558 109.437  0.00  0.00    -0.241 OA
ATOM     24  O   LIG d   1       4.417  83.577 109.431  0.00  0.00    -0.241 OA
ENDBRANCH   3  22
TORSDOF 7
ENDMDL
MODEL 5
REMARK VINA RESULT:      -4.5      3.958      5.279
REMARK  7 active torsions:
REMARK  status: ('A' for Active; 'I' for Inactive)
REMARK    1  A    between atoms: C_2  and  C_3 
REMARK    2  A    between atoms: C_3  and  O_6 
REMARK    3  A    between atoms: C_3  and  C_4 
REMARK    4  A    between atoms: C_7  and  O_6 
REMARK    5  A    between atoms: C_9  and  C_10 
REMARK    6  A    between atoms: N_15  and  C_14 
REMARK    7  A    between atoms: N_20  and  C_19 
REMARK       I    between atoms: C_22  and  N_20 
ROOT
ATOM      1  C   LIG d   1      -0.491  78.351 115.080  0.00  0.00     0.161 C 
ATOM      2  C   LIG d   1      -1.143  77.125 114.865  0.00  0.00     0.016 C 
ATOM      3  C   LIG d   1      -1.478  76.229 115.906  0.00  0.00     0.038 C 
ATOM      4  C   LIG d   1      -1.317  76.569 117.257  0.00  0.00     0.028 C 
ATOM      5  C   LIG d   1      -0.201  77.580 117.499  0.00  0.00    -0.047 C 
ATOM      6  C   LIG d   1      -0.407  78.789 116.557  0.00  0.00     0.091 C 
ENDROOT
BRANCH   1   7
ATOM      7  O   LIG d   1      -1.113  79.381 114.286  0.00  0.00    -0.368 OA
BRANCH   7   8
ATOM      8  C   LIG d   1      -1.095  79.179 112.852  0.00  0.00     0.119 C 
BRANCH   8   9
ATOM      9  C   LIG d   1      -0.319  80.355 112.228  0.00  0.00     0.028 C 
ATOM     10  C   LIG d   1       0.269  80.005 110.850  0.00  0.00     0.006 C 
ENDBRANCH   8   9
BRANCH   8  11
ATOM     11  C   LIG d   1      -2.505  79.264 112.260  0.00  0.00     0.028 C 
ATOM     12  C   LIG d   1      -2.884  78.019 111.442  0.00  0.00     0.006 C 
ENDBRANCH   8  11
ENDBRANCH   7   8
ENDBRANCH   1   7
BRANCH   6  13
ATOM     13  N   LIG d   1       0.688  79.788 116.668  0.00  0.00    -0.311 N 
ATOM     14  C   LIG d   1       0.624  80.861 117.455  0.00  0.00     0.210 C 
ATOM     15  C   LIG d   1       1.854  81.772 117.406  0.00  0.00     0.109 C 
ATOM     16  O   LIG d   1      -0.321  81.127 118.213  0.00  0.00    -0.276 OA
ATOM     17  H   LIG d   1       1.505  79.633 116.111  0.00  0.00     0.149 HD
ENDBRANCH   6  13
BRANCH   5  18
ATOM     18  N   LIG d   1      -0.234  77.948 118.927  0.00  0.00     0.381 N 
ATOM     19  H   LIG d   1       0.588  78.467 119.162  0.00  0.00    -0.090 HD
ATOM     20  H   LIG d   1      -0.247  77.108 119.478  0.00  0.00    -0.090 HD
ATOM     21  H   LIG d   1      -1.046  78.493 119.120  0.00  0.00    -0.090 HD
ENDBRANCH   5  18
BRANCH   3  22
ATOM     22  C   LIG d   1      -1.943  74.960 115.597  0.00  0.00     0.382 C 
ATOM     23  O   LIG d   1      -2.956  74.504 116.181  0.00  0.00    -0.241 OA
ATOM     24  O   LIG d   1      -1.337  74.248 114.774  0.00  0.00    -0.241 OA
ENDBRANCH   3  22
TORSDOF 7
ENDMDL
MODEL 6
REMARK VINA RESULT:      -4.4      2.631      4.357
REMARK  7 active torsions:
REMARK  status: ('A' for Active; 'I' for Inactive)
REMARK    1  A    between atoms: C_2  and  C_3 
REMARK    2  A    between atoms: C_3  and  O_6 
REMARK    3  A    between atoms: C_3  and  C_4 
REMARK    4  A    between atoms: C_7  and  O_6 
REMARK    5  A    between atoms: C_9  and  C_10 
REMARK    6  A    between atoms: N_15  and  C_14 
REMARK    7  A    between atoms: N_20  and  C_19 
REMARK       I    between atoms: C_22  and  N_20 
ROOT
ATOM      1  C   LIG d   1       1.190  82.579 111.932  0.00  0.00     0.161 C 
ATOM      2  C   LIG d   1      -0.069  82.189 112.416  0.00  0.00     0.016 C 
ATOM      3  C   LIG d   1      -0.693  80.968 112.068  0.00  0.00     0.038 C 
ATOM      4  C   LIG d   1      -0.027  79.980 111.327  0.00  0.00     0.028 C 
ATOM      5  C   LIG d   1       1.046  80.539 110.399  0.00  0.00    -0.047 C 
ATOM      6  C   LIG d   1       1.979  81.465 111.212  0.00  0.00     0.091 C 
ENDROOT
BRANCH   1   7
ATOM      7  O   LIG d   1       1.975  83.135 113.005  0.00  0.00    -0.368 OA
BRANCH   7   8
ATOM      8  C   LIG d   1       2.739  82.189 113.793  0.00  0.00     0.119 C 
BRANCH   8   9
ATOM      9  C   LIG d   1       2.161  82.205 115.222  0.00  0.00     0.028 C 
ATOM     10  C   LIG d   1       3.208  81.822 116.282  0.00  0.00     0.006 C 
ENDBRANCH   8   9
BRANCH   8  11
ATOM     11  C   LIG d   1       4.197  82.634 113.940  0.00  0.00     0.028 C 
ATOM     12  C   LIG d   1       4.459  84.024 113.339  0.00  0.00     0.006 C 
ENDBRANCH   8  11
ENDBRANCH   7   8
ENDBRANCH   1   7
BRANCH   6  13
ATOM     13  N   LIG d   1       3.008  82.121 110.362  0.00  0.00    -0.311 N 
ATOM     14  C   LIG d   1       4.294  81.774 110.368  0.00  0.00     0.210 C 
ATOM     15  C   LIG d   1       5.188  82.591 109.430  0.00  0.00     0.109 C 
ATOM     16  O   LIG d   1       4.773  80.846 111.037  0.00  0.00    -0.276 OA
ATOM     17  H   LIG d   1       2.700  82.863 109.765  0.00  0.00     0.149 HD
ENDBRANCH   6  13
BRANCH   5  18
ATOM     18  N   LIG d   1       1.751  79.394 109.793  0.00  0.00     0.381 N 
ATOM     19  H   LIG d   1       1.139  78.604 109.749  0.00  0.00    -0.090 HD
ATOM     20  H   LIG d   1       2.537  79.153 110.372  0.00  0.00    -0.090 HD
ATOM     21  H   LIG d   1       2.065  79.633 108.878  0.00  0.00    -0.090 HD
ENDBRANCH   5  18
BRANCH   3  22
ATOM     22  C   LIG d   1      -2.012  80.743 112.430  0.00  0.00     0.382 C 
ATOM     23  O   LIG d   1      -2.443  79.569 112.530  0.00  0.00    -0.241 OA
ATOM     24  O   LIG d   1      -2.789  81.699 112.614  0.00  0.00    -0.241 OA
ENDBRANCH   3  22
TORSDOF 7
ENDMDL
MODEL 7
REMARK VINA RESULT:      -4.3      4.499      6.470
REMARK  7 active torsions:
REMARK  status: ('A' for Active; 'I' for Inactive)
REMARK    1  A    between atoms: C_2  and  C_3 
REMARK    2  A    between atoms: C_3  and  O_6 
REMARK    3  A    between atoms: C_3  and  C_4 
REMARK    4  A    between atoms: C_7  and  O_6 
REMARK    5  A    between atoms: C_9  and  C_10 
REMARK    6  A    between atoms: N_15  and  C_14 
REMARK    7  A    between atoms: N_20  and  C_19 
REMARK       I    between atoms: C_22  and  N_20 
ROOT
ATOM      1  C   LIG d   1       4.114  81.342 113.685  0.00  0.00     0.161 C 
ATOM      2  C   LIG d   1       4.687  81.669 112.445  0.00  0.00     0.016 C 
ATOM      3  C   LIG d   1       4.022  82.432 111.457  0.00  0.00     0.038 C 
ATOM      4  C   LIG d   1       2.788  83.051 111.705  0.00  0.00     0.028 C 
ATOM      5  C   LIG d   1       1.949  82.332 112.756  0.00  0.00    -0.047 C 
ATOM      6  C   LIG d   1       2.813  82.103 114.017  0.00  0.00     0.091 C 
ENDROOT
BRANCH   1   7
ATOM      7  O   LIG d   1       5.084  81.526 114.735  0.00  0.00    -0.368 OA
BRANCH   7   8
ATOM      8  C   LIG d   1       5.432  80.344 115.496  0.00  0.00     0.119 C 
BRANCH   8   9
ATOM      9  C   LIG d   1       6.050  80.815 116.827  0.00  0.00     0.028 C 
ATOM     10  C   LIG d   1       5.177  80.451 118.040  0.00  0.00     0.006 C 
ENDBRANCH   8   9
BRANCH   8  11
ATOM     11  C   LIG d   1       6.533  79.537 114.801  0.00  0.00     0.028 C 
ATOM     12  C   LIG d   1       7.059  78.379 115.663  0.00  0.00     0.006 C 
ENDBRANCH   8  11
ENDBRANCH   7   8
ENDBRANCH   1   7
BRANCH   6  13
ATOM     13  N   LIG d   1       2.094  81.330 115.063  0.00  0.00    -0.311 N 
ATOM     14  C   LIG d   1       2.097  81.663 116.353  0.00  0.00     0.210 C 
ATOM     15  C   LIG d   1       1.309  80.719 117.266  0.00  0.00     0.109 C 
ATOM     16  O   LIG d   1       2.651  82.669 116.822  0.00  0.00    -0.276 OA
ATOM     17  H   LIG d   1       1.593  80.516 114.765  0.00  0.00     0.149 HD
ENDBRANCH   6  13
BRANCH   5  18
ATOM     18  N   LIG d   1       0.755  83.158 113.015  0.00  0.00     0.381 N 
ATOM     19  H   LIG d   1       1.030  84.103 113.195  0.00  0.00    -0.090 HD
ATOM     20  H   LIG d   1       0.286  82.805 113.830  0.00  0.00    -0.090 HD
ATOM     21  H   LIG d   1       0.142  83.127 112.230  0.00  0.00    -0.090 HD
ENDBRANCH   5  18
BRANCH   3  22
ATOM     22  C   LIG d   1       4.575  82.547 110.191  0.00  0.00     0.382 C 
ATOM     23  O   LIG d   1       4.393  83.592 109.521  0.00  0.00    -0.241 OA
ATOM     24  O   LIG d   1       5.216  81.603 109.692  0.00  0.00    -0.241 OA
ENDBRANCH   3  22
TORSDOF 7
ENDMDL
MODEL 8
REMARK VINA RESULT:      -4.3      4.468      6.456
REMARK  7 active torsions:
REMARK  status: ('A' for Active; 'I' for Inactive)
REMARK    1  A    between atoms: C_2  and  C_3 
REMARK    2  A    between atoms: C_3  and  O_6 
REMARK    3  A    between atoms: C_3  and  C_4 
REMARK    4  A    between atoms: C_7  and  O_6 
REMARK    5  A    between atoms: C_9  and  C_10 
REMARK    6  A    between atoms: N_15  and  C_14 
REMARK    7  A    between atoms: N_20  and  C_19 
REMARK       I    between atoms: C_22  and  N_20 
ROOT
ATOM      1  C   LIG d   1       4.504  81.203 114.261  0.00  0.00     0.161 C 
ATOM      2  C   LIG d   1       5.044  81.378 112.976  0.00  0.00     0.016 C 
ATOM      3  C   LIG d   1       4.317  81.927 111.895  0.00  0.00     0.038 C 
ATOM      4  C   LIG d   1       3.039  82.481 112.066  0.00  0.00     0.028 C 
ATOM      5  C   LIG d   1       2.264  81.870 113.228  0.00  0.00    -0.047 C 
ATOM      6  C   LIG d   1       3.149  81.904 114.495  0.00  0.00     0.091 C 
ENDROOT
BRANCH   1   7
ATOM      7  O   LIG d   1       5.461  81.620 115.255  0.00  0.00    -0.368 OA
BRANCH   7   8
ATOM      8  C   LIG d   1       5.984  80.578 116.114  0.00  0.00     0.119 C 
BRANCH   8   9
ATOM      9  C   LIG d   1       5.355  79.246 115.661  0.00  0.00     0.028 C 
ATOM     10  C   LIG d   1       4.613  78.529 116.802  0.00  0.00     0.006 C 
ENDBRANCH   8   9
BRANCH   8  11
ATOM     11  C   LIG d   1       5.528  80.769 117.563  0.00  0.00     0.028 C 
ATOM     12  C   LIG d   1       5.230  82.238 117.905  0.00  0.00     0.006 C 
ENDBRANCH   8  11
ENDBRANCH   7   8
ENDBRANCH   1   7
BRANCH   6  13
ATOM     13  N   LIG d   1       2.498  81.248 115.659  0.00  0.00    -0.311 N 
ATOM     14  C   LIG d   1       1.759  81.905 116.551  0.00  0.00     0.210 C 
ATOM     15  C   LIG d   1       1.196  81.042 117.685  0.00  0.00     0.109 C 
ATOM     16  O   LIG d   1       1.489  83.114 116.493  0.00  0.00    -0.276 OA
ATOM     17  H   LIG d   1       2.639  80.263 115.765  0.00  0.00     0.149 HD
ENDBRANCH   6  13
BRANCH   5  18
ATOM     18  N   LIG d   1       1.010  82.633 113.378  0.00  0.00     0.381 N 
ATOM     19  H   LIG d   1       0.229  82.044 113.170  0.00  0.00    -0.090 HD
ATOM     20  H   LIG d   1       1.014  83.395 112.723  0.00  0.00    -0.090 HD
ATOM     21  H   LIG d   1       0.933  82.983 114.307  0.00  0.00    -0.090 HD
ENDBRANCH   5  18
BRANCH   3  22
ATOM     22  C   LIG d   1       4.852  81.889 110.617  0.00  0.00     0.382 C 
ATOM     23  O   LIG d   1       4.859  82.924 109.908  0.00  0.00    -0.241 OA
ATOM     24  O   LIG d   1       5.289  80.821 110.147  0.00  0.00    -0.241 OA
ENDBRANCH   3  22
TORSDOF 7
ENDMDL
MODEL 9
REMARK VINA RESULT:      -3.9      4.771      6.813
REMARK  7 active torsions:
REMARK  status: ('A' for Active; 'I' for Inactive)
REMARK    1  A    between atoms: C_2  and  C_3 
REMARK    2  A    between atoms: C_3  and  O_6 
REMARK    3  A    between atoms: C_3  and  C_4 
REMARK    4  A    between atoms: C_7  and  O_6 
REMARK    5  A    between atoms: C_9  and  C_10 
REMARK    6  A    between atoms: N_15  and  C_14 
REMARK    7  A    between atoms: N_20  and  C_19 
REMARK       I    between atoms: C_22  and  N_20 
ROOT
ATOM      1  C   LIG d   1       3.040  81.184 116.501  0.00  0.00     0.161 C 
ATOM      2  C   LIG d   1       4.254  80.773 115.927  0.00  0.00     0.016 C 
ATOM      3  C   LIG d   1       4.863  79.527 116.201  0.00  0.00     0.038 C 
ATOM      4  C   LIG d   1       4.217  78.537 116.958  0.00  0.00     0.028 C 
ATOM      5  C   LIG d   1       3.222  79.100 117.967  0.00  0.00    -0.047 C 
ATOM      6  C   LIG d   1       2.266  80.073 117.241  0.00  0.00     0.091 C 
ENDROOT
BRANCH   1   7
ATOM      7  O   LIG d   1       2.205  81.791 115.495  0.00  0.00    -0.368 OA
BRANCH   7   8
ATOM      8  C   LIG d   1       2.864  82.167 114.261  0.00  0.00     0.119 C 
BRANCH   8   9
ATOM      9  C   LIG d   1       3.055  83.696 114.284  0.00  0.00     0.028 C 
ATOM     10  C   LIG d   1       1.797  84.436 114.768  0.00  0.00     0.006 C 
ENDBRANCH   8   9
BRANCH   8  11
ATOM     11  C   LIG d   1       1.974  81.888 113.046  0.00  0.00     0.028 C 
ATOM     12  C   LIG d   1       2.778  81.507 111.793  0.00  0.00     0.006 C 
ENDBRANCH   8  11
ENDBRANCH   7   8
ENDBRANCH   1   7
BRANCH   6  13
ATOM     13  N   LIG d   1       1.313  80.732 118.172  0.00  0.00    -0.311 N 
ATOM     14  C   LIG d   1      -0.008  80.591 118.090  0.00  0.00     0.210 C 
ATOM     15  C   LIG d   1      -0.809  81.374 119.136  0.00  0.00     0.109 C 
ATOM     16  O   LIG d   1      -0.593  79.867 117.270  0.00  0.00    -0.276 OA
ATOM     17  H   LIG d   1       1.704  81.314 118.888  0.00  0.00     0.149 HD
ENDBRANCH   6  13
BRANCH   5  18
ATOM     18  N   LIG d   1       2.523  77.958 118.588  0.00  0.00     0.381 N 
ATOM     19  H   LIG d   1       1.733  77.701 118.030  0.00  0.00    -0.090 HD
ATOM     20  H   LIG d   1       2.193  78.234 119.496  0.00  0.00    -0.090 HD
ATOM     21  H   LIG d   1       3.145  77.184 118.673  0.00  0.00    -0.090 HD
ENDBRANCH   5  18
BRANCH   3  22
ATOM     22  C   LIG d   1       6.149  79.276 115.750  0.00  0.00     0.382 C 
ATOM     23  O   LIG d   1       7.060  80.115 115.952  0.00  0.00    -0.241 OA
ATOM     24  O   LIG d   1       6.401  78.241 115.103  0.00  0.00    -0.241 OA
ENDBRANCH   3  22
TORSDOF 7
ENDMDL
