MODEL 1
REMARK VINA RESULT:      -5.0      0.000      0.000
REMARK  7 active torsions:
REMARK  status: ('A' for Active; 'I' for Inactive)
REMARK    1  A    between atoms: C_2  and  C_3 
REMARK    2  A    between atoms: C_3  and  O_6 
REMARK    3  A    between atoms: C_3  and  C_4 
REMARK    4  A    between atoms: C_7  and  O_6 
REMARK    5  A    between atoms: C_9  and  C_10 
REMARK    6  A    between atoms: N_15  and  C_14 
REMARK    7  A    between atoms: N_20  and  C_19 
REMARK       I    between atoms: C_22  and  N_20 
ROOT
ATOM      1  C   LIG d   1       1.897  81.710 112.682  0.00  0.00     0.161 C 
ATOM      2  C   LIG d   1       2.971  82.343 112.035  0.00  0.00     0.016 C 
ATOM      3  C   LIG d   1       3.043  82.516 110.634  0.00  0.00     0.038 C 
ATOM      4  C   LIG d   1       1.967  82.200 109.792  0.00  0.00     0.028 C 
ATOM      5  C   LIG d   1       1.070  81.097 110.343  0.00  0.00    -0.047 C 
ATOM      6  C   LIG d   1       0.663  81.458 111.790  0.00  0.00     0.091 C 
ENDROOT
BRANCH   1   7
ATOM      7  O   LIG d   1       1.523  82.459 113.855  0.00  0.00    -0.368 OA
BRANCH   7   8
ATOM      8  C   LIG d   1       2.591  83.179 114.519  0.00  0.00     0.119 C 
BRANCH   8   9
ATOM      9  C   LIG d   1       2.937  82.408 115.808  0.00  0.00     0.028 C 
ATOM     10  C   LIG d   1       4.136  81.463 115.622  0.00  0.00     0.006 C 
ENDBRANCH   8   9
BRANCH   8  11
ATOM     11  C   LIG d   1       2.125  84.561 114.986  0.00  0.00     0.028 C 
ATOM     12  C   LIG d   1       1.845  84.616 116.496  0.00  0.00     0.006 C 
ENDBRANCH   8  11
ENDBRANCH   7   8
ENDBRANCH   1   7
BRANCH   6  13
ATOM     13  N   LIG d   1      -0.147  80.391 112.434  0.00  0.00    -0.311 N 
ATOM     14  C   LIG d   1      -1.476  80.421 112.503  0.00  0.00     0.210 C 
ATOM     15  C   LIG d   1      -2.113  79.231 113.228  0.00  0.00     0.109 C 
ATOM     16  O   LIG d   1      -2.191  81.304 112.005  0.00  0.00    -0.276 OA
ATOM     17  H   LIG d   1       0.351  79.621 112.837  0.00  0.00     0.149 HD
ENDBRANCH   6  13
BRANCH   5  18
ATOM     18  N   LIG d   1      -0.084  80.965 109.434  0.00  0.00     0.381 N 
ATOM     19  H   LIG d   1       0.108  81.435 108.572  0.00  0.00    -0.090 HD
ATOM     20  H   LIG d   1      -0.884  81.401 109.859  0.00  0.00    -0.090 HD
ATOM     21  H   LIG d   1      -0.274  80.002 109.261  0.00  0.00    -0.090 HD
ENDBRANCH   5  18
BRANCH   3  22
ATOM     22  C   LIG d   1       4.218  82.975 110.057  0.00  0.00     0.382 C 
ATOM     23  O   LIG d   1       5.204  82.207 109.949  0.00  0.00    -0.241 OA
ATOM     24  O   LIG d   1       4.319  84.159 109.685  0.00  0.00    -0.241 OA
ENDBRANCH   3  22
TORSDOF 7
ENDMDL
MODEL 2
REMARK VINA RESULT:      -4.6      2.639      6.094
REMARK  7 active torsions:
REMARK  status: ('A' for Active; 'I' for Inactive)
REMARK    1  A    between atoms: C_2  and  C_3 
REMARK    2  A    between atoms: C_3  and  O_6 
REMARK    3  A    between atoms: C_3  and  C_4 
REMARK    4  A    between atoms: C_7  and  O_6 
REMARK    5  A    between atoms: C_9  and  C_10 
REMARK    6  A    between atoms: N_15  and  C_14 
REMARK    7  A    between atoms: N_20  and  C_19 
REMARK       I    between atoms: C_22  and  N_20 
ROOT
ATOM      1  C   LIG d   1      -0.203  80.357 111.393  0.00  0.00     0.161 C 
ATOM      2  C   LIG d   1      -1.302  79.507 111.184  0.00  0.00     0.016 C 
ATOM      3  C   LIG d   1      -2.013  78.882 112.235  0.00  0.00     0.038 C 
ATOM      4  C   LIG d   1      -1.766  79.188 113.582  0.00  0.00     0.028 C 
ATOM      5  C   LIG d   1      -0.338  79.652 113.845  0.00  0.00    -0.047 C 
ATOM      6  C   LIG d   1       0.010  80.790 112.859  0.00  0.00     0.091 C 
ENDROOT
BRANCH   1   7
ATOM      7  O   LIG d   1      -0.312  81.514 110.540  0.00  0.00    -0.368 OA
BRANCH   7   8
ATOM      8  C   LIG d   1       0.618  81.578 109.431  0.00  0.00     0.119 C 
BRANCH   8   9
ATOM      9  C   LIG d   1       1.649  80.449 109.626  0.00  0.00     0.028 C 
ATOM     10  C   LIG d   1       3.098  80.961 109.561  0.00  0.00     0.006 C 
ENDBRANCH   8   9
BRANCH   8  11
ATOM     11  C   LIG d   1       1.429  82.877 109.457  0.00  0.00     0.028 C 
ATOM     12  C   LIG d   1       0.567  84.111 109.766  0.00  0.00     0.006 C 
ENDBRANCH   8  11
ENDBRANCH   7   8
ENDBRANCH   1   7
BRANCH   6  13
ATOM     13  N   LIG d   1       1.419  81.245 112.992  0.00  0.00    -0.311 N 
ATOM     14  C   LIG d   1       1.768  82.526 113.105  0.00  0.00     0.210 C 
ATOM     15  C   LIG d   1       3.275  82.778 113.211  0.00  0.00     0.109 C 
ATOM     16  O   LIG d   1       0.970  83.474 113.158  0.00  0.00    -0.276 OA
ATOM     17  H   LIG d   1       2.129  80.539 112.990  0.00  0.00     0.149 HD
ENDBRANCH   6  13
BRANCH   5  18
ATOM     18  N   LIG d   1      -0.258  80.068 115.258  0.00  0.00     0.381 N 
ATOM     19  H   LIG d   1      -0.979  80.732 115.457  0.00  0.00    -0.090 HD
ATOM     20  H   LIG d   1       0.630  80.510 115.418  0.00  0.00    -0.090 HD
ATOM     21  H   LIG d   1      -0.354  79.274 115.853  0.00  0.00    -0.090 HD
ENDBRANCH   5  18
BRANCH   3  22
ATOM     22  C   LIG d   1      -2.957  77.910 111.942  0.00  0.00     0.382 C 
ATOM     23  O   LIG d   1      -3.301  77.085 112.823  0.00  0.00    -0.241 OA
ATOM     24  O   LIG d   1      -3.437  77.819 110.796  0.00  0.00    -0.241 OA
ENDBRANCH   3  22
TORSDOF 7
ENDMDL
MODEL 3
REMARK VINA RESULT:      -4.2      5.509      8.312
REMARK  7 active torsions:
REMARK  status: ('A' for Active; 'I' for Inactive)
REMARK    1  A    between atoms: C_2  and  C_3 
REMARK    2  A    between atoms: C_3  and  O_6 
REMARK    3  A    between atoms: C_3  and  C_4 
REMARK    4  A    between atoms: C_7  and  O_6 
REMARK    5  A    between atoms: C_9  and  C_10 
REMARK    6  A    between atoms: N_15  and  C_14 
REMARK    7  A    between atoms: N_20  and  C_19 
REMARK       I    between atoms: C_22  and  N_20 
ROOT
ATOM      1  C   LIG d   1      -1.295  77.981 117.676  0.00  0.00     0.161 C 
ATOM      2  C   LIG d   1      -1.974  76.922 117.051  0.00  0.00     0.016 C 
ATOM      3  C   LIG d   1      -2.118  76.811 115.649  0.00  0.00     0.038 C 
ATOM      4  C   LIG d   1      -1.459  77.678 114.764  0.00  0.00     0.028 C 
ATOM      5  C   LIG d   1      -1.180  79.053 115.360  0.00  0.00    -0.047 C 
ATOM      6  C   LIG d   1      -0.475  78.876 116.724  0.00  0.00     0.091 C 
ENDROOT
BRANCH   1   7
ATOM      7  O   LIG d   1      -0.455  77.469 118.730  0.00  0.00    -0.368 OA
BRANCH   7   8
ATOM      8  C   LIG d   1       0.435  76.385 118.365  0.00  0.00     0.119 C 
BRANCH   8   9
ATOM      9  C   LIG d   1       0.319  75.304 119.456  0.00  0.00     0.028 C 
ATOM     10  C   LIG d   1      -0.877  74.364 119.227  0.00  0.00     0.006 C 
ENDBRANCH   8   9
BRANCH   8  11
ATOM     11  C   LIG d   1       1.899  76.833 118.392  0.00  0.00     0.028 C 
ATOM     12  C   LIG d   1       2.815  75.833 119.114  0.00  0.00     0.006 C 
ENDBRANCH   8  11
ENDBRANCH   7   8
ENDBRANCH   1   7
BRANCH   6  13
ATOM     13  N   LIG d   1      -0.241  80.171 117.414  0.00  0.00    -0.311 N 
ATOM     14  C   LIG d   1       0.971  80.688 117.612  0.00  0.00     0.210 C 
ATOM     15  C   LIG d   1       0.989  82.024 118.362  0.00  0.00     0.109 C 
ATOM     16  O   LIG d   1       2.029  80.183 117.210  0.00  0.00    -0.276 OA
ATOM     17  H   LIG d   1      -1.047  80.664 117.745  0.00  0.00     0.149 HD
ENDBRANCH   6  13
BRANCH   5  18
ATOM     18  N   LIG d   1      -0.370  79.806 114.383  0.00  0.00     0.381 N 
ATOM     19  H   LIG d   1      -0.177  80.722 114.737  0.00  0.00    -0.090 HD
ATOM     20  H   LIG d   1      -0.893  79.901 113.531  0.00  0.00    -0.090 HD
ATOM     21  H   LIG d   1       0.484  79.324 114.206  0.00  0.00    -0.090 HD
ENDBRANCH   5  18
BRANCH   3  22
ATOM     22  C   LIG d   1      -2.963  75.847 115.119  0.00  0.00     0.382 C 
ATOM     23  O   LIG d   1      -3.440  75.995 113.968  0.00  0.00    -0.241 OA
ATOM     24  O   LIG d   1      -3.289  74.853 115.795  0.00  0.00    -0.241 OA
ENDBRANCH   3  22
TORSDOF 7
ENDMDL
MODEL 4
REMARK VINA RESULT:      -4.2      4.911      6.571
REMARK  7 active torsions:
REMARK  status: ('A' for Active; 'I' for Inactive)
REMARK    1  A    between atoms: C_2  and  C_3 
REMARK    2  A    between atoms: C_3  and  O_6 
REMARK    3  A    between atoms: C_3  and  C_4 
REMARK    4  A    between atoms: C_7  and  O_6 
REMARK    5  A    between atoms: C_9  and  C_10 
REMARK    6  A    between atoms: N_15  and  C_14 
REMARK    7  A    between atoms: N_20  and  C_19 
REMARK       I    between atoms: C_22  and  N_20 
ROOT
ATOM      1  C   LIG d   1      -2.053  78.594 115.008  0.00  0.00     0.161 C 
ATOM      2  C   LIG d   1      -2.174  79.825 114.344  0.00  0.00     0.016 C 
ATOM      3  C   LIG d   1      -1.976  79.982 112.953  0.00  0.00     0.038 C 
ATOM      4  C   LIG d   1      -1.791  78.882 112.102  0.00  0.00     0.028 C 
ATOM      5  C   LIG d   1      -1.160  77.679 112.795  0.00  0.00    -0.047 C 
ATOM      6  C   LIG d   1      -1.961  77.365 114.080  0.00  0.00     0.091 C 
ENDROOT
BRANCH   1   7
ATOM      7  O   LIG d   1      -3.138  78.434 115.944  0.00  0.00    -0.368 OA
BRANCH   7   8
ATOM      8  C   LIG d   1      -2.764  78.321 117.339  0.00  0.00     0.119 C 
BRANCH   8   9
ATOM      9  C   LIG d   1      -3.438  79.483 118.095  0.00  0.00     0.028 C 
ATOM     10  C   LIG d   1      -3.279  79.363 119.620  0.00  0.00     0.006 C 
ENDBRANCH   8   9
BRANCH   8  11
ATOM     11  C   LIG d   1      -1.259  78.531 117.532  0.00  0.00     0.028 C 
ATOM     12  C   LIG d   1      -0.607  77.424 118.376  0.00  0.00     0.006 C 
ENDBRANCH   8  11
ENDBRANCH   7   8
ENDBRANCH   1   7
BRANCH   6  13
ATOM     13  N   LIG d   1      -1.361  76.253 114.863  0.00  0.00    -0.311 N 
ATOM     14  C   LIG d   1      -2.056  75.202 115.295  0.00  0.00     0.210 C 
ATOM     15  C   LIG d   1      -1.249  74.180 116.102  0.00  0.00     0.109 C 
ATOM     16  O   LIG d   1      -3.257  75.004 115.060  0.00  0.00    -0.276 OA
ATOM     17  H   LIG d   1      -0.384  76.318 115.073  0.00  0.00     0.149 HD
ENDBRANCH   6  13
BRANCH   5  18
ATOM     18  N   LIG d   1      -1.152  76.563 111.831  0.00  0.00     0.381 N 
ATOM     19  H   LIG d   1      -1.652  75.784 112.211  0.00  0.00    -0.090 HD
ATOM     20  H   LIG d   1      -0.202  76.280 111.670  0.00  0.00    -0.090 HD
ATOM     21  H   LIG d   1      -1.571  76.850 110.974  0.00  0.00    -0.090 HD
ENDBRANCH   5  18
BRANCH   3  22
ATOM     22  C   LIG d   1      -1.923  81.255 112.406  0.00  0.00     0.382 C 
ATOM     23  O   LIG d   1      -2.676  82.158 112.844  0.00  0.00    -0.241 OA
ATOM     24  O   LIG d   1      -1.163  81.500 111.450  0.00  0.00    -0.241 OA
ENDBRANCH   3  22
TORSDOF 7
ENDMDL
MODEL 5
REMARK VINA RESULT:      -4.2      5.741      7.473
REMARK  7 active torsions:
REMARK  status: ('A' for Active; 'I' for Inactive)
REMARK    1  A    between atoms: C_2  and  C_3 
REMARK    2  A    between atoms: C_3  and  O_6 
REMARK    3  A    between atoms: C_3  and  C_4 
REMARK    4  A    between atoms: C_7  and  O_6 
REMARK    5  A    between atoms: C_9  and  C_10 
REMARK    6  A    between atoms: N_15  and  C_14 
REMARK    7  A    between atoms: N_20  and  C_19 
REMARK       I    between atoms: C_22  and  N_20 
ROOT
ATOM      1  C   LIG d   1      -0.595  77.389 115.899  0.00  0.00     0.161 C 
ATOM      2  C   LIG d   1      -1.087  77.898 114.686  0.00  0.00     0.016 C 
ATOM      3  C   LIG d   1      -2.185  77.337 113.994  0.00  0.00     0.038 C 
ATOM      4  C   LIG d   1      -2.967  76.314 114.551  0.00  0.00     0.028 C 
ATOM      5  C   LIG d   1      -2.203  75.437 115.537  0.00  0.00    -0.047 C 
ATOM      6  C   LIG d   1      -1.504  76.342 116.577  0.00  0.00     0.091 C 
ENDROOT
BRANCH   1   7
ATOM      7  O   LIG d   1      -0.317  78.473 116.807  0.00  0.00    -0.368 OA
BRANCH   7   8
ATOM      8  C   LIG d   1       1.075  78.850 116.943  0.00  0.00     0.119 C 
BRANCH   8   9
ATOM      9  C   LIG d   1       1.582  78.276 118.280  0.00  0.00     0.028 C 
ATOM     10  C   LIG d   1       2.599  77.139 118.083  0.00  0.00     0.006 C 
ENDBRANCH   8   9
BRANCH   8  11
ATOM     11  C   LIG d   1       1.232  80.368 117.068  0.00  0.00     0.028 C 
ATOM     12  C   LIG d   1       2.684  80.835 116.874  0.00  0.00     0.006 C 
ENDBRANCH   8  11
ENDBRANCH   7   8
ENDBRANCH   1   7
BRANCH   6  13
ATOM     13  N   LIG d   1      -0.666  75.568 117.530  0.00  0.00    -0.311 N 
ATOM     14  C   LIG d   1      -0.927  75.483 118.833  0.00  0.00     0.210 C 
ATOM     15  C   LIG d   1       0.075  74.651 119.640  0.00  0.00     0.109 C 
ATOM     16  O   LIG d   1      -1.910  75.991 119.392  0.00  0.00    -0.276 OA
ATOM     17  H   LIG d   1       0.135  75.099 117.155  0.00  0.00     0.149 HD
ENDBRANCH   6  13
BRANCH   5  18
ATOM     18  N   LIG d   1      -3.170  74.501 116.142  0.00  0.00     0.381 N 
ATOM     19  H   LIG d   1      -3.191  74.631 117.134  0.00  0.00    -0.090 HD
ATOM     20  H   LIG d   1      -2.873  73.560 115.953  0.00  0.00    -0.090 HD
ATOM     21  H   LIG d   1      -4.077  74.654 115.761  0.00  0.00    -0.090 HD
ENDBRANCH   5  18
BRANCH   3  22
ATOM     22  C   LIG d   1      -2.487  77.775 112.714  0.00  0.00     0.382 C 
ATOM     23  O   LIG d   1      -3.175  78.811 112.551  0.00  0.00    -0.241 OA
ATOM     24  O   LIG d   1      -2.117  77.121 111.720  0.00  0.00    -0.241 OA
ENDBRANCH   3  22
TORSDOF 7
ENDMDL
MODEL 6
REMARK VINA RESULT:      -4.1      4.517      7.943
REMARK  7 active torsions:
REMARK  status: ('A' for Active; 'I' for Inactive)
REMARK    1  A    between atoms: C_2  and  C_3 
REMARK    2  A    between atoms: C_3  and  O_6 
REMARK    3  A    between atoms: C_3  and  C_4 
REMARK    4  A    between atoms: C_7  and  O_6 
REMARK    5  A    between atoms: C_9  and  C_10 
REMARK    6  A    between atoms: N_15  and  C_14 
REMARK    7  A    between atoms: N_20  and  C_19 
REMARK       I    between atoms: C_22  and  N_20 
ROOT
ATOM      1  C   LIG d   1      -1.060  78.591 114.889  0.00  0.00     0.161 C 
ATOM      2  C   LIG d   1      -1.884  77.454 114.853  0.00  0.00     0.016 C 
ATOM      3  C   LIG d   1      -1.871  76.452 115.851  0.00  0.00     0.038 C 
ATOM      4  C   LIG d   1      -1.135  76.596 117.036  0.00  0.00     0.028 C 
ATOM      5  C   LIG d   1       0.094  77.485 116.882  0.00  0.00    -0.047 C 
ATOM      6  C   LIG d   1      -0.332  78.820 116.229  0.00  0.00     0.091 C 
ENDROOT
BRANCH   1   7
ATOM      7  O   LIG d   1      -1.823  79.759 114.527  0.00  0.00    -0.368 OA
BRANCH   7   8
ATOM      8  C   LIG d   1      -2.370  79.774 113.186  0.00  0.00     0.119 C 
BRANCH   8   9
ATOM      9  C   LIG d   1      -1.246  79.342 112.224  0.00  0.00     0.028 C 
ATOM     10  C   LIG d   1      -1.762  78.450 111.081  0.00  0.00     0.006 C 
ENDBRANCH   8   9
BRANCH   8  11
ATOM     11  C   LIG d   1      -2.749  81.193 112.754  0.00  0.00     0.028 C 
ATOM     12  C   LIG d   1      -1.547  82.002 112.243  0.00  0.00     0.006 C 
ENDBRANCH   8  11
ENDBRANCH   7   8
ENDBRANCH   1   7
BRANCH   6  13
ATOM     13  N   LIG d   1       0.825  79.716 115.966  0.00  0.00    -0.311 N 
ATOM     14  C   LIG d   1       1.258  80.629 116.833  0.00  0.00     0.210 C 
ATOM     15  C   LIG d   1       2.452  81.461 116.355  0.00  0.00     0.109 C 
ATOM     16  O   LIG d   1       0.787  80.807 117.967  0.00  0.00    -0.276 OA
ATOM     17  H   LIG d   1       1.285  79.618 115.082  0.00  0.00     0.149 HD
ENDBRANCH   6  13
BRANCH   5  18
ATOM     18  N   LIG d   1       0.688  77.660 118.221  0.00  0.00     0.381 N 
ATOM     19  H   LIG d   1       1.667  77.849 118.135  0.00  0.00    -0.090 HD
ATOM     20  H   LIG d   1       0.577  76.807 118.740  0.00  0.00    -0.090 HD
ATOM     21  H   LIG d   1       0.238  78.409 118.699  0.00  0.00    -0.090 HD
ENDBRANCH   5  18
BRANCH   3  22
ATOM     22  C   LIG d   1      -2.570  75.272 115.648  0.00  0.00     0.382 C 
ATOM     23  O   LIG d   1      -3.395  75.185 114.707  0.00  0.00    -0.241 OA
ATOM     24  O   LIG d   1      -2.417  74.307 116.421  0.00  0.00    -0.241 OA
ENDBRANCH   3  22
TORSDOF 7
ENDMDL
MODEL 7
REMARK VINA RESULT:      -3.9      5.101      6.455
REMARK  7 active torsions:
REMARK  status: ('A' for Active; 'I' for Inactive)
REMARK    1  A    between atoms: C_2  and  C_3 
REMARK    2  A    between atoms: C_3  and  O_6 
REMARK    3  A    between atoms: C_3  and  C_4 
REMARK    4  A    between atoms: C_7  and  O_6 
REMARK    5  A    between atoms: C_9  and  C_10 
REMARK    6  A    between atoms: N_15  and  C_14 
REMARK    7  A    between atoms: N_20  and  C_19 
REMARK       I    between atoms: C_22  and  N_20 
ROOT
ATOM      1  C   LIG d   1      -0.365  78.930 115.612  0.00  0.00     0.161 C 
ATOM      2  C   LIG d   1      -1.031  79.387 114.463  0.00  0.00     0.016 C 
ATOM      3  C   LIG d   1      -1.673  78.527 113.541  0.00  0.00     0.038 C 
ATOM      4  C   LIG d   1      -1.822  77.155 113.788  0.00  0.00     0.028 C 
ATOM      5  C   LIG d   1      -0.730  76.578 114.683  0.00  0.00    -0.047 C 
ATOM      6  C   LIG d   1      -0.613  77.446 115.956  0.00  0.00     0.091 C 
ENDROOT
BRANCH   1   7
ATOM      7  O   LIG d   1      -0.700  79.767 116.736  0.00  0.00    -0.368 OA
BRANCH   7   8
ATOM      8  C   LIG d   1       0.373  80.038 117.672  0.00  0.00     0.119 C 
BRANCH   8   9
ATOM      9  C   LIG d   1      -0.130  81.113 118.655  0.00  0.00     0.028 C 
ATOM     10  C   LIG d   1       0.654  82.431 118.535  0.00  0.00     0.006 C 
ENDBRANCH   8   9
BRANCH   8  11
ATOM     11  C   LIG d   1       1.580  80.665 116.968  0.00  0.00     0.028 C 
ATOM     12  C   LIG d   1       2.861  79.829 117.124  0.00  0.00     0.006 C 
ENDBRANCH   8  11
ENDBRANCH   7   8
ENDBRANCH   1   7
BRANCH   6  13
ATOM     13  N   LIG d   1       0.490  77.001 116.847  0.00  0.00    -0.311 N 
ATOM     14  C   LIG d   1       0.293  76.528 118.077  0.00  0.00     0.210 C 
ATOM     15  C   LIG d   1       1.569  76.144 118.833  0.00  0.00     0.109 C 
ATOM     16  O   LIG d   1      -0.818  76.360 118.601  0.00  0.00    -0.276 OA
ATOM     17  H   LIG d   1       1.422  77.073 116.490  0.00  0.00     0.149 HD
ENDBRANCH   6  13
BRANCH   5  18
ATOM     18  N   LIG d   1      -1.084  75.175 114.970  0.00  0.00     0.381 N 
ATOM     19  H   LIG d   1      -2.059  75.030 114.801  0.00  0.00    -0.090 HD
ATOM     20  H   LIG d   1      -0.900  74.985 115.940  0.00  0.00    -0.090 HD
ATOM     21  H   LIG d   1      -0.546  74.563 114.397  0.00  0.00    -0.090 HD
ENDBRANCH   5  18
BRANCH   3  22
ATOM     22  C   LIG d   1      -2.138  79.034 112.338  0.00  0.00     0.382 C 
ATOM     23  O   LIG d   1      -1.613  78.669 111.259  0.00  0.00    -0.241 OA
ATOM     24  O   LIG d   1      -3.047  79.886 112.320  0.00  0.00    -0.241 OA
ENDBRANCH   3  22
TORSDOF 7
ENDMDL
MODEL 8
REMARK VINA RESULT:      -3.5      5.410      7.836
REMARK  7 active torsions:
REMARK  status: ('A' for Active; 'I' for Inactive)
REMARK    1  A    between atoms: C_2  and  C_3 
REMARK    2  A    between atoms: C_3  and  O_6 
REMARK    3  A    between atoms: C_3  and  C_4 
REMARK    4  A    between atoms: C_7  and  O_6 
REMARK    5  A    between atoms: C_9  and  C_10 
REMARK    6  A    between atoms: N_15  and  C_14 
REMARK    7  A    between atoms: N_20  and  C_19 
REMARK       I    between atoms: C_22  and  N_20 
ROOT
ATOM      1  C   LIG d   1      -0.334  78.399 117.977  0.00  0.00     0.161 C 
ATOM      2  C   LIG d   1       0.303  79.530 117.439  0.00  0.00     0.016 C 
ATOM      3  C   LIG d   1       1.688  79.585 117.163  0.00  0.00     0.038 C 
ATOM      4  C   LIG d   1       2.511  78.454 117.267  0.00  0.00     0.028 C 
ATOM      5  C   LIG d   1       2.012  77.434 118.285  0.00  0.00    -0.047 C 
ATOM      6  C   LIG d   1       0.527  77.119 117.993  0.00  0.00     0.091 C 
ENDROOT
BRANCH   1   7
ATOM      7  O   LIG d   1      -1.575  78.161 117.284  0.00  0.00    -0.368 OA
BRANCH   7   8
ATOM      8  C   LIG d   1      -1.517  78.213 115.837  0.00  0.00     0.119 C 
BRANCH   8   9
ATOM      9  C   LIG d   1      -2.617  79.182 115.364  0.00  0.00     0.028 C 
ATOM     10  C   LIG d   1      -2.342  79.742 113.959  0.00  0.00     0.006 C 
ENDBRANCH   8   9
BRANCH   8  11
ATOM     11  C   LIG d   1      -1.874  76.859 115.216  0.00  0.00     0.028 C 
ATOM     12  C   LIG d   1      -0.749  76.292 114.335  0.00  0.00     0.006 C 
ENDBRANCH   8  11
ENDBRANCH   7   8
ENDBRANCH   1   7
BRANCH   6  13
ATOM     13  N   LIG d   1      -0.063  76.192 118.994  0.00  0.00    -0.311 N 
ATOM     14  C   LIG d   1      -0.666  75.050 118.670  0.00  0.00     0.210 C 
ATOM     15  C   LIG d   1      -1.223  74.254 119.854  0.00  0.00     0.109 C 
ATOM     16  O   LIG d   1      -0.765  74.605 117.517  0.00  0.00    -0.276 OA
ATOM     17  H   LIG d   1      -0.001  76.461 119.957  0.00  0.00     0.149 HD
ENDBRANCH   6  13
BRANCH   5  18
ATOM     18  N   LIG d   1       2.884  76.247 118.191  0.00  0.00     0.381 N 
ATOM     19  H   LIG d   1       2.696  75.755 117.340  0.00  0.00    -0.090 HD
ATOM     20  H   LIG d   1       2.682  75.634 118.961  0.00  0.00    -0.090 HD
ATOM     21  H   LIG d   1       3.840  76.524 118.219  0.00  0.00    -0.090 HD
ENDBRANCH   5  18
BRANCH   3  22
ATOM     22  C   LIG d   1       2.272  80.794 116.816  0.00  0.00     0.382 C 
ATOM     23  O   LIG d   1       1.773  81.492 115.901  0.00  0.00    -0.241 OA
ATOM     24  O   LIG d   1       3.317  81.175 117.377  0.00  0.00    -0.241 OA
ENDBRANCH   3  22
TORSDOF 7
ENDMDL
MODEL 9
REMARK VINA RESULT:      -3.3      6.286      7.857
REMARK  7 active torsions:
REMARK  status: ('A' for Active; 'I' for Inactive)
REMARK    1  A    between atoms: C_2  and  C_3 
REMARK    2  A    between atoms: C_3  and  O_6 
REMARK    3  A    between atoms: C_3  and  C_4 
REMARK    4  A    between atoms: C_7  and  O_6 
REMARK    5  A    between atoms: C_9  and  C_10 
REMARK    6  A    between atoms: N_15  and  C_14 
REMARK    7  A    between atoms: N_20  and  C_19 
REMARK       I    between atoms: C_22  and  N_20 
ROOT
ATOM      1  C   LIG d   1       1.006  78.285 117.124  0.00  0.00     0.161 C 
ATOM      2  C   LIG d   1       1.223  79.630 117.467  0.00  0.00     0.016 C 
ATOM      3  C   LIG d   1       0.303  80.399 118.217  0.00  0.00     0.038 C 
ATOM      4  C   LIG d   1      -0.834  79.827 118.807  0.00  0.00     0.028 C 
ATOM      5  C   LIG d   1      -1.348  78.598 118.065  0.00  0.00    -0.047 C 
ATOM      6  C   LIG d   1      -0.176  77.613 117.853  0.00  0.00     0.091 C 
ENDROOT
BRANCH   1   7
ATOM      7  O   LIG d   1       2.216  77.528 117.328  0.00  0.00    -0.368 OA
BRANCH   7   8
ATOM      8  C   LIG d   1       3.075  77.978 118.404  0.00  0.00     0.119 C 
BRANCH   8   9
ATOM      9  C   LIG d   1       4.524  77.956 117.879  0.00  0.00     0.028 C 
ATOM     10  C   LIG d   1       4.628  78.436 116.422  0.00  0.00     0.006 C 
ENDBRANCH   8   9
BRANCH   8  11
ATOM     11  C   LIG d   1       3.055  76.997 119.580  0.00  0.00     0.028 C 
ATOM     12  C   LIG d   1       2.694  75.564 119.155  0.00  0.00     0.006 C 
ENDBRANCH   8  11
ENDBRANCH   7   8
ENDBRANCH   1   7
BRANCH   6  13
ATOM     13  N   LIG d   1      -0.574  76.421 117.060  0.00  0.00    -0.311 N 
ATOM     14  C   LIG d   1      -1.028  75.294 117.608  0.00  0.00     0.210 C 
ATOM     15  C   LIG d   1      -1.363  74.180 116.612  0.00  0.00     0.109 C 
ATOM     16  O   LIG d   1      -1.215  75.124 118.822  0.00  0.00    -0.276 OA
ATOM     17  H   LIG d   1      -0.484  76.483 116.065  0.00  0.00     0.149 HD
ENDBRANCH   6  13
BRANCH   5  18
ATOM     18  N   LIG d   1      -2.448  78.024 118.863  0.00  0.00     0.381 N 
ATOM     19  H   LIG d   1      -3.311  78.115 118.365  0.00  0.00    -0.090 HD
ATOM     20  H   LIG d   1      -2.526  78.535 119.724  0.00  0.00    -0.090 HD
ATOM     21  H   LIG d   1      -2.266  77.063 119.053  0.00  0.00    -0.090 HD
ENDBRANCH   5  18
BRANCH   3  22
ATOM     22  C   LIG d   1       0.497  81.765 118.349  0.00  0.00     0.382 C 
ATOM     23  O   LIG d   1      -0.099  82.399 119.254  0.00  0.00    -0.241 OA
ATOM     24  O   LIG d   1       1.226  82.380 117.548  0.00  0.00    -0.241 OA
ENDBRANCH   3  22
TORSDOF 7
ENDMDL
