MODEL 1
REMARK VINA RESULT:      -5.0      0.000      0.000
REMARK  7 active torsions:
REMARK  status: ('A' for Active; 'I' for Inactive)
REMARK    1  A    between atoms: C_2  and  C_3 
REMARK    2  A    between atoms: C_3  and  O_6 
REMARK    3  A    between atoms: C_3  and  C_4 
REMARK    4  A    between atoms: C_7  and  O_6 
REMARK    5  A    between atoms: C_9  and  C_10 
REMARK    6  A    between atoms: N_15  and  C_14 
REMARK    7  A    between atoms: N_20  and  C_19 
REMARK       I    between atoms: C_22  and  N_20 
ROOT
ATOM      1  C   LIG d   1       0.427  82.950 111.914  0.00  0.00     0.161 C 
ATOM      2  C   LIG d   1      -0.833  82.576 112.410  0.00  0.00     0.016 C 
ATOM      3  C   LIG d   1      -1.479  81.368 112.061  0.00  0.00     0.038 C 
ATOM      4  C   LIG d   1      -0.838  80.376 111.304  0.00  0.00     0.028 C 
ATOM      5  C   LIG d   1       0.233  80.926 110.368  0.00  0.00    -0.047 C 
ATOM      6  C   LIG d   1       1.190  81.831 111.176  0.00  0.00     0.091 C 
ENDROOT
BRANCH   1   7
ATOM      7  O   LIG d   1       1.233  83.486 112.982  0.00  0.00    -0.368 OA
BRANCH   7   8
ATOM      8  C   LIG d   1       1.912  82.516 113.817  0.00  0.00     0.119 C 
BRANCH   8   9
ATOM      9  C   LIG d   1       1.139  82.428 115.147  0.00  0.00     0.028 C 
ATOM     10  C   LIG d   1       0.954  80.978 115.624  0.00  0.00     0.006 C 
ENDBRANCH   8   9
BRANCH   8  11
ATOM     11  C   LIG d   1       3.317  82.992 114.195  0.00  0.00     0.028 C 
ATOM     12  C   LIG d   1       3.773  84.212 113.379  0.00  0.00     0.006 C 
ENDBRANCH   8  11
ENDBRANCH   7   8
ENDBRANCH   1   7
BRANCH   6  13
ATOM     13  N   LIG d   1       2.218  82.476 110.319  0.00  0.00    -0.311 N 
ATOM     14  C   LIG d   1       3.517  82.190 110.390  0.00  0.00     0.210 C 
ATOM     15  C   LIG d   1       4.408  82.985 109.430  0.00  0.00     0.109 C 
ATOM     16  O   LIG d   1       4.012  81.330 111.133  0.00  0.00    -0.276 OA
ATOM     17  H   LIG d   1       1.900  83.164 109.664  0.00  0.00     0.149 HD
ENDBRANCH   6  13
BRANCH   5  18
ATOM     18  N   LIG d   1       0.913  79.775 109.744  0.00  0.00     0.381 N 
ATOM     19  H   LIG d   1       1.643  79.447 110.345  0.00  0.00    -0.090 HD
ATOM     20  H   LIG d   1       1.327  80.072 108.878  0.00  0.00    -0.090 HD
ATOM     21  H   LIG d   1       0.259  79.043 109.575  0.00  0.00    -0.090 HD
ENDBRANCH   5  18
BRANCH   3  22
ATOM     22  C   LIG d   1      -2.798  81.161 112.436  0.00  0.00     0.382 C 
ATOM     23  O   LIG d   1      -3.365  80.077 112.159  0.00  0.00    -0.241 OA
ATOM     24  O   LIG d   1      -3.440  82.061 113.010  0.00  0.00    -0.241 OA
ENDBRANCH   3  22
TORSDOF 7
ENDMDL
MODEL 2
REMARK VINA RESULT:      -4.6      1.819      4.959
REMARK  7 active torsions:
REMARK  status: ('A' for Active; 'I' for Inactive)
REMARK    1  A    between atoms: C_2  and  C_3 
REMARK    2  A    between atoms: C_3  and  O_6 
REMARK    3  A    between atoms: C_3  and  C_4 
REMARK    4  A    between atoms: C_7  and  O_6 
REMARK    5  A    between atoms: C_9  and  C_10 
REMARK    6  A    between atoms: N_15  and  C_14 
REMARK    7  A    between atoms: N_20  and  C_19 
REMARK       I    between atoms: C_22  and  N_20 
ROOT
ATOM      1  C   LIG d   1       1.368  81.614 112.944  0.00  0.00     0.161 C 
ATOM      2  C   LIG d   1       2.504  82.311 112.500  0.00  0.00     0.016 C 
ATOM      3  C   LIG d   1       2.730  82.649 111.146  0.00  0.00     0.038 C 
ATOM      4  C   LIG d   1       1.755  82.444 110.158  0.00  0.00     0.028 C 
ATOM      5  C   LIG d   1       0.808  81.291 110.472  0.00  0.00    -0.047 C 
ATOM      6  C   LIG d   1       0.242  81.480 111.897  0.00  0.00     0.091 C 
ENDROOT
BRANCH   1   7
ATOM      7  O   LIG d   1       0.862  82.221 114.149  0.00  0.00    -0.368 OA
BRANCH   7   8
ATOM      8  C   LIG d   1       0.778  83.667 114.148  0.00  0.00     0.119 C 
BRANCH   8   9
ATOM      9  C   LIG d   1       1.288  84.162 115.515  0.00  0.00     0.028 C 
ATOM     10  C   LIG d   1       1.884  83.027 116.365  0.00  0.00     0.006 C 
ENDBRANCH   8   9
BRANCH   8  11
ATOM     11  C   LIG d   1      -0.677  84.140 114.062  0.00  0.00     0.028 C 
ATOM     12  C   LIG d   1      -1.662  83.159 114.717  0.00  0.00     0.006 C 
ENDBRANCH   8  11
ENDBRANCH   7   8
ENDBRANCH   1   7
BRANCH   6  13
ATOM     13  N   LIG d   1      -0.629  80.350 112.316  0.00  0.00    -0.311 N 
ATOM     14  C   LIG d   1      -1.956  80.368 112.205  0.00  0.00     0.210 C 
ATOM     15  C   LIG d   1      -2.664  79.109 112.714  0.00  0.00     0.109 C 
ATOM     16  O   LIG d   1      -2.612  81.294 111.704  0.00  0.00    -0.276 OA
ATOM     17  H   LIG d   1      -0.177  79.546 112.704  0.00  0.00     0.149 HD
ENDBRANCH   6  13
BRANCH   5  18
ATOM     18  N   LIG d   1      -0.238  81.277 109.431  0.00  0.00     0.381 N 
ATOM     19  H   LIG d   1      -0.682  82.172 109.386  0.00  0.00    -0.090 HD
ATOM     20  H   LIG d   1      -0.931  80.592 109.676  0.00  0.00    -0.090 HD
ATOM     21  H   LIG d   1       0.164  81.053 108.547  0.00  0.00    -0.090 HD
ENDBRANCH   5  18
BRANCH   3  22
ATOM     22  C   LIG d   1       3.959  83.163 110.762  0.00  0.00     0.382 C 
ATOM     23  O   LIG d   1       4.969  82.978 111.483  0.00  0.00    -0.241 OA
ATOM     24  O   LIG d   1       4.062  83.848 109.726  0.00  0.00    -0.241 OA
ENDBRANCH   3  22
TORSDOF 7
ENDMDL
MODEL 3
REMARK VINA RESULT:      -4.4      2.590      4.162
REMARK  7 active torsions:
REMARK  status: ('A' for Active; 'I' for Inactive)
REMARK    1  A    between atoms: C_2  and  C_3 
REMARK    2  A    between atoms: C_3  and  O_6 
REMARK    3  A    between atoms: C_3  and  C_4 
REMARK    4  A    between atoms: C_7  and  O_6 
REMARK    5  A    between atoms: C_9  and  C_10 
REMARK    6  A    between atoms: N_15  and  C_14 
REMARK    7  A    between atoms: N_20  and  C_19 
REMARK       I    between atoms: C_22  and  N_20 
ROOT
ATOM      1  C   LIG d   1      -0.745  81.599 111.645  0.00  0.00     0.161 C 
ATOM      2  C   LIG d   1      -1.243  80.293 111.507  0.00  0.00     0.016 C 
ATOM      3  C   LIG d   1      -2.136  79.699 112.429  0.00  0.00     0.038 C 
ATOM      4  C   LIG d   1      -2.714  80.431 113.477  0.00  0.00     0.028 C 
ATOM      5  C   LIG d   1      -1.853  81.599 113.947  0.00  0.00    -0.047 C 
ATOM      6  C   LIG d   1      -1.451  82.450 112.721  0.00  0.00     0.091 C 
ENDROOT
BRANCH   1   7
ATOM      7  O   LIG d   1      -0.782  82.273 110.371  0.00  0.00    -0.368 OA
BRANCH   7   8
ATOM      8  C   LIG d   1       0.499  82.499 109.733  0.00  0.00     0.119 C 
BRANCH   8   9
ATOM      9  C   LIG d   1       1.564  81.742 110.550  0.00  0.00     0.028 C 
ATOM     10  C   LIG d   1       2.212  80.597 109.753  0.00  0.00     0.006 C 
ENDBRANCH   8   9
BRANCH   8  11
ATOM     11  C   LIG d   1       0.905  83.974 109.805  0.00  0.00     0.028 C 
ATOM     12  C   LIG d   1       2.338  84.173 110.326  0.00  0.00     0.006 C 
ENDBRANCH   8  11
ENDBRANCH   7   8
ENDBRANCH   1   7
BRANCH   6  13
ATOM     13  N   LIG d   1      -0.538  83.566 113.082  0.00  0.00    -0.311 N 
ATOM     14  C   LIG d   1       0.610  83.393 113.734  0.00  0.00     0.210 C 
ATOM     15  C   LIG d   1       1.390  84.680 114.023  0.00  0.00     0.109 C 
ATOM     16  O   LIG d   1       1.073  82.293 114.072  0.00  0.00    -0.276 OA
ATOM     17  H   LIG d   1      -0.820  84.490 112.818  0.00  0.00     0.149 HD
ENDBRANCH   6  13
BRANCH   5  18
ATOM     18  N   LIG d   1      -2.634  82.355 114.945  0.00  0.00     0.381 N 
ATOM     19  H   LIG d   1      -2.294  83.294 115.000  0.00  0.00    -0.090 HD
ATOM     20  H   LIG d   1      -2.516  81.923 115.845  0.00  0.00    -0.090 HD
ATOM     21  H   LIG d   1      -3.598  82.357 114.693  0.00  0.00    -0.090 HD
ENDBRANCH   5  18
BRANCH   3  22
ATOM     22  C   LIG d   1      -2.428  78.348 112.329  0.00  0.00     0.382 C 
ATOM     23  O   LIG d   1      -1.648  77.499 112.825  0.00  0.00    -0.241 OA
ATOM     24  O   LIG d   1      -3.440  77.964 111.712  0.00  0.00    -0.241 OA
ENDBRANCH   3  22
TORSDOF 7
ENDMDL
MODEL 4
REMARK VINA RESULT:      -4.2      2.080      2.826
REMARK  7 active torsions:
REMARK  status: ('A' for Active; 'I' for Inactive)
REMARK    1  A    between atoms: C_2  and  C_3 
REMARK    2  A    between atoms: C_3  and  O_6 
REMARK    3  A    between atoms: C_3  and  C_4 
REMARK    4  A    between atoms: C_7  and  O_6 
REMARK    5  A    between atoms: C_9  and  C_10 
REMARK    6  A    between atoms: N_15  and  C_14 
REMARK    7  A    between atoms: N_20  and  C_19 
REMARK       I    between atoms: C_22  and  N_20 
ROOT
ATOM      1  C   LIG d   1      -1.565  82.319 112.174  0.00  0.00     0.161 C 
ATOM      2  C   LIG d   1      -2.307  81.228 112.657  0.00  0.00     0.016 C 
ATOM      3  C   LIG d   1      -2.064  79.890 112.270  0.00  0.00     0.038 C 
ATOM      4  C   LIG d   1      -0.956  79.535 111.486  0.00  0.00     0.028 C 
ATOM      5  C   LIG d   1      -0.480  80.655 110.568  0.00  0.00    -0.047 C 
ATOM      6  C   LIG d   1      -0.283  81.940 111.405  0.00  0.00     0.091 C 
ENDROOT
BRANCH   1   7
ATOM      7  O   LIG d   1      -1.252  83.215 113.259  0.00  0.00    -0.368 OA
BRANCH   7   8
ATOM      8  C   LIG d   1      -1.356  82.661 114.594  0.00  0.00     0.119 C 
BRANCH   8   9
ATOM      9  C   LIG d   1      -1.827  83.791 115.529  0.00  0.00     0.028 C 
ATOM     10  C   LIG d   1      -3.317  83.673 115.889  0.00  0.00     0.006 C 
ENDBRANCH   8   9
BRANCH   8  11
ATOM     11  C   LIG d   1       0.014  82.235 115.129  0.00  0.00     0.028 C 
ATOM     12  C   LIG d   1       0.031  80.785 115.637  0.00  0.00     0.006 C 
ENDBRANCH   8  11
ENDBRANCH   7   8
ENDBRANCH   1   7
BRANCH   6  13
ATOM     13  N   LIG d   1       0.102  83.107 110.569  0.00  0.00    -0.311 N 
ATOM     14  C   LIG d   1       1.365  83.426 110.293  0.00  0.00     0.210 C 
ATOM     15  C   LIG d   1       1.542  84.680 109.430  0.00  0.00     0.109 C 
ATOM     16  O   LIG d   1       2.355  82.772 110.653  0.00  0.00    -0.276 OA
ATOM     17  H   LIG d   1      -0.640  83.675 110.209  0.00  0.00     0.149 HD
ENDBRANCH   6  13
BRANCH   5  18
ATOM     18  N   LIG d   1       0.760  80.197 109.912  0.00  0.00     0.381 N 
ATOM     19  H   LIG d   1       0.598  79.321 109.458  0.00  0.00    -0.090 HD
ATOM     20  H   LIG d   1       1.468  80.064 110.612  0.00  0.00    -0.090 HD
ATOM     21  H   LIG d   1       1.063  80.873 109.246  0.00  0.00    -0.090 HD
ENDBRANCH   5  18
BRANCH   3  22
ATOM     22  C   LIG d   1      -2.957  78.896 112.637  0.00  0.00     0.382 C 
ATOM     23  O   LIG d   1      -3.372  78.078 111.781  0.00  0.00    -0.241 OA
ATOM     24  O   LIG d   1      -3.388  78.833 113.805  0.00  0.00    -0.241 OA
ENDBRANCH   3  22
TORSDOF 7
ENDMDL
MODEL 5
REMARK VINA RESULT:      -4.2      3.651      5.511
REMARK  7 active torsions:
REMARK  status: ('A' for Active; 'I' for Inactive)
REMARK    1  A    between atoms: C_2  and  C_3 
REMARK    2  A    between atoms: C_3  and  O_6 
REMARK    3  A    between atoms: C_3  and  C_4 
REMARK    4  A    between atoms: C_7  and  O_6 
REMARK    5  A    between atoms: C_9  and  C_10 
REMARK    6  A    between atoms: N_15  and  C_14 
REMARK    7  A    between atoms: N_20  and  C_19 
REMARK       I    between atoms: C_22  and  N_20 
ROOT
ATOM      1  C   LIG d   1      -0.609  80.322 114.329  0.00  0.00     0.161 C 
ATOM      2  C   LIG d   1      -0.726  81.613 113.788  0.00  0.00     0.016 C 
ATOM      3  C   LIG d   1      -1.349  81.883 112.547  0.00  0.00     0.038 C 
ATOM      4  C   LIG d   1      -2.034  80.890 111.830  0.00  0.00     0.028 C 
ATOM      5  C   LIG d   1      -1.507  79.483 112.089  0.00  0.00    -0.047 C 
ATOM      6  C   LIG d   1      -1.448  79.242 113.615  0.00  0.00     0.091 C 
ENDROOT
BRANCH   1   7
ATOM      7  O   LIG d   1      -0.923  80.352 115.736  0.00  0.00    -0.368 OA
BRANCH   7   8
ATOM      8  C   LIG d   1      -2.331  80.310 116.075  0.00  0.00     0.119 C 
BRANCH   8   9
ATOM      9  C   LIG d   1      -2.641  81.561 116.920  0.00  0.00     0.028 C 
ATOM     10  C   LIG d   1      -1.367  82.263 117.418  0.00  0.00     0.006 C 
ENDBRANCH   8   9
BRANCH   8  11
ATOM     11  C   LIG d   1      -2.649  79.118 116.984  0.00  0.00     0.028 C 
ATOM     12  C   LIG d   1      -1.388  78.415 117.509  0.00  0.00     0.006 C 
ENDBRANCH   8  11
ENDBRANCH   7   8
ENDBRANCH   1   7
BRANCH   6  13
ATOM     13  N   LIG d   1      -0.864  77.919 113.958  0.00  0.00    -0.311 N 
ATOM     14  C   LIG d   1      -1.567  76.788 113.968  0.00  0.00     0.210 C 
ATOM     15  C   LIG d   1      -0.777  75.539 114.369  0.00  0.00     0.109 C 
ATOM     16  O   LIG d   1      -2.763  76.696 113.652  0.00  0.00    -0.276 OA
ATOM     17  H   LIG d   1       0.108  77.898 114.197  0.00  0.00     0.149 HD
ENDBRANCH   6  13
BRANCH   5  18
ATOM     18  N   LIG d   1      -2.397  78.538 111.389  0.00  0.00     0.381 N 
ATOM     19  H   LIG d   1      -2.190  78.539 110.410  0.00  0.00    -0.090 HD
ATOM     20  H   LIG d   1      -3.349  78.837 111.510  0.00  0.00    -0.090 HD
ATOM     21  H   LIG d   1      -2.280  77.621 111.759  0.00  0.00    -0.090 HD
ENDBRANCH   5  18
BRANCH   3  22
ATOM     22  C   LIG d   1      -1.254  83.150 111.992  0.00  0.00     0.382 C 
ATOM     23  O   LIG d   1      -1.175  84.156 112.737  0.00  0.00    -0.241 OA
ATOM     24  O   LIG d   1      -1.293  83.303 110.756  0.00  0.00    -0.241 OA
ENDBRANCH   3  22
TORSDOF 7
ENDMDL
MODEL 6
REMARK VINA RESULT:      -4.2      1.882      4.879
REMARK  7 active torsions:
REMARK  status: ('A' for Active; 'I' for Inactive)
REMARK    1  A    between atoms: C_2  and  C_3 
REMARK    2  A    between atoms: C_3  and  O_6 
REMARK    3  A    between atoms: C_3  and  C_4 
REMARK    4  A    between atoms: C_7  and  O_6 
REMARK    5  A    between atoms: C_9  and  C_10 
REMARK    6  A    between atoms: N_15  and  C_14 
REMARK    7  A    between atoms: N_20  and  C_19 
REMARK       I    between atoms: C_22  and  N_20 
ROOT
ATOM      1  C   LIG d   1       1.748  81.523 113.166  0.00  0.00     0.161 C 
ATOM      2  C   LIG d   1       2.960  81.853 112.538  0.00  0.00     0.016 C 
ATOM      3  C   LIG d   1       3.055  82.228 111.178  0.00  0.00     0.038 C 
ATOM      4  C   LIG d   1       1.917  82.445 110.388  0.00  0.00     0.028 C 
ATOM      5  C   LIG d   1       0.704  81.636 110.837  0.00  0.00    -0.047 C 
ATOM      6  C   LIG d   1       0.483  81.861 112.350  0.00  0.00     0.091 C 
ENDROOT
BRANCH   1   7
ATOM      7  O   LIG d   1       1.687  82.143 114.466  0.00  0.00    -0.368 OA
BRANCH   7   8
ATOM      8  C   LIG d   1       2.955  82.346 115.136  0.00  0.00     0.119 C 
BRANCH   8   9
ATOM      9  C   LIG d   1       3.031  81.338 116.299  0.00  0.00     0.028 C 
ATOM     10  C   LIG d   1       4.258  80.416 116.197  0.00  0.00     0.006 C 
ENDBRANCH   8   9
BRANCH   8  11
ATOM     11  C   LIG d   1       3.024  83.728 115.792  0.00  0.00     0.028 C 
ATOM     12  C   LIG d   1       3.997  84.680 115.077  0.00  0.00     0.006 C 
ENDBRANCH   8  11
ENDBRANCH   7   8
ENDBRANCH   1   7
BRANCH   6  13
ATOM     13  N   LIG d   1      -0.632  81.041 112.888  0.00  0.00    -0.311 N 
ATOM     14  C   LIG d   1      -1.887  81.479 112.980  0.00  0.00     0.210 C 
ATOM     15  C   LIG d   1      -2.879  80.479 113.583  0.00  0.00     0.109 C 
ATOM     16  O   LIG d   1      -2.279  82.588 112.589  0.00  0.00    -0.276 OA
ATOM     17  H   LIG d   1      -0.409  80.115 113.200  0.00  0.00     0.149 HD
ENDBRANCH   6  13
BRANCH   5  18
ATOM     18  N   LIG d   1      -0.444  82.061 110.015  0.00  0.00     0.381 N 
ATOM     19  H   LIG d   1      -0.173  82.111 109.053  0.00  0.00    -0.090 HD
ATOM     20  H   LIG d   1      -0.733  82.978 110.309  0.00  0.00    -0.090 HD
ATOM     21  H   LIG d   1      -1.197  81.418 110.123  0.00  0.00    -0.090 HD
ENDBRANCH   5  18
BRANCH   3  22
ATOM     22  C   LIG d   1       4.302  82.350 110.584  0.00  0.00     0.382 C 
ATOM     23  O   LIG d   1       4.528  81.798 109.480  0.00  0.00    -0.241 OA
ATOM     24  O   LIG d   1       5.218  82.969 111.159  0.00  0.00    -0.241 OA
ENDBRANCH   3  22
TORSDOF 7
ENDMDL
MODEL 7
REMARK VINA RESULT:      -4.1      2.116      3.857
REMARK  7 active torsions:
REMARK  status: ('A' for Active; 'I' for Inactive)
REMARK    1  A    between atoms: C_2  and  C_3 
REMARK    2  A    between atoms: C_3  and  O_6 
REMARK    3  A    between atoms: C_3  and  C_4 
REMARK    4  A    between atoms: C_7  and  O_6 
REMARK    5  A    between atoms: C_9  and  C_10 
REMARK    6  A    between atoms: N_15  and  C_14 
REMARK    7  A    between atoms: N_20  and  C_19 
REMARK       I    between atoms: C_22  and  N_20 
ROOT
ATOM      1  C   LIG d   1       1.137  82.261 112.282  0.00  0.00     0.161 C 
ATOM      2  C   LIG d   1      -0.122  81.838 111.826  0.00  0.00     0.016 C 
ATOM      3  C   LIG d   1      -1.221  81.600 112.683  0.00  0.00     0.038 C 
ATOM      4  C   LIG d   1      -1.178  81.918 114.049  0.00  0.00     0.028 C 
ATOM      5  C   LIG d   1       0.228  81.870 114.638  0.00  0.00    -0.047 C 
ATOM      6  C   LIG d   1       1.171  82.719 113.755  0.00  0.00     0.091 C 
ENDROOT
BRANCH   1   7
ATOM      7  O   LIG d   1       1.644  83.301 111.422  0.00  0.00    -0.368 OA
BRANCH   7   8
ATOM      8  C   LIG d   1       2.588  82.884 110.406  0.00  0.00     0.119 C 
BRANCH   8   9
ATOM      9  C   LIG d   1       3.356  81.667 110.958  0.00  0.00     0.028 C 
ATOM     10  C   LIG d   1       4.112  80.901 109.860  0.00  0.00     0.006 C 
ENDBRANCH   8   9
BRANCH   8  11
ATOM     11  C   LIG d   1       3.653  83.957 110.160  0.00  0.00     0.028 C 
ATOM     12  C   LIG d   1       4.079  84.679 111.448  0.00  0.00     0.006 C 
ENDBRANCH   8  11
ENDBRANCH   7   8
ENDBRANCH   1   7
BRANCH   6  13
ATOM     13  N   LIG d   1       2.583  82.658 114.213  0.00  0.00    -0.311 N 
ATOM     14  C   LIG d   1       3.126  83.554 115.035  0.00  0.00     0.210 C 
ATOM     15  C   LIG d   1       4.603  83.317 115.366  0.00  0.00     0.109 C 
ATOM     16  O   LIG d   1       2.517  84.505 115.548  0.00  0.00    -0.276 OA
ATOM     17  H   LIG d   1       3.142  81.901 113.870  0.00  0.00     0.149 HD
ENDBRANCH   6  13
BRANCH   5  18
ATOM     18  N   LIG d   1       0.145  82.354 116.028  0.00  0.00     0.381 N 
ATOM     19  H   LIG d   1       0.603  81.709 116.640  0.00  0.00    -0.090 HD
ATOM     20  H   LIG d   1      -0.822  82.410 116.296  0.00  0.00    -0.090 HD
ATOM     21  H   LIG d   1       0.570  83.252 116.102  0.00  0.00    -0.090 HD
ENDBRANCH   5  18
BRANCH   3  22
ATOM     22  C   LIG d   1      -2.367  81.001 112.182  0.00  0.00     0.382 C 
ATOM     23  O   LIG d   1      -2.317  79.831 111.731  0.00  0.00    -0.241 OA
ATOM     24  O   LIG d   1      -3.440  81.632 112.133  0.00  0.00    -0.241 OA
ENDBRANCH   3  22
TORSDOF 7
ENDMDL
MODEL 8
REMARK VINA RESULT:      -4.1      2.517      5.973
REMARK  7 active torsions:
REMARK  status: ('A' for Active; 'I' for Inactive)
REMARK    1  A    between atoms: C_2  and  C_3 
REMARK    2  A    between atoms: C_3  and  O_6 
REMARK    3  A    between atoms: C_3  and  C_4 
REMARK    4  A    between atoms: C_7  and  O_6 
REMARK    5  A    between atoms: C_9  and  C_10 
REMARK    6  A    between atoms: N_15  and  C_14 
REMARK    7  A    between atoms: N_20  and  C_19 
REMARK       I    between atoms: C_22  and  N_20 
ROOT
ATOM      1  C   LIG d   1       0.398  82.584 112.727  0.00  0.00     0.161 C 
ATOM      2  C   LIG d   1       1.532  83.017 112.019  0.00  0.00     0.016 C 
ATOM      3  C   LIG d   1       2.857  82.723 112.417  0.00  0.00     0.038 C 
ATOM      4  C   LIG d   1       3.135  81.843 113.473  0.00  0.00     0.028 C 
ATOM      5  C   LIG d   1       2.031  81.787 114.523  0.00  0.00    -0.047 C 
ATOM      6  C   LIG d   1       0.680  81.530 113.818  0.00  0.00     0.091 C 
ENDROOT
BRANCH   1   7
ATOM      7  O   LIG d   1      -0.596  82.097 111.804  0.00  0.00    -0.368 OA
BRANCH   7   8
ATOM      8  C   LIG d   1      -0.458  80.716 111.388  0.00  0.00     0.119 C 
BRANCH   8   9
ATOM      9  C   LIG d   1      -0.217  80.713 109.866  0.00  0.00     0.028 C 
ATOM     10  C   LIG d   1       1.215  80.288 109.499  0.00  0.00     0.006 C 
ENDBRANCH   8   9
BRANCH   8  11
ATOM     11  C   LIG d   1      -1.761  79.938 111.594  0.00  0.00     0.028 C 
ATOM     12  C   LIG d   1      -2.875  80.796 112.216  0.00  0.00     0.006 C 
ENDBRANCH   8  11
ENDBRANCH   7   8
ENDBRANCH   1   7
BRANCH   6  13
ATOM     13  N   LIG d   1      -0.466  81.545 114.764  0.00  0.00    -0.311 N 
ATOM     14  C   LIG d   1      -0.982  80.444 115.308  0.00  0.00     0.210 C 
ATOM     15  C   LIG d   1      -2.173  80.682 116.242  0.00  0.00     0.109 C 
ATOM     16  O   LIG d   1      -0.547  79.297 115.131  0.00  0.00    -0.276 OA
ATOM     17  H   LIG d   1      -0.861  82.438 114.988  0.00  0.00     0.149 HD
ENDBRANCH   6  13
BRANCH   5  18
ATOM     18  N   LIG d   1       2.388  80.733 115.491  0.00  0.00     0.381 N 
ATOM     19  H   LIG d   1       3.360  80.510 115.406  0.00  0.00    -0.090 HD
ATOM     20  H   LIG d   1       1.855  79.907 115.283  0.00  0.00    -0.090 HD
ATOM     21  H   LIG d   1       2.190  81.039 116.418  0.00  0.00    -0.090 HD
ENDBRANCH   5  18
BRANCH   3  22
ATOM     22  C   LIG d   1       3.920  83.345 111.780  0.00  0.00     0.382 C 
ATOM     23  O   LIG d   1       3.927  84.592 111.645  0.00  0.00    -0.241 OA
ATOM     24  O   LIG d   1       4.850  82.670 111.299  0.00  0.00    -0.241 OA
ENDBRANCH   3  22
TORSDOF 7
ENDMDL
MODEL 9
REMARK VINA RESULT:      -4.0      2.532      5.976
REMARK  7 active torsions:
REMARK  status: ('A' for Active; 'I' for Inactive)
REMARK    1  A    between atoms: C_2  and  C_3 
REMARK    2  A    between atoms: C_3  and  O_6 
REMARK    3  A    between atoms: C_3  and  C_4 
REMARK    4  A    between atoms: C_7  and  O_6 
REMARK    5  A    between atoms: C_9  and  C_10 
REMARK    6  A    between atoms: N_15  and  C_14 
REMARK    7  A    between atoms: N_20  and  C_19 
REMARK       I    between atoms: C_22  and  N_20 
ROOT
ATOM      1  C   LIG d   1       0.071  83.307 111.658  0.00  0.00     0.161 C 
ATOM      2  C   LIG d   1       1.294  83.317 110.967  0.00  0.00     0.016 C 
ATOM      3  C   LIG d   1       2.552  83.338 111.612  0.00  0.00     0.038 C 
ATOM      4  C   LIG d   1       2.675  83.198 113.003  0.00  0.00     0.028 C 
ATOM      5  C   LIG d   1       1.455  83.693 113.772  0.00  0.00    -0.047 C 
ATOM      6  C   LIG d   1       0.187  83.042 113.174  0.00  0.00     0.091 C 
ENDROOT
BRANCH   1   7
ATOM      7  O   LIG d   1      -0.826  82.357 111.050  0.00  0.00    -0.368 OA
BRANCH   7   8
ATOM      8  C   LIG d   1      -0.383  80.978 111.041  0.00  0.00     0.119 C 
BRANCH   8   9
ATOM      9  C   LIG d   1      -0.074  80.601 109.579  0.00  0.00     0.028 C 
ATOM     10  C   LIG d   1       1.286  79.897 109.430  0.00  0.00     0.006 C 
ENDBRANCH   8   9
BRANCH   8  11
ATOM     11  C   LIG d   1      -1.505  80.030 111.476  0.00  0.00     0.028 C 
ATOM     12  C   LIG d   1      -2.692  80.766 112.116  0.00  0.00     0.006 C 
ENDBRANCH   8  11
ENDBRANCH   7   8
ENDBRANCH   1   7
BRANCH   6  13
ATOM     13  N   LIG d   1      -1.060  83.537 113.814  0.00  0.00    -0.311 N 
ATOM     14  C   LIG d   1      -1.622  82.954 114.871  0.00  0.00     0.210 C 
ATOM     15  C   LIG d   1      -2.915  83.614 115.362  0.00  0.00     0.109 C 
ATOM     16  O   LIG d   1      -1.156  81.974 115.470  0.00  0.00    -0.276 OA
ATOM     17  H   LIG d   1      -1.489  84.347 113.411  0.00  0.00     0.149 HD
ENDBRANCH   6  13
BRANCH   5  18
ATOM     18  N   LIG d   1       1.660  83.361 115.194  0.00  0.00     0.381 N 
ATOM     19  H   LIG d   1       1.303  84.098 115.769  0.00  0.00    -0.090 HD
ATOM     20  H   LIG d   1       2.645  83.273 115.369  0.00  0.00    -0.090 HD
ATOM     21  H   LIG d   1       1.199  82.505 115.414  0.00  0.00    -0.090 HD
ENDBRANCH   5  18
BRANCH   3  22
ATOM     22  C   LIG d   1       3.704  83.542 110.867  0.00  0.00     0.382 C 
ATOM     23  O   LIG d   1       4.783  83.009 111.222  0.00  0.00    -0.241 OA
ATOM     24  O   LIG d   1       3.686  84.287 109.868  0.00  0.00    -0.241 OA
ENDBRANCH   3  22
TORSDOF 7
ENDMDL
