MODEL 1
REMARK VINA RESULT:      -5.4      0.000      0.000
REMARK  7 active torsions:
REMARK  status: ('A' for Active; 'I' for Inactive)
REMARK    1  A    between atoms: C_2  and  C_3 
REMARK    2  A    between atoms: C_3  and  O_6 
REMARK    3  A    between atoms: C_3  and  C_4 
REMARK    4  A    between atoms: C_7  and  O_6 
REMARK    5  A    between atoms: C_9  and  C_10 
REMARK    6  A    between atoms: N_15  and  C_14 
REMARK    7  A    between atoms: N_20  and  C_19 
REMARK       I    between atoms: C_22  and  N_20 
ROOT
ATOM      1  C   LIG d   1       0.893  81.232 113.011  0.00  0.00     0.161 C 
ATOM      2  C   LIG d   1       1.844  82.191 112.625  0.00  0.00     0.016 C 
ATOM      3  C   LIG d   1       2.034  82.603 111.286  0.00  0.00     0.038 C 
ATOM      4  C   LIG d   1       1.175  82.193 110.255  0.00  0.00     0.028 C 
ATOM      5  C   LIG d   1       0.521  80.840 110.514  0.00  0.00    -0.047 C 
ATOM      6  C   LIG d   1      -0.128  80.856 111.917  0.00  0.00     0.091 C 
ENDROOT
BRANCH   1   7
ATOM      7  O   LIG d   1       0.211  81.673 114.202  0.00  0.00    -0.368 OA
BRANCH   7   8
ATOM      8  C   LIG d   1       0.426  80.876 115.392  0.00  0.00     0.119 C 
BRANCH   8   9
ATOM      9  C   LIG d   1      -0.955  80.418 115.899  0.00  0.00     0.028 C 
ATOM     10  C   LIG d   1      -0.980  78.925 116.266  0.00  0.00     0.006 C 
ENDBRANCH   8   9
BRANCH   8  11
ATOM     11  C   LIG d   1       1.016  81.718 116.528  0.00  0.00     0.028 C 
ATOM     12  C   LIG d   1       2.553  81.727 116.526  0.00  0.00     0.006 C 
ENDBRANCH   8  11
ENDBRANCH   7   8
ENDBRANCH   1   7
BRANCH   6  13
ATOM     13  N   LIG d   1      -0.717  79.542 112.284  0.00  0.00    -0.311 N 
ATOM     14  C   LIG d   1      -2.013  79.364 112.534  0.00  0.00     0.210 C 
ATOM     15  C   LIG d   1      -2.408  77.933 112.914  0.00  0.00     0.109 C 
ATOM     16  O   LIG d   1      -2.878  80.248 112.445  0.00  0.00    -0.276 OA
ATOM     17  H   LIG d   1      -0.091  78.763 112.348  0.00  0.00     0.149 HD
ENDBRANCH   6  13
BRANCH   5  18
ATOM     18  N   LIG d   1      -0.450  80.600 109.430  0.00  0.00     0.381 N 
ATOM     19  H   LIG d   1      -0.900  81.458 109.182  0.00  0.00    -0.090 HD
ATOM     20  H   LIG d   1      -1.151  79.959 109.758  0.00  0.00    -0.090 HD
ATOM     21  H   LIG d   1       0.014  80.218 108.635  0.00  0.00    -0.090 HD
ENDBRANCH   5  18
BRANCH   3  22
ATOM     22  C   LIG d   1       3.117  83.405 110.961  0.00  0.00     0.382 C 
ATOM     23  O   LIG d   1       4.037  83.584 111.794  0.00  0.00    -0.241 OA
ATOM     24  O   LIG d   1       3.164  83.988 109.861  0.00  0.00    -0.241 OA
ENDBRANCH   3  22
TORSDOF 7
ENDMDL
MODEL 2
REMARK VINA RESULT:      -5.1      1.836      4.862
REMARK  7 active torsions:
REMARK  status: ('A' for Active; 'I' for Inactive)
REMARK    1  A    between atoms: C_2  and  C_3 
REMARK    2  A    between atoms: C_3  and  O_6 
REMARK    3  A    between atoms: C_3  and  C_4 
REMARK    4  A    between atoms: C_7  and  O_6 
REMARK    5  A    between atoms: C_9  and  C_10 
REMARK    6  A    between atoms: N_15  and  C_14 
REMARK    7  A    between atoms: N_20  and  C_19 
REMARK       I    between atoms: C_22  and  N_20 
ROOT
ATOM      1  C   LIG d   1       0.774  81.611 113.370  0.00  0.00     0.161 C 
ATOM      2  C   LIG d   1      -0.341  80.973 113.938  0.00  0.00     0.016 C 
ATOM      3  C   LIG d   1      -1.300  80.262 113.181  0.00  0.00     0.038 C 
ATOM      4  C   LIG d   1      -1.127  80.011 111.812  0.00  0.00     0.028 C 
ATOM      5  C   LIG d   1      -0.277  81.062 111.106  0.00  0.00    -0.047 C 
ATOM      6  C   LIG d   1       1.040  81.253 111.892  0.00  0.00     0.091 C 
ENDROOT
BRANCH   1   7
ATOM      7  O   LIG d   1       1.946  81.348 114.167  0.00  0.00    -0.368 OA
BRANCH   7   8
ATOM      8  C   LIG d   1       1.772  81.434 115.603  0.00  0.00     0.119 C 
BRANCH   8   9
ATOM      9  C   LIG d   1       2.536  82.681 116.089  0.00  0.00     0.028 C 
ATOM     10  C   LIG d   1       1.962  83.248 117.398  0.00  0.00     0.006 C 
ENDBRANCH   8   9
BRANCH   8  11
ATOM     11  C   LIG d   1       2.433  80.250 116.316  0.00  0.00     0.028 C 
ATOM     12  C   LIG d   1       1.421  79.358 117.053  0.00  0.00     0.006 C 
ENDBRANCH   8  11
ENDBRANCH   7   8
ENDBRANCH   1   7
BRANCH   6  13
ATOM     13  N   LIG d   1       1.893  82.326 111.317  0.00  0.00    -0.311 N 
ATOM     14  C   LIG d   1       2.836  82.101 110.403  0.00  0.00     0.210 C 
ATOM     15  C   LIG d   1       3.614  83.344 109.959  0.00  0.00     0.109 C 
ATOM     16  O   LIG d   1       3.080  80.996 109.895  0.00  0.00    -0.276 OA
ATOM     17  H   LIG d   1       1.742  83.257 111.650  0.00  0.00     0.149 HD
ENDBRANCH   6  13
BRANCH   5  18
ATOM     18  N   LIG d   1      -0.062  80.605 109.721  0.00  0.00     0.381 N 
ATOM     19  H   LIG d   1      -0.049  79.605 109.692  0.00  0.00    -0.090 HD
ATOM     20  H   LIG d   1       0.829  80.941 109.402  0.00  0.00    -0.090 HD
ATOM     21  H   LIG d   1      -0.786  80.952 109.131  0.00  0.00    -0.090 HD
ENDBRANCH   5  18
BRANCH   3  22
ATOM     22  C   LIG d   1      -2.470  79.828 113.787  0.00  0.00     0.382 C 
ATOM     23  O   LIG d   1      -3.121  80.608 114.523  0.00  0.00    -0.241 OA
ATOM     24  O   LIG d   1      -2.857  78.653 113.643  0.00  0.00    -0.241 OA
ENDBRANCH   3  22
TORSDOF 7
ENDMDL
MODEL 3
REMARK VINA RESULT:      -4.9      1.675      4.961
REMARK  7 active torsions:
REMARK  status: ('A' for Active; 'I' for Inactive)
REMARK    1  A    between atoms: C_2  and  C_3 
REMARK    2  A    between atoms: C_3  and  O_6 
REMARK    3  A    between atoms: C_3  and  C_4 
REMARK    4  A    between atoms: C_7  and  O_6 
REMARK    5  A    between atoms: C_9  and  C_10 
REMARK    6  A    between atoms: N_15  and  C_14 
REMARK    7  A    between atoms: N_20  and  C_19 
REMARK       I    between atoms: C_22  and  N_20 
ROOT
ATOM      1  C   LIG d   1      -0.119  81.086 113.884  0.00  0.00     0.161 C 
ATOM      2  C   LIG d   1      -1.021  80.013 113.969  0.00  0.00     0.016 C 
ATOM      3  C   LIG d   1      -1.530  79.332 112.839  0.00  0.00     0.038 C 
ATOM      4  C   LIG d   1      -1.050  79.583 111.545  0.00  0.00     0.028 C 
ATOM      5  C   LIG d   1      -0.514  80.999 111.361  0.00  0.00    -0.047 C 
ATOM      6  C   LIG d   1       0.501  81.301 112.488  0.00  0.00     0.091 C 
ENDROOT
BRANCH   1   7
ATOM      7  O   LIG d   1       0.918  80.932 114.874  0.00  0.00    -0.368 OA
BRANCH   7   8
ATOM      8  C   LIG d   1       0.473  80.723 116.236  0.00  0.00     0.119 C 
BRANCH   8   9
ATOM      9  C   LIG d   1       0.907  81.951 117.060  0.00  0.00     0.028 C 
ATOM     10  C   LIG d   1       0.004  82.188 118.282  0.00  0.00     0.006 C 
ENDBRANCH   8   9
BRANCH   8  11
ATOM     11  C   LIG d   1       1.187  79.530 116.879  0.00  0.00     0.028 C 
ATOM     12  C   LIG d   1       0.254  78.331 117.111  0.00  0.00     0.006 C 
ENDBRANCH   8  11
ENDBRANCH   7   8
ENDBRANCH   1   7
BRANCH   6  13
ATOM     13  N   LIG d   1       1.011  82.696 112.432  0.00  0.00    -0.311 N 
ATOM     14  C   LIG d   1       2.184  83.027 111.894  0.00  0.00     0.210 C 
ATOM     15  C   LIG d   1       2.527  84.518 111.958  0.00  0.00     0.109 C 
ATOM     16  O   LIG d   1       2.958  82.231 111.341  0.00  0.00    -0.276 OA
ATOM     17  H   LIG d   1       0.433  83.409 112.830  0.00  0.00     0.149 HD
ENDBRANCH   6  13
BRANCH   5  18
ATOM     18  N   LIG d   1       0.078  81.080 110.013  0.00  0.00     0.381 N 
ATOM     19  H   LIG d   1      -0.623  81.346 109.350  0.00  0.00    -0.090 HD
ATOM     20  H   LIG d   1       0.427  80.174 109.756  0.00  0.00    -0.090 HD
ATOM     21  H   LIG d   1       0.820  81.745 110.005  0.00  0.00    -0.090 HD
ENDBRANCH   5  18
BRANCH   3  22
ATOM     22  C   LIG d   1      -2.559  78.416 112.994  0.00  0.00     0.382 C 
ATOM     23  O   LIG d   1      -2.759  77.543 112.115  0.00  0.00    -0.241 OA
ATOM     24  O   LIG d   1      -3.317  78.479 113.980  0.00  0.00    -0.241 OA
ENDBRANCH   3  22
TORSDOF 7
ENDMDL
MODEL 4
REMARK VINA RESULT:      -4.8      3.026      5.123
REMARK  7 active torsions:
REMARK  status: ('A' for Active; 'I' for Inactive)
REMARK    1  A    between atoms: C_2  and  C_3 
REMARK    2  A    between atoms: C_3  and  O_6 
REMARK    3  A    between atoms: C_3  and  C_4 
REMARK    4  A    between atoms: C_7  and  O_6 
REMARK    5  A    between atoms: C_9  and  C_10 
REMARK    6  A    between atoms: N_15  and  C_14 
REMARK    7  A    between atoms: N_20  and  C_19 
REMARK       I    between atoms: C_22  and  N_20 
ROOT
ATOM      1  C   LIG d   1      -2.434  80.282 114.704  0.00  0.00     0.161 C 
ATOM      2  C   LIG d   1      -2.172  80.951 113.497  0.00  0.00     0.016 C 
ATOM      3  C   LIG d   1      -0.876  81.345 113.091  0.00  0.00     0.038 C 
ATOM      4  C   LIG d   1       0.272  80.960 113.800  0.00  0.00     0.028 C 
ATOM      5  C   LIG d   1       0.016  80.722 115.284  0.00  0.00    -0.047 C 
ATOM      6  C   LIG d   1      -1.182  79.757 115.437  0.00  0.00     0.091 C 
ENDROOT
BRANCH   1   7
ATOM      7  O   LIG d   1      -3.369  79.209 114.476  0.00  0.00    -0.368 OA
BRANCH   7   8
ATOM      8  C   LIG d   1      -2.794  77.929 114.115  0.00  0.00     0.119 C 
BRANCH   8   9
ATOM      9  C   LIG d   1      -3.183  77.642 112.652  0.00  0.00     0.028 C 
ATOM     10  C   LIG d   1      -2.060  78.004 111.665  0.00  0.00     0.006 C 
ENDBRANCH   8   9
BRANCH   8  11
ATOM     11  C   LIG d   1      -3.414  76.790 114.931  0.00  0.00     0.028 C 
ATOM     12  C   LIG d   1      -2.394  75.705 115.309  0.00  0.00     0.006 C 
ENDBRANCH   8  11
ENDBRANCH   7   8
ENDBRANCH   1   7
BRANCH   6  13
ATOM     13  N   LIG d   1      -1.553  79.536 116.859  0.00  0.00    -0.311 N 
ATOM     14  C   LIG d   1      -1.075  78.533 117.595  0.00  0.00     0.210 C 
ATOM     15  C   LIG d   1      -1.602  78.477 119.032  0.00  0.00     0.109 C 
ATOM     16  O   LIG d   1      -0.239  77.705 117.203  0.00  0.00    -0.276 OA
ATOM     17  H   LIG d   1      -2.203  80.180 117.267  0.00  0.00     0.149 HD
ENDBRANCH   6  13
BRANCH   5  18
ATOM     18  N   LIG d   1       1.262  80.195 115.872  0.00  0.00     0.381 N 
ATOM     19  H   LIG d   1       1.416  80.612 116.768  0.00  0.00    -0.090 HD
ATOM     20  H   LIG d   1       2.031  80.438 115.274  0.00  0.00    -0.090 HD
ATOM     21  H   LIG d   1       1.203  79.205 115.965  0.00  0.00    -0.090 HD
ENDBRANCH   5  18
BRANCH   3  22
ATOM     22  C   LIG d   1      -0.723  82.166 111.985  0.00  0.00     0.382 C 
ATOM     23  O   LIG d   1      -0.458  81.667 110.864  0.00  0.00    -0.241 OA
ATOM     24  O   LIG d   1      -0.802  83.404 112.101  0.00  0.00    -0.241 OA
ENDBRANCH   3  22
TORSDOF 7
ENDMDL
MODEL 5
REMARK VINA RESULT:      -4.6      3.385      5.571
REMARK  7 active torsions:
REMARK  status: ('A' for Active; 'I' for Inactive)
REMARK    1  A    between atoms: C_2  and  C_3 
REMARK    2  A    between atoms: C_3  and  O_6 
REMARK    3  A    between atoms: C_3  and  C_4 
REMARK    4  A    between atoms: C_7  and  O_6 
REMARK    5  A    between atoms: C_9  and  C_10 
REMARK    6  A    between atoms: N_15  and  C_14 
REMARK    7  A    between atoms: N_20  and  C_19 
REMARK       I    between atoms: C_22  and  N_20 
ROOT
ATOM      1  C   LIG d   1      -1.785  79.825 116.039  0.00  0.00     0.161 C 
ATOM      2  C   LIG d   1      -2.310  80.240 114.804  0.00  0.00     0.016 C 
ATOM      3  C   LIG d   1      -1.521  80.794 113.769  0.00  0.00     0.038 C 
ATOM      4  C   LIG d   1      -0.121  80.832 113.844  0.00  0.00     0.028 C 
ATOM      5  C   LIG d   1       0.408  80.890 115.273  0.00  0.00    -0.047 C 
ATOM      6  C   LIG d   1      -0.244  79.756 116.096  0.00  0.00     0.091 C 
ENDROOT
BRANCH   1   7
ATOM      7  O   LIG d   1      -2.357  78.556 116.412  0.00  0.00    -0.368 OA
BRANCH   7   8
ATOM      8  C   LIG d   1      -1.622  77.379 115.998  0.00  0.00     0.119 C 
BRANCH   8   9
ATOM      9  C   LIG d   1      -2.492  76.628 114.970  0.00  0.00     0.028 C 
ATOM     10  C   LIG d   1      -2.828  75.196 115.420  0.00  0.00     0.006 C 
ENDBRANCH   8   9
BRANCH   8  11
ATOM     11  C   LIG d   1      -1.435  76.401 117.161  0.00  0.00     0.028 C 
ATOM     12  C   LIG d   1      -1.860  76.995 118.514  0.00  0.00     0.006 C 
ENDBRANCH   8  11
ENDBRANCH   7   8
ENDBRANCH   1   7
BRANCH   6  13
ATOM     13  N   LIG d   1       0.155  79.793 117.527  0.00  0.00    -0.311 N 
ATOM     14  C   LIG d   1       1.157  79.073 118.027  0.00  0.00     0.210 C 
ATOM     15  C   LIG d   1       1.389  79.244 119.532  0.00  0.00     0.109 C 
ATOM     16  O   LIG d   1       1.898  78.333 117.362  0.00  0.00    -0.276 OA
ATOM     17  H   LIG d   1      -0.373  80.390 118.133  0.00  0.00     0.149 HD
ENDBRANCH   6  13
BRANCH   5  18
ATOM     18  N   LIG d   1       1.878  80.786 115.208  0.00  0.00     0.381 N 
ATOM     19  H   LIG d   1       2.146  80.279 114.389  0.00  0.00    -0.090 HD
ATOM     20  H   LIG d   1       2.204  80.279 116.013  0.00  0.00    -0.090 HD
ATOM     21  H   LIG d   1       2.284  81.695 115.193  0.00  0.00    -0.090 HD
ENDBRANCH   5  18
BRANCH   3  22
ATOM     22  C   LIG d   1      -2.137  81.355 112.661  0.00  0.00     0.382 C 
ATOM     23  O   LIG d   1      -1.464  82.027 111.842  0.00  0.00    -0.241 OA
ATOM     24  O   LIG d   1      -3.365  81.235 112.492  0.00  0.00    -0.241 OA
ENDBRANCH   3  22
TORSDOF 7
ENDMDL
MODEL 6
REMARK VINA RESULT:      -4.6      3.238      5.550
REMARK  7 active torsions:
REMARK  status: ('A' for Active; 'I' for Inactive)
REMARK    1  A    between atoms: C_2  and  C_3 
REMARK    2  A    between atoms: C_3  and  O_6 
REMARK    3  A    between atoms: C_3  and  C_4 
REMARK    4  A    between atoms: C_7  and  O_6 
REMARK    5  A    between atoms: C_9  and  C_10 
REMARK    6  A    between atoms: N_15  and  C_14 
REMARK    7  A    between atoms: N_20  and  C_19 
REMARK       I    between atoms: C_22  and  N_20 
ROOT
ATOM      1  C   LIG d   1      -0.929  80.187 116.038  0.00  0.00     0.161 C 
ATOM      2  C   LIG d   1      -1.906  79.992 115.048  0.00  0.00     0.016 C 
ATOM      3  C   LIG d   1      -1.689  80.257 113.676  0.00  0.00     0.038 C 
ATOM      4  C   LIG d   1      -0.421  80.594 113.178  0.00  0.00     0.028 C 
ATOM      5  C   LIG d   1       0.467  81.291 114.204  0.00  0.00    -0.047 C 
ATOM      6  C   LIG d   1       0.493  80.449 115.499  0.00  0.00     0.091 C 
ENDROOT
BRANCH   1   7
ATOM      7  O   LIG d   1      -0.923  79.068 116.946  0.00  0.00    -0.368 OA
BRANCH   7   8
ATOM      8  C   LIG d   1      -1.545  77.852 116.463  0.00  0.00     0.119 C 
BRANCH   8   9
ATOM      9  C   LIG d   1      -2.198  77.154 117.672  0.00  0.00     0.028 C 
ATOM     10  C   LIG d   1      -3.405  77.934 118.219  0.00  0.00     0.006 C 
ENDBRANCH   8   9
BRANCH   8  11
ATOM     11  C   LIG d   1      -0.500  76.862 115.939  0.00  0.00     0.028 C 
ATOM     12  C   LIG d   1      -0.769  76.424 114.491  0.00  0.00     0.006 C 
ENDBRANCH   8  11
ENDBRANCH   7   8
ENDBRANCH   1   7
BRANCH   6  13
ATOM     13  N   LIG d   1       1.272  81.101 116.584  0.00  0.00    -0.311 N 
ATOM     14  C   LIG d   1       2.580  80.923 116.756  0.00  0.00     0.210 C 
ATOM     15  C   LIG d   1       3.184  81.674 117.948  0.00  0.00     0.109 C 
ATOM     16  O   LIG d   1       3.305  80.241 116.017  0.00  0.00    -0.276 OA
ATOM     17  H   LIG d   1       0.768  81.697 117.212  0.00  0.00     0.149 HD
ENDBRANCH   6  13
BRANCH   5  18
ATOM     18  N   LIG d   1       1.800  81.461 113.597  0.00  0.00     0.381 N 
ATOM     19  H   LIG d   1       2.507  81.367 114.299  0.00  0.00    -0.090 HD
ATOM     20  H   LIG d   1       1.864  82.384 113.206  0.00  0.00    -0.090 HD
ATOM     21  H   LIG d   1       1.939  80.779 112.883  0.00  0.00    -0.090 HD
ENDBRANCH   5  18
BRANCH   3  22
ATOM     22  C   LIG d   1      -2.756  80.224 112.792  0.00  0.00     0.382 C 
ATOM     23  O   LIG d   1      -3.131  79.131 112.302  0.00  0.00    -0.241 OA
ATOM     24  O   LIG d   1      -3.321  81.278 112.444  0.00  0.00    -0.241 OA
ENDBRANCH   3  22
TORSDOF 7
ENDMDL
MODEL 7
REMARK VINA RESULT:      -4.4      2.477      3.187
REMARK  7 active torsions:
REMARK  status: ('A' for Active; 'I' for Inactive)
REMARK    1  A    between atoms: C_2  and  C_3 
REMARK    2  A    between atoms: C_3  and  O_6 
REMARK    3  A    between atoms: C_3  and  C_4 
REMARK    4  A    between atoms: C_7  and  O_6 
REMARK    5  A    between atoms: C_9  and  C_10 
REMARK    6  A    between atoms: N_15  and  C_14 
REMARK    7  A    between atoms: N_20  and  C_19 
REMARK       I    between atoms: C_22  and  N_20 
ROOT
ATOM      1  C   LIG d   1      -0.697  79.814 114.406  0.00  0.00     0.161 C 
ATOM      2  C   LIG d   1      -0.469  81.041 113.760  0.00  0.00     0.016 C 
ATOM      3  C   LIG d   1      -0.854  81.300 112.424  0.00  0.00     0.038 C 
ATOM      4  C   LIG d   1      -1.633  80.394 111.688  0.00  0.00     0.028 C 
ATOM      5  C   LIG d   1      -1.451  78.944 112.125  0.00  0.00    -0.047 C 
ATOM      6  C   LIG d   1      -1.643  78.854 113.656  0.00  0.00     0.091 C 
ENDROOT
BRANCH   1   7
ATOM      7  O   LIG d   1      -1.178  80.049 115.744  0.00  0.00    -0.368 OA
BRANCH   7   8
ATOM      8  C   LIG d   1      -0.185  80.000 116.797  0.00  0.00     0.119 C 
BRANCH   8   9
ATOM      9  C   LIG d   1      -0.395  78.684 117.571  0.00  0.00     0.028 C 
ATOM     10  C   LIG d   1       0.657  77.620 117.217  0.00  0.00     0.006 C 
ENDBRANCH   8   9
BRANCH   8  11
ATOM     11  C   LIG d   1      -0.405  81.114 117.824  0.00  0.00     0.028 C 
ATOM     12  C   LIG d   1       0.630  82.244 117.709  0.00  0.00     0.006 C 
ENDBRANCH   8  11
ENDBRANCH   7   8
ENDBRANCH   1   7
BRANCH   6  13
ATOM     13  N   LIG d   1      -1.400  77.484 114.178  0.00  0.00    -0.311 N 
ATOM     14  C   LIG d   1      -2.295  76.800 114.888  0.00  0.00     0.210 C 
ATOM     15  C   LIG d   1      -1.834  75.413 115.346  0.00  0.00     0.109 C 
ATOM     16  O   LIG d   1      -3.438  77.198 115.156  0.00  0.00    -0.276 OA
ATOM     17  H   LIG d   1      -0.508  77.072 113.980  0.00  0.00     0.149 HD
ENDBRANCH   6  13
BRANCH   5  18
ATOM     18  N   LIG d   1      -2.420  78.127 111.371  0.00  0.00     0.381 N 
ATOM     19  H   LIG d   1      -2.692  77.334 111.917  0.00  0.00    -0.090 HD
ATOM     20  H   LIG d   1      -1.981  77.795 110.530  0.00  0.00    -0.090 HD
ATOM     21  H   LIG d   1      -3.222  78.673 111.143  0.00  0.00    -0.090 HD
ENDBRANCH   5  18
BRANCH   3  22
ATOM     22  C   LIG d   1      -0.425  82.460 111.798  0.00  0.00     0.382 C 
ATOM     23  O   LIG d   1      -0.952  83.561 112.087  0.00  0.00    -0.241 OA
ATOM     24  O   LIG d   1       0.453  82.413 110.915  0.00  0.00    -0.241 OA
ENDBRANCH   3  22
TORSDOF 7
ENDMDL
MODEL 8
REMARK VINA RESULT:      -4.2      4.835      6.653
REMARK  7 active torsions:
REMARK  status: ('A' for Active; 'I' for Inactive)
REMARK    1  A    between atoms: C_2  and  C_3 
REMARK    2  A    between atoms: C_3  and  O_6 
REMARK    3  A    between atoms: C_3  and  C_4 
REMARK    4  A    between atoms: C_7  and  O_6 
REMARK    5  A    between atoms: C_9  and  C_10 
REMARK    6  A    between atoms: N_15  and  C_14 
REMARK    7  A    between atoms: N_20  and  C_19 
REMARK       I    between atoms: C_22  and  N_20 
ROOT
ATOM      1  C   LIG d   1      -0.535  77.515 115.686  0.00  0.00     0.161 C 
ATOM      2  C   LIG d   1      -1.226  78.130 114.629  0.00  0.00     0.016 C 
ATOM      3  C   LIG d   1      -2.459  77.656 114.126  0.00  0.00     0.038 C 
ATOM      4  C   LIG d   1      -3.164  76.615 114.749  0.00  0.00     0.028 C 
ATOM      5  C   LIG d   1      -2.265  75.643 115.506  0.00  0.00    -0.047 C 
ATOM      6  C   LIG d   1      -1.342  76.446 116.451  0.00  0.00     0.091 C 
ENDROOT
BRANCH   1   7
ATOM      7  O   LIG d   1      -0.042  78.518 116.597  0.00  0.00    -0.368 OA
BRANCH   7   8
ATOM      8  C   LIG d   1      -0.406  79.887 116.294  0.00  0.00     0.119 C 
BRANCH   8   9
ATOM      9  C   LIG d   1       0.871  80.742 116.411  0.00  0.00     0.028 C 
ATOM     10  C   LIG d   1       2.121  79.893 116.698  0.00  0.00     0.006 C 
ENDBRANCH   8   9
BRANCH   8  11
ATOM     11  C   LIG d   1      -1.370  80.453 117.341  0.00  0.00     0.028 C 
ATOM     12  C   LIG d   1      -2.842  80.152 117.019  0.00  0.00     0.006 C 
ENDBRANCH   8  11
ENDBRANCH   7   8
ENDBRANCH   1   7
BRANCH   6  13
ATOM     13  N   LIG d   1      -0.372  75.577 117.168  0.00  0.00    -0.311 N 
ATOM     14  C   LIG d   1      -0.266  75.536 118.495  0.00  0.00     0.210 C 
ATOM     15  C   LIG d   1       0.812  74.587 119.029  0.00  0.00     0.109 C 
ATOM     16  O   LIG d   1      -0.984  76.171 119.282  0.00  0.00    -0.276 OA
ATOM     17  H   LIG d   1       0.229  75.005 116.608  0.00  0.00     0.149 HD
ENDBRANCH   6  13
BRANCH   5  18
ATOM     18  N   LIG d   1      -3.138  74.692 116.220  0.00  0.00     0.381 N 
ATOM     19  H   LIG d   1      -3.162  74.920 117.194  0.00  0.00    -0.090 HD
ATOM     20  H   LIG d   1      -2.760  73.767 116.121  0.00  0.00    -0.090 HD
ATOM     21  H   LIG d   1      -4.059  74.725 115.841  0.00  0.00    -0.090 HD
ENDBRANCH   5  18
BRANCH   3  22
ATOM     22  C   LIG d   1      -2.980  78.199 112.961  0.00  0.00     0.382 C 
ATOM     23  O   LIG d   1      -3.438  77.445 112.068  0.00  0.00    -0.241 OA
ATOM     24  O   LIG d   1      -2.958  79.430 112.773  0.00  0.00    -0.241 OA
ENDBRANCH   3  22
TORSDOF 7
ENDMDL
MODEL 9
REMARK VINA RESULT:      -4.2      3.197      5.363
REMARK  7 active torsions:
REMARK  status: ('A' for Active; 'I' for Inactive)
REMARK    1  A    between atoms: C_2  and  C_3 
REMARK    2  A    between atoms: C_3  and  O_6 
REMARK    3  A    between atoms: C_3  and  C_4 
REMARK    4  A    between atoms: C_7  and  O_6 
REMARK    5  A    between atoms: C_9  and  C_10 
REMARK    6  A    between atoms: N_15  and  C_14 
REMARK    7  A    between atoms: N_20  and  C_19 
REMARK       I    between atoms: C_22  and  N_20 
ROOT
ATOM      1  C   LIG d   1      -0.919  80.355 115.984  0.00  0.00     0.161 C 
ATOM      2  C   LIG d   1      -1.897  80.115 115.004  0.00  0.00     0.016 C 
ATOM      3  C   LIG d   1      -1.676  80.303 113.621  0.00  0.00     0.038 C 
ATOM      4  C   LIG d   1      -0.404  80.600 113.107  0.00  0.00     0.028 C 
ATOM      5  C   LIG d   1       0.489  81.343 114.095  0.00  0.00    -0.047 C 
ATOM      6  C   LIG d   1       0.506  80.572 115.434  0.00  0.00     0.091 C 
ENDROOT
BRANCH   1   7
ATOM      7  O   LIG d   1      -0.925  79.287 116.952  0.00  0.00    -0.368 OA
BRANCH   7   8
ATOM      8  C   LIG d   1      -1.377  79.636 118.283  0.00  0.00     0.119 C 
BRANCH   8   9
ATOM      9  C   LIG d   1      -1.788  81.121 118.258  0.00  0.00     0.028 C 
ATOM     10  C   LIG d   1      -2.382  81.588 119.598  0.00  0.00     0.006 C 
ENDBRANCH   8   9
BRANCH   8  11
ATOM     11  C   LIG d   1      -0.235  79.548 119.300  0.00  0.00     0.028 C 
ATOM     12  C   LIG d   1       0.856  78.549 118.886  0.00  0.00     0.006 C 
ENDBRANCH   8  11
ENDBRANCH   7   8
ENDBRANCH   1   7
BRANCH   6  13
ATOM     13  N   LIG d   1       1.290  81.275 116.483  0.00  0.00    -0.311 N 
ATOM     14  C   LIG d   1       2.586  81.058 116.700  0.00  0.00     0.210 C 
ATOM     15  C   LIG d   1       3.197  81.874 117.843  0.00  0.00     0.109 C 
ATOM     16  O   LIG d   1       3.295  80.290 116.032  0.00  0.00    -0.276 OA
ATOM     17  H   LIG d   1       0.800  81.939 117.051  0.00  0.00     0.149 HD
ENDBRANCH   6  13
BRANCH   5  18
ATOM     18  N   LIG d   1       1.825  81.467 113.481  0.00  0.00     0.381 N 
ATOM     19  H   LIG d   1       2.254  82.322 113.774  0.00  0.00    -0.090 HD
ATOM     20  H   LIG d   1       1.723  81.490 112.482  0.00  0.00    -0.090 HD
ATOM     21  H   LIG d   1       2.394  80.693 113.746  0.00  0.00    -0.090 HD
ENDBRANCH   5  18
BRANCH   3  22
ATOM     22  C   LIG d   1      -2.743  80.233 112.738  0.00  0.00     0.382 C 
ATOM     23  O   LIG d   1      -3.358  81.277 112.413  0.00  0.00    -0.241 OA
ATOM     24  O   LIG d   1      -3.126  79.133 112.297  0.00  0.00    -0.241 OA
ENDBRANCH   3  22
TORSDOF 7
ENDMDL
