MODEL 1
REMARK VINA RESULT:      -5.5      0.000      0.000
REMARK  7 active torsions:
REMARK  status: ('A' for Active; 'I' for Inactive)
REMARK    1  A    between atoms: C_2  and  C_3 
REMARK    2  A    between atoms: C_3  and  O_6 
REMARK    3  A    between atoms: C_3  and  C_4 
REMARK    4  A    between atoms: C_7  and  O_6 
REMARK    5  A    between atoms: C_9  and  C_10 
REMARK    6  A    between atoms: N_15  and  C_14 
REMARK    7  A    between atoms: N_20  and  C_19 
REMARK       I    between atoms: C_22  and  N_20 
ROOT
ATOM      1  C   LIG d   1      -0.167  80.645 111.126  0.00  0.00     0.161 C 
ATOM      2  C   LIG d   1      -0.779  79.401 110.902  0.00  0.00     0.016 C 
ATOM      3  C   LIG d   1      -1.798  78.874 111.729  0.00  0.00     0.038 C 
ATOM      4  C   LIG d   1      -2.382  79.629 112.757  0.00  0.00     0.028 C 
ATOM      5  C   LIG d   1      -1.451  80.689 113.335  0.00  0.00    -0.047 C 
ATOM      6  C   LIG d   1      -0.869  81.531 112.177  0.00  0.00     0.091 C 
ENDROOT
BRANCH   1   7
ATOM      7  O   LIG d   1      -0.034  81.357 109.880  0.00  0.00    -0.368 OA
BRANCH   7   8
ATOM      8  C   LIG d   1       1.319  81.663 109.462  0.00  0.00     0.119 C 
BRANCH   8   9
ATOM      9  C   LIG d   1       2.275  80.871 110.374  0.00  0.00     0.028 C 
ATOM     10  C   LIG d   1       3.111  79.841 109.595  0.00  0.00     0.006 C 
ENDBRANCH   8   9
BRANCH   8  11
ATOM     11  C   LIG d   1       1.656  83.137 109.702  0.00  0.00     0.028 C 
ATOM     12  C   LIG d   1       3.153  83.371 109.959  0.00  0.00     0.006 C 
ENDBRANCH   8  11
ENDBRANCH   7   8
ENDBRANCH   1   7
BRANCH   6  13
ATOM     13  N   LIG d   1       0.118  82.537 112.649  0.00  0.00    -0.311 N 
ATOM     14  C   LIG d   1      -0.196  83.804 112.913  0.00  0.00     0.210 C 
ATOM     15  C   LIG d   1       0.976  84.680 113.367  0.00  0.00     0.109 C 
ATOM     16  O   LIG d   1      -1.340  84.279 112.844  0.00  0.00    -0.276 OA
ATOM     17  H   LIG d   1       1.065  82.230 112.762  0.00  0.00     0.149 HD
ENDBRANCH   6  13
BRANCH   5  18
ATOM     18  N   LIG d   1      -2.230  81.490 114.298  0.00  0.00     0.381 N 
ATOM     19  H   LIG d   1      -3.185  81.192 114.291  0.00  0.00    -0.090 HD
ATOM     20  H   LIG d   1      -2.198  82.455 114.019  0.00  0.00    -0.090 HD
ATOM     21  H   LIG d   1      -1.850  81.388 115.213  0.00  0.00    -0.090 HD
ENDBRANCH   5  18
BRANCH   3  22
ATOM     22  C   LIG d   1      -2.214  77.563 111.556  0.00  0.00     0.382 C 
ATOM     23  O   LIG d   1      -1.509  76.764 110.894  0.00  0.00    -0.241 OA
ATOM     24  O   LIG d   1      -3.306  77.181 112.017  0.00  0.00    -0.241 OA
ENDBRANCH   3  22
TORSDOF 7
ENDMDL
MODEL 2
REMARK VINA RESULT:      -5.3      2.034      3.830
REMARK  7 active torsions:
REMARK  status: ('A' for Active; 'I' for Inactive)
REMARK    1  A    between atoms: C_2  and  C_3 
REMARK    2  A    between atoms: C_3  and  O_6 
REMARK    3  A    between atoms: C_3  and  C_4 
REMARK    4  A    between atoms: C_7  and  O_6 
REMARK    5  A    between atoms: C_9  and  C_10 
REMARK    6  A    between atoms: N_15  and  C_14 
REMARK    7  A    between atoms: N_20  and  C_19 
REMARK       I    between atoms: C_22  and  N_20 
ROOT
ATOM      1  C   LIG d   1      -2.179  81.565 112.371  0.00  0.00     0.161 C 
ATOM      2  C   LIG d   1      -2.700  80.389 112.935  0.00  0.00     0.016 C 
ATOM      3  C   LIG d   1      -2.132  79.110 112.731  0.00  0.00     0.038 C 
ATOM      4  C   LIG d   1      -0.907  78.940 112.069  0.00  0.00     0.028 C 
ATOM      5  C   LIG d   1      -0.611  80.038 111.053  0.00  0.00    -0.047 C 
ATOM      6  C   LIG d   1      -0.781  81.414 111.737  0.00  0.00     0.091 C 
ENDROOT
BRANCH   1   7
ATOM      7  O   LIG d   1      -2.172  82.617 113.356  0.00  0.00    -0.368 OA
BRANCH   7   8
ATOM      8  C   LIG d   1      -0.925  82.818 114.065  0.00  0.00     0.119 C 
BRANCH   8   9
ATOM      9  C   LIG d   1      -1.147  82.379 115.525  0.00  0.00     0.028 C 
ATOM     10  C   LIG d   1      -0.435  81.056 115.855  0.00  0.00     0.006 C 
ENDBRANCH   8   9
BRANCH   8  11
ATOM     11  C   LIG d   1      -0.558  84.303 114.139  0.00  0.00     0.028 C 
ATOM     12  C   LIG d   1       0.959  84.540 114.201  0.00  0.00     0.006 C 
ENDBRANCH   8  11
ENDBRANCH   7   8
ENDBRANCH   1   7
BRANCH   6  13
ATOM     13  N   LIG d   1      -0.591  82.545 110.791  0.00  0.00    -0.311 N 
ATOM     14  C   LIG d   1       0.573  83.168 110.618  0.00  0.00     0.210 C 
ATOM     15  C   LIG d   1       0.545  84.321 109.609  0.00  0.00     0.109 C 
ATOM     16  O   LIG d   1       1.633  82.856 111.180  0.00  0.00    -0.276 OA
ATOM     17  H   LIG d   1      -1.393  82.843 110.270  0.00  0.00     0.149 HD
ENDBRANCH   6  13
BRANCH   5  18
ATOM     18  N   LIG d   1       0.753  79.813 110.538  0.00  0.00     0.381 N 
ATOM     19  H   LIG d   1       1.189  79.071 111.048  0.00  0.00    -0.090 HD
ATOM     20  H   LIG d   1       1.294  80.649 110.674  0.00  0.00    -0.090 HD
ATOM     21  H   LIG d   1       0.719  79.585 109.569  0.00  0.00    -0.090 HD
ENDBRANCH   5  18
BRANCH   3  22
ATOM     22  C   LIG d   1      -2.811  77.980 113.160  0.00  0.00     0.382 C 
ATOM     23  O   LIG d   1      -3.023  77.036 112.361  0.00  0.00    -0.241 OA
ATOM     24  O   LIG d   1      -3.254  77.912 114.322  0.00  0.00    -0.241 OA
ENDBRANCH   3  22
TORSDOF 7
ENDMDL
MODEL 3
REMARK VINA RESULT:      -5.2      3.908      7.021
REMARK  7 active torsions:
REMARK  status: ('A' for Active; 'I' for Inactive)
REMARK    1  A    between atoms: C_2  and  C_3 
REMARK    2  A    between atoms: C_3  and  O_6 
REMARK    3  A    between atoms: C_3  and  C_4 
REMARK    4  A    between atoms: C_7  and  O_6 
REMARK    5  A    between atoms: C_9  and  C_10 
REMARK    6  A    between atoms: N_15  and  C_14 
REMARK    7  A    between atoms: N_20  and  C_19 
REMARK       I    between atoms: C_22  and  N_20 
ROOT
ATOM      1  C   LIG d   1      -1.127  78.741 114.889  0.00  0.00     0.161 C 
ATOM      2  C   LIG d   1      -1.401  80.099 114.656  0.00  0.00     0.016 C 
ATOM      3  C   LIG d   1      -1.902  80.592 113.430  0.00  0.00     0.038 C 
ATOM      4  C   LIG d   1      -2.310  79.735 112.397  0.00  0.00     0.028 C 
ATOM      5  C   LIG d   1      -1.581  78.396 112.398  0.00  0.00    -0.047 C 
ATOM      6  C   LIG d   1      -1.669  77.778 113.812  0.00  0.00     0.091 C 
ENDROOT
BRANCH   1   7
ATOM      7  O   LIG d   1      -1.613  78.361 116.192  0.00  0.00    -0.368 OA
BRANCH   7   8
ATOM      8  C   LIG d   1      -0.604  78.125 117.205  0.00  0.00     0.119 C 
BRANCH   8   9
ATOM      9  C   LIG d   1      -0.789  76.683 117.716  0.00  0.00     0.028 C 
ATOM     10  C   LIG d   1       0.536  75.904 117.766  0.00  0.00     0.006 C 
ENDBRANCH   8   9
BRANCH   8  11
ATOM     11  C   LIG d   1      -0.822  79.020 118.428  0.00  0.00     0.028 C 
ATOM     12  C   LIG d   1      -0.164  80.401 118.281  0.00  0.00     0.006 C 
ENDBRANCH   8  11
ENDBRANCH   7   8
ENDBRANCH   1   7
BRANCH   6  13
ATOM     13  N   LIG d   1      -0.910  76.505 113.923  0.00  0.00    -0.311 N 
ATOM     14  C   LIG d   1      -1.442  75.371 114.376  0.00  0.00     0.210 C 
ATOM     15  C   LIG d   1      -0.479  74.180 114.428  0.00  0.00     0.109 C 
ATOM     16  O   LIG d   1      -2.628  75.230 114.709  0.00  0.00    -0.276 OA
ATOM     17  H   LIG d   1       0.051  76.522 113.645  0.00  0.00     0.149 HD
ENDBRANCH   6  13
BRANCH   5  18
ATOM     18  N   LIG d   1      -2.199  77.551 111.359  0.00  0.00     0.381 N 
ATOM     19  H   LIG d   1      -1.492  77.203 110.741  0.00  0.00    -0.090 HD
ATOM     20  H   LIG d   1      -2.838  78.111 110.822  0.00  0.00    -0.090 HD
ATOM     21  H   LIG d   1      -2.685  76.791 111.781  0.00  0.00    -0.090 HD
ENDBRANCH   5  18
BRANCH   3  22
ATOM     22  C   LIG d   1      -1.963  81.960 113.213  0.00  0.00     0.382 C 
ATOM     23  O   LIG d   1      -2.124  82.742 114.182  0.00  0.00    -0.241 OA
ATOM     24  O   LIG d   1      -1.904  82.420 112.057  0.00  0.00    -0.241 OA
ENDBRANCH   3  22
TORSDOF 7
ENDMDL
MODEL 4
REMARK VINA RESULT:      -5.2      2.211      4.691
REMARK  7 active torsions:
REMARK  status: ('A' for Active; 'I' for Inactive)
REMARK    1  A    between atoms: C_2  and  C_3 
REMARK    2  A    between atoms: C_3  and  O_6 
REMARK    3  A    between atoms: C_3  and  C_4 
REMARK    4  A    between atoms: C_7  and  O_6 
REMARK    5  A    between atoms: C_9  and  C_10 
REMARK    6  A    between atoms: N_15  and  C_14 
REMARK    7  A    between atoms: N_20  and  C_19 
REMARK       I    between atoms: C_22  and  N_20 
ROOT
ATOM      1  C   LIG d   1      -0.654  82.226 112.255  0.00  0.00     0.161 C 
ATOM      2  C   LIG d   1      -1.648  81.374 112.766  0.00  0.00     0.016 C 
ATOM      3  C   LIG d   1      -1.741  80.002 112.438  0.00  0.00     0.038 C 
ATOM      4  C   LIG d   1      -0.749  79.349 111.691  0.00  0.00     0.028 C 
ATOM      5  C   LIG d   1       0.000  80.275 110.739  0.00  0.00    -0.047 C 
ATOM      6  C   LIG d   1       0.501  81.507 111.527  0.00  0.00     0.091 C 
ENDROOT
BRANCH   1   7
ATOM      7  O   LIG d   1      -0.139  83.062 113.309  0.00  0.00    -0.368 OA
BRANCH   7   8
ATOM      8  C   LIG d   1      -0.859  83.020 114.566  0.00  0.00     0.119 C 
BRANCH   8   9
ATOM      9  C   LIG d   1      -1.239  84.468 114.930  0.00  0.00     0.028 C 
ATOM     10  C   LIG d   1      -2.185  84.540 116.141  0.00  0.00     0.006 C 
ENDBRANCH   8   9
BRANCH   8  11
ATOM     11  C   LIG d   1       0.041  82.538 115.708  0.00  0.00     0.028 C 
ATOM     12  C   LIG d   1      -0.347  81.143 116.223  0.00  0.00     0.006 C 
ENDBRANCH   8  11
ENDBRANCH   7   8
ENDBRANCH   1   7
BRANCH   6  13
ATOM     13  N   LIG d   1       1.172  82.505 110.653  0.00  0.00    -0.311 N 
ATOM     14  C   LIG d   1       2.493  82.574 110.500  0.00  0.00     0.210 C 
ATOM     15  C   LIG d   1       2.978  83.690 109.569  0.00  0.00     0.109 C 
ATOM     16  O   LIG d   1       3.308  81.798 111.022  0.00  0.00    -0.276 OA
ATOM     17  H   LIG d   1       0.584  83.154 110.168  0.00  0.00     0.149 HD
ENDBRANCH   6  13
BRANCH   5  18
ATOM     18  N   LIG d   1       1.093  79.496 110.127  0.00  0.00     0.381 N 
ATOM     19  H   LIG d   1       1.927  79.599 110.670  0.00  0.00    -0.090 HD
ATOM     20  H   LIG d   1       1.271  79.855 109.206  0.00  0.00    -0.090 HD
ATOM     21  H   LIG d   1       0.838  78.535 110.074  0.00  0.00    -0.090 HD
ENDBRANCH   5  18
BRANCH   3  22
ATOM     22  C   LIG d   1      -2.857  79.276 112.827  0.00  0.00     0.382 C 
ATOM     23  O   LIG d   1      -3.357  79.456 113.963  0.00  0.00    -0.241 OA
ATOM     24  O   LIG d   1      -3.343  78.413 112.072  0.00  0.00    -0.241 OA
ENDBRANCH   3  22
TORSDOF 7
ENDMDL
MODEL 5
REMARK VINA RESULT:      -5.2      2.687      5.859
REMARK  7 active torsions:
REMARK  status: ('A' for Active; 'I' for Inactive)
REMARK    1  A    between atoms: C_2  and  C_3 
REMARK    2  A    between atoms: C_3  and  O_6 
REMARK    3  A    between atoms: C_3  and  C_4 
REMARK    4  A    between atoms: C_7  and  O_6 
REMARK    5  A    between atoms: C_9  and  C_10 
REMARK    6  A    between atoms: N_15  and  C_14 
REMARK    7  A    between atoms: N_20  and  C_19 
REMARK       I    between atoms: C_22  and  N_20 
ROOT
ATOM      1  C   LIG d   1       0.258  80.970 112.865  0.00  0.00     0.161 C 
ATOM      2  C   LIG d   1       1.165  81.906 112.341  0.00  0.00     0.016 C 
ATOM      3  C   LIG d   1       1.438  82.036 110.960  0.00  0.00     0.038 C 
ATOM      4  C   LIG d   1       0.706  81.335 109.990  0.00  0.00     0.028 C 
ATOM      5  C   LIG d   1       0.137  80.015 110.498  0.00  0.00    -0.047 C 
ATOM      6  C   LIG d   1      -0.632  80.273 111.814  0.00  0.00     0.091 C 
ENDROOT
BRANCH   1   7
ATOM      7  O   LIG d   1      -0.557  81.592 113.878  0.00  0.00    -0.368 OA
BRANCH   7   8
ATOM      8  C   LIG d   1      -0.037  81.548 115.230  0.00  0.00     0.119 C 
BRANCH   8   9
ATOM      9  C   LIG d   1      -0.441  80.191 115.837  0.00  0.00     0.028 C 
ATOM     10  C   LIG d   1      -0.284  80.162 117.366  0.00  0.00     0.006 C 
ENDBRANCH   8   9
BRANCH   8  11
ATOM     11  C   LIG d   1      -0.704  82.603 116.117  0.00  0.00     0.028 C 
ATOM     12  C   LIG d   1      -1.797  83.395 115.383  0.00  0.00     0.006 C 
ENDBRANCH   8  11
ENDBRANCH   7   8
ENDBRANCH   1   7
BRANCH   6  13
ATOM     13  N   LIG d   1      -1.150  79.021 112.423  0.00  0.00    -0.311 N 
ATOM     14  C   LIG d   1      -2.399  78.882 112.864  0.00  0.00     0.210 C 
ATOM     15  C   LIG d   1      -2.721  77.514 113.475  0.00  0.00     0.109 C 
ATOM     16  O   LIG d   1      -3.280  79.751 112.778  0.00  0.00    -0.276 OA
ATOM     17  H   LIG d   1      -0.511  78.254 112.503  0.00  0.00     0.149 HD
ENDBRANCH   6  13
BRANCH   5  18
ATOM     18  N   LIG d   1      -0.716  79.458 109.431  0.00  0.00     0.381 N 
ATOM     19  H   LIG d   1      -0.881  78.486 109.602  0.00  0.00    -0.090 HD
ATOM     20  H   LIG d   1      -0.236  79.546 108.552  0.00  0.00    -0.090 HD
ATOM     21  H   LIG d   1      -1.582  79.948 109.395  0.00  0.00    -0.090 HD
ENDBRANCH   5  18
BRANCH   3  22
ATOM     22  C   LIG d   1       2.482  82.846 110.540  0.00  0.00     0.382 C 
ATOM     23  O   LIG d   1       3.616  82.730 111.064  0.00  0.00    -0.241 OA
ATOM     24  O   LIG d   1       2.294  83.721 109.674  0.00  0.00    -0.241 OA
ENDBRANCH   3  22
TORSDOF 7
ENDMDL
MODEL 6
REMARK VINA RESULT:      -4.9      2.398      5.596
REMARK  7 active torsions:
REMARK  status: ('A' for Active; 'I' for Inactive)
REMARK    1  A    between atoms: C_2  and  C_3 
REMARK    2  A    between atoms: C_3  and  O_6 
REMARK    3  A    between atoms: C_3  and  C_4 
REMARK    4  A    between atoms: C_7  and  O_6 
REMARK    5  A    between atoms: C_9  and  C_10 
REMARK    6  A    between atoms: N_15  and  C_14 
REMARK    7  A    between atoms: N_20  and  C_19 
REMARK       I    between atoms: C_22  and  N_20 
ROOT
ATOM      1  C   LIG d   1      -2.375  80.016 113.011  0.00  0.00     0.161 C 
ATOM      2  C   LIG d   1      -2.007  81.356 112.810  0.00  0.00     0.016 C 
ATOM      3  C   LIG d   1      -1.069  82.036 113.621  0.00  0.00     0.038 C 
ATOM      4  C   LIG d   1      -0.319  81.371 114.603  0.00  0.00     0.028 C 
ATOM      5  C   LIG d   1      -1.021  80.144 115.174  0.00  0.00    -0.047 C 
ATOM      6  C   LIG d   1      -1.486  79.243 114.007  0.00  0.00     0.091 C 
ENDROOT
BRANCH   1   7
ATOM      7  O   LIG d   1      -2.425  79.328 111.745  0.00  0.00    -0.368 OA
BRANCH   7   8
ATOM      8  C   LIG d   1      -1.226  78.610 111.362  0.00  0.00     0.119 C 
BRANCH   8   9
ATOM      9  C   LIG d   1      -0.688  79.262 110.074  0.00  0.00     0.028 C 
ATOM     10  C   LIG d   1       0.463  80.244 110.350  0.00  0.00     0.006 C 
ENDBRANCH   8   9
BRANCH   8  11
ATOM     11  C   LIG d   1      -1.542  77.160 110.982  0.00  0.00     0.028 C 
ATOM     12  C   LIG d   1      -0.287  76.356 110.607  0.00  0.00     0.006 C 
ENDBRANCH   8  11
ENDBRANCH   7   8
ENDBRANCH   1   7
BRANCH   6  13
ATOM     13  N   LIG d   1      -2.256  78.061 114.474  0.00  0.00    -0.311 N 
ATOM     14  C   LIG d   1      -1.706  76.869 114.697  0.00  0.00     0.210 C 
ATOM     15  C   LIG d   1      -2.683  75.782 115.156  0.00  0.00     0.109 C 
ATOM     16  O   LIG d   1      -0.496  76.616 114.590  0.00  0.00    -0.276 OA
ATOM     17  H   LIG d   1      -3.239  78.185 114.618  0.00  0.00     0.149 HD
ENDBRANCH   6  13
BRANCH   5  18
ATOM     18  N   LIG d   1      -0.074  79.470 116.082  0.00  0.00     0.381 N 
ATOM     19  H   LIG d   1      -0.548  79.186 116.916  0.00  0.00    -0.090 HD
ATOM     20  H   LIG d   1       0.649  80.120 116.337  0.00  0.00    -0.090 HD
ATOM     21  H   LIG d   1       0.326  78.677 115.631  0.00  0.00    -0.090 HD
ENDBRANCH   5  18
BRANCH   3  22
ATOM     22  C   LIG d   1      -0.904  83.405 113.481  0.00  0.00     0.382 C 
ATOM     23  O   LIG d   1      -0.392  84.073 114.411  0.00  0.00    -0.241 OA
ATOM     24  O   LIG d   1      -1.300  83.987 112.453  0.00  0.00    -0.241 OA
ENDBRANCH   3  22
TORSDOF 7
ENDMDL
MODEL 7
REMARK VINA RESULT:      -4.9      2.705      4.488
REMARK  7 active torsions:
REMARK  status: ('A' for Active; 'I' for Inactive)
REMARK    1  A    between atoms: C_2  and  C_3 
REMARK    2  A    between atoms: C_3  and  O_6 
REMARK    3  A    between atoms: C_3  and  C_4 
REMARK    4  A    between atoms: C_7  and  O_6 
REMARK    5  A    between atoms: C_9  and  C_10 
REMARK    6  A    between atoms: N_15  and  C_14 
REMARK    7  A    between atoms: N_20  and  C_19 
REMARK       I    between atoms: C_22  and  N_20 
ROOT
ATOM      1  C   LIG d   1      -1.308  80.015 113.850  0.00  0.00     0.161 C 
ATOM      2  C   LIG d   1      -1.704  78.855 114.537  0.00  0.00     0.016 C 
ATOM      3  C   LIG d   1      -2.038  77.643 113.890  0.00  0.00     0.038 C 
ATOM      4  C   LIG d   1      -1.852  77.463 112.511  0.00  0.00     0.028 C 
ATOM      5  C   LIG d   1      -1.936  78.760 111.714  0.00  0.00    -0.047 C 
ATOM      6  C   LIG d   1      -0.993  79.804 112.355  0.00  0.00     0.091 C 
ENDROOT
BRANCH   1   7
ATOM      7  O   LIG d   1      -0.184  80.619 114.519  0.00  0.00    -0.368 OA
BRANCH   7   8
ATOM      8  C   LIG d   1      -0.411  81.932 115.088  0.00  0.00     0.119 C 
BRANCH   8   9
ATOM      9  C   LIG d   1       0.841  82.784 114.801  0.00  0.00     0.028 C 
ATOM     10  C   LIG d   1       0.492  84.156 114.200  0.00  0.00     0.006 C 
ENDBRANCH   8   9
BRANCH   8  11
ATOM     11  C   LIG d   1      -0.516  81.868 116.615  0.00  0.00     0.028 C 
ATOM     12  C   LIG d   1       0.236  80.669 117.214  0.00  0.00     0.006 C 
ENDBRANCH   8  11
ENDBRANCH   7   8
ENDBRANCH   1   7
BRANCH   6  13
ATOM     13  N   LIG d   1      -1.077  81.129 111.687  0.00  0.00    -0.311 N 
ATOM     14  C   LIG d   1      -0.009  81.820 111.291  0.00  0.00     0.210 C 
ATOM     15  C   LIG d   1      -0.318  83.173 110.642  0.00  0.00     0.109 C 
ATOM     16  O   LIG d   1       1.163  81.427 111.388  0.00  0.00    -0.276 OA
ATOM     17  H   LIG d   1      -1.992  81.509 111.540  0.00  0.00     0.149 HD
ENDBRANCH   6  13
BRANCH   5  18
ATOM     18  N   LIG d   1      -1.588  78.447 110.316  0.00  0.00     0.381 N 
ATOM     19  H   LIG d   1      -1.647  79.276 109.758  0.00  0.00    -0.090 HD
ATOM     20  H   LIG d   1      -2.248  77.779 109.958  0.00  0.00    -0.090 HD
ATOM     21  H   LIG d   1      -0.666  78.072 110.269  0.00  0.00    -0.090 HD
ENDBRANCH   5  18
BRANCH   3  22
ATOM     22  C   LIG d   1      -2.602  76.607 114.620  0.00  0.00     0.382 C 
ATOM     23  O   LIG d   1      -2.512  76.600 115.871  0.00  0.00    -0.241 OA
ATOM     24  O   LIG d   1      -3.162  75.658 114.039  0.00  0.00    -0.241 OA
ENDBRANCH   3  22
TORSDOF 7
ENDMDL
MODEL 8
REMARK VINA RESULT:      -4.8      1.921      4.806
REMARK  7 active torsions:
REMARK  status: ('A' for Active; 'I' for Inactive)
REMARK    1  A    between atoms: C_2  and  C_3 
REMARK    2  A    between atoms: C_3  and  O_6 
REMARK    3  A    between atoms: C_3  and  C_4 
REMARK    4  A    between atoms: C_7  and  O_6 
REMARK    5  A    between atoms: C_9  and  C_10 
REMARK    6  A    between atoms: N_15  and  C_14 
REMARK    7  A    between atoms: N_20  and  C_19 
REMARK       I    between atoms: C_22  and  N_20 
ROOT
ATOM      1  C   LIG d   1      -1.219  81.886 112.189  0.00  0.00     0.161 C 
ATOM      2  C   LIG d   1      -1.221  83.030 113.005  0.00  0.00     0.016 C 
ATOM      3  C   LIG d   1      -0.897  83.004 114.381  0.00  0.00     0.038 C 
ATOM      4  C   LIG d   1      -0.399  81.851 115.004  0.00  0.00     0.028 C 
ATOM      5  C   LIG d   1      -0.860  80.557 114.341  0.00  0.00    -0.047 C 
ATOM      6  C   LIG d   1      -0.570  80.639 112.825  0.00  0.00     0.091 C 
ENDROOT
BRANCH   1   7
ATOM      7  O   LIG d   1      -0.591  82.188 110.926  0.00  0.00    -0.368 OA
BRANCH   7   8
ATOM      8  C   LIG d   1       0.847  82.019 110.873  0.00  0.00     0.119 C 
BRANCH   8   9
ATOM      9  C   LIG d   1       1.474  83.422 110.761  0.00  0.00     0.028 C 
ATOM     10  C   LIG d   1       2.308  83.792 111.999  0.00  0.00     0.006 C 
ENDBRANCH   8   9
BRANCH   8  11
ATOM     11  C   LIG d   1       1.274  81.281 109.600  0.00  0.00     0.028 C 
ATOM     12  C   LIG d   1       2.231  80.112 109.882  0.00  0.00     0.006 C 
ENDBRANCH   8  11
ENDBRANCH   7   8
ENDBRANCH   1   7
BRANCH   6  13
ATOM     13  N   LIG d   1      -1.067  79.448 112.088  0.00  0.00    -0.311 N 
ATOM     14  C   LIG d   1      -2.345  79.069 112.082  0.00  0.00     0.210 C 
ATOM     15  C   LIG d   1      -2.640  77.801 111.275  0.00  0.00     0.109 C 
ATOM     16  O   LIG d   1      -3.266  79.682 112.643  0.00  0.00    -0.276 OA
ATOM     17  H   LIG d   1      -0.392  78.911 111.581  0.00  0.00     0.149 HD
ENDBRANCH   6  13
BRANCH   5  18
ATOM     18  N   LIG d   1      -0.158  79.442 115.005  0.00  0.00     0.381 N 
ATOM     19  H   LIG d   1      -0.721  79.083 115.750  0.00  0.00    -0.090 HD
ATOM     20  H   LIG d   1       0.701  79.785 115.395  0.00  0.00    -0.090 HD
ATOM     21  H   LIG d   1       0.032  78.719 114.346  0.00  0.00    -0.090 HD
ENDBRANCH   5  18
BRANCH   3  22
ATOM     22  C   LIG d   1      -1.109  84.133 115.157  0.00  0.00     0.382 C 
ATOM     23  O   LIG d   1      -0.183  84.585 115.873  0.00  0.00    -0.241 OA
ATOM     24  O   LIG d   1      -2.228  84.680 115.185  0.00  0.00    -0.241 OA
ENDBRANCH   3  22
TORSDOF 7
ENDMDL
MODEL 9
REMARK VINA RESULT:      -4.8      3.915      5.806
REMARK  7 active torsions:
REMARK  status: ('A' for Active; 'I' for Inactive)
REMARK    1  A    between atoms: C_2  and  C_3 
REMARK    2  A    between atoms: C_3  and  O_6 
REMARK    3  A    between atoms: C_3  and  C_4 
REMARK    4  A    between atoms: C_7  and  O_6 
REMARK    5  A    between atoms: C_9  and  C_10 
REMARK    6  A    between atoms: N_15  and  C_14 
REMARK    7  A    between atoms: N_20  and  C_19 
REMARK       I    between atoms: C_22  and  N_20 
ROOT
ATOM      1  C   LIG d   1      -0.849  79.075 114.868  0.00  0.00     0.161 C 
ATOM      2  C   LIG d   1      -1.255  79.121 113.524  0.00  0.00     0.016 C 
ATOM      3  C   LIG d   1      -2.102  78.156 112.933  0.00  0.00     0.038 C 
ATOM      4  C   LIG d   1      -2.727  77.154 113.691  0.00  0.00     0.028 C 
ATOM      5  C   LIG d   1      -1.948  76.769 114.945  0.00  0.00    -0.047 C 
ATOM      6  C   LIG d   1      -1.609  78.052 115.738  0.00  0.00     0.091 C 
ENDROOT
BRANCH   1   7
ATOM      7  O   LIG d   1      -0.935  80.390 115.451  0.00  0.00    -0.368 OA
BRANCH   7   8
ATOM      8  C   LIG d   1       0.281  81.178 115.429  0.00  0.00     0.119 C 
BRANCH   8   9
ATOM      9  C   LIG d   1       0.809  81.255 116.874  0.00  0.00     0.028 C 
ATOM     10  C   LIG d   1      -0.323  81.224 117.915  0.00  0.00     0.006 C 
ENDBRANCH   8   9
BRANCH   8  11
ATOM     11  C   LIG d   1      -0.002  82.627 115.022  0.00  0.00     0.028 C 
ATOM     12  C   LIG d   1      -1.494  82.896 114.772  0.00  0.00     0.006 C 
ENDBRANCH   8  11
ENDBRANCH   7   8
ENDBRANCH   1   7
BRANCH   6  13
ATOM     13  N   LIG d   1      -0.775  77.773 116.936  0.00  0.00    -0.311 N 
ATOM     14  C   LIG d   1      -1.284  77.539 118.145  0.00  0.00     0.210 C 
ATOM     15  C   LIG d   1      -0.247  77.295 119.246  0.00  0.00     0.109 C 
ATOM     16  O   LIG d   1      -2.495  77.480 118.403  0.00  0.00    -0.276 OA
ATOM     17  H   LIG d   1       0.218  77.771 116.811  0.00  0.00     0.149 HD
ENDBRANCH   6  13
BRANCH   5  18
ATOM     18  N   LIG d   1      -2.777  75.819 115.709  0.00  0.00     0.381 N 
ATOM     19  H   LIG d   1      -3.720  76.150 115.753  0.00  0.00    -0.090 HD
ATOM     20  H   LIG d   1      -2.421  75.758 116.647  0.00  0.00    -0.090 HD
ATOM     21  H   LIG d   1      -2.753  74.921 115.278  0.00  0.00    -0.090 HD
ENDBRANCH   5  18
BRANCH   3  22
ATOM     22  C   LIG d   1      -2.300  78.163 111.561  0.00  0.00     0.382 C 
ATOM     23  O   LIG d   1      -3.120  77.368 111.041  0.00  0.00    -0.241 OA
ATOM     24  O   LIG d   1      -1.637  78.924 110.831  0.00  0.00    -0.241 OA
ENDBRANCH   3  22
TORSDOF 7
ENDMDL
