MODEL 1
REMARK VINA RESULT:      -5.4      0.000      0.000
REMARK  7 active torsions:
REMARK  status: ('A' for Active; 'I' for Inactive)
REMARK    1  A    between atoms: C_2  and  C_3 
REMARK    2  A    between atoms: C_3  and  O_6 
REMARK    3  A    between atoms: C_3  and  C_4 
REMARK    4  A    between atoms: C_7  and  O_6 
REMARK    5  A    between atoms: C_9  and  C_10 
REMARK    6  A    between atoms: N_15  and  C_14 
REMARK    7  A    between atoms: N_20  and  C_19 
REMARK       I    between atoms: C_22  and  N_20 
ROOT
ATOM      1  C   LIG d   1       0.723  82.465 112.523  0.00  0.00     0.161 C 
ATOM      2  C   LIG d   1       1.808  83.179 111.987  0.00  0.00     0.016 C 
ATOM      3  C   LIG d   1       2.389  82.886 110.732  0.00  0.00     0.038 C 
ATOM      4  C   LIG d   1       1.824  81.949 109.854  0.00  0.00     0.028 C 
ATOM      5  C   LIG d   1       1.033  80.854 110.563  0.00  0.00    -0.047 C 
ATOM      6  C   LIG d   1       0.023  81.512 111.531  0.00  0.00     0.091 C 
ENDROOT
BRANCH   1   7
ATOM      7  O   LIG d   1      -0.231  83.381 113.095  0.00  0.00    -0.368 OA
BRANCH   7   8
ATOM      8  C   LIG d   1      -0.318  83.390 114.541  0.00  0.00     0.119 C 
BRANCH   8   9
ATOM      9  C   LIG d   1      -1.813  83.414 114.915  0.00  0.00     0.028 C 
ATOM     10  C   LIG d   1      -2.171  82.350 115.967  0.00  0.00     0.006 C 
ENDBRANCH   8   9
BRANCH   8  11
ATOM     11  C   LIG d   1       0.266  84.679 115.126  0.00  0.00     0.028 C 
ATOM     12  C   LIG d   1       1.626  84.461 115.809  0.00  0.00     0.006 C 
ENDBRANCH   8  11
ENDBRANCH   7   8
ENDBRANCH   1   7
BRANCH   6  13
ATOM     13  N   LIG d   1      -0.733  80.510 112.327  0.00  0.00    -0.311 N 
ATOM     14  C   LIG d   1      -2.044  80.588 112.548  0.00  0.00     0.210 C 
ATOM     15  C   LIG d   1      -2.623  79.463 113.411  0.00  0.00     0.109 C 
ATOM     16  O   LIG d   1      -2.789  81.465 112.084  0.00  0.00    -0.276 OA
ATOM     17  H   LIG d   1      -0.212  79.748 112.715  0.00  0.00     0.149 HD
ENDBRANCH   6  13
BRANCH   5  18
ATOM     18  N   LIG d   1       0.387  80.028 109.526  0.00  0.00     0.381 N 
ATOM     19  H   LIG d   1      -0.404  79.554 109.915  0.00  0.00    -0.090 HD
ATOM     20  H   LIG d   1       1.042  79.337 109.206  0.00  0.00    -0.090 HD
ATOM     21  H   LIG d   1       0.098  80.602 108.765  0.00  0.00    -0.090 HD
ENDBRANCH   5  18
BRANCH   3  22
ATOM     22  C   LIG d   1       3.572  83.506 110.361  0.00  0.00     0.382 C 
ATOM     23  O   LIG d   1       4.661  83.125 110.854  0.00  0.00    -0.241 OA
ATOM     24  O   LIG d   1       3.560  84.471 109.573  0.00  0.00    -0.241 OA
ENDBRANCH   3  22
TORSDOF 7
ENDMDL
MODEL 2
REMARK VINA RESULT:      -5.3      1.729      4.794
REMARK  7 active torsions:
REMARK  status: ('A' for Active; 'I' for Inactive)
REMARK    1  A    between atoms: C_2  and  C_3 
REMARK    2  A    between atoms: C_3  and  O_6 
REMARK    3  A    between atoms: C_3  and  C_4 
REMARK    4  A    between atoms: C_7  and  O_6 
REMARK    5  A    between atoms: C_9  and  C_10 
REMARK    6  A    between atoms: N_15  and  C_14 
REMARK    7  A    between atoms: N_20  and  C_19 
REMARK       I    between atoms: C_22  and  N_20 
ROOT
ATOM      1  C   LIG d   1       0.544  83.378 112.343  0.00  0.00     0.161 C 
ATOM      2  C   LIG d   1      -0.672  82.919 112.876  0.00  0.00     0.016 C 
ATOM      3  C   LIG d   1      -1.215  81.645 112.592  0.00  0.00     0.038 C 
ATOM      4  C   LIG d   1      -0.500  80.679 111.870  0.00  0.00     0.028 C 
ATOM      5  C   LIG d   1       0.507  81.275 110.892  0.00  0.00    -0.047 C 
ATOM      6  C   LIG d   1       1.392  82.296 111.643  0.00  0.00     0.091 C 
ENDROOT
BRANCH   1   7
ATOM      7  O   LIG d   1       1.314  84.029 113.373  0.00  0.00    -0.368 OA
BRANCH   7   8
ATOM      8  C   LIG d   1       1.638  83.223 114.533  0.00  0.00     0.119 C 
BRANCH   8   9
ATOM      9  C   LIG d   1       0.967  83.880 115.755  0.00  0.00     0.028 C 
ATOM     10  C   LIG d   1       0.133  82.880 116.574  0.00  0.00     0.006 C 
ENDBRANCH   8   9
BRANCH   8  11
ATOM     11  C   LIG d   1       3.140  83.254 114.830  0.00  0.00     0.028 C 
ATOM     12  C   LIG d   1       3.920  84.166 113.870  0.00  0.00     0.006 C 
ENDBRANCH   8  11
ENDBRANCH   7   8
ENDBRANCH   1   7
BRANCH   6  13
ATOM     13  N   LIG d   1       2.349  82.988 110.741  0.00  0.00    -0.311 N 
ATOM     14  C   LIG d   1       3.577  82.536 110.489  0.00  0.00     0.210 C 
ATOM     15  C   LIG d   1       4.407  83.413 109.546  0.00  0.00     0.109 C 
ATOM     16  O   LIG d   1       4.045  81.476 110.930  0.00  0.00    -0.276 OA
ATOM     17  H   LIG d   1       2.040  83.840 110.316  0.00  0.00     0.149 HD
ENDBRANCH   6  13
BRANCH   5  18
ATOM     18  N   LIG d   1       1.277  80.160 110.309  0.00  0.00     0.381 N 
ATOM     19  H   LIG d   1       2.245  80.260 110.540  0.00  0.00    -0.090 HD
ATOM     20  H   LIG d   1       1.186  80.190 109.309  0.00  0.00    -0.090 HD
ATOM     21  H   LIG d   1       0.934  79.291 110.655  0.00  0.00    -0.090 HD
ENDBRANCH   5  18
BRANCH   3  22
ATOM     22  C   LIG d   1      -2.506  81.342 112.998  0.00  0.00     0.382 C 
ATOM     23  O   LIG d   1      -3.439  81.326 112.161  0.00  0.00    -0.241 OA
ATOM     24  O   LIG d   1      -2.756  81.128 114.200  0.00  0.00    -0.241 OA
ENDBRANCH   3  22
TORSDOF 7
ENDMDL
MODEL 3
REMARK VINA RESULT:      -4.9      1.054      1.280
REMARK  7 active torsions:
REMARK  status: ('A' for Active; 'I' for Inactive)
REMARK    1  A    between atoms: C_2  and  C_3 
REMARK    2  A    between atoms: C_3  and  O_6 
REMARK    3  A    between atoms: C_3  and  C_4 
REMARK    4  A    between atoms: C_7  and  O_6 
REMARK    5  A    between atoms: C_9  and  C_10 
REMARK    6  A    between atoms: N_15  and  C_14 
REMARK    7  A    between atoms: N_20  and  C_19 
REMARK       I    between atoms: C_22  and  N_20 
ROOT
ATOM      1  C   LIG d   1       0.767  81.719 113.112  0.00  0.00     0.161 C 
ATOM      2  C   LIG d   1       1.844  82.578 112.834  0.00  0.00     0.016 C 
ATOM      3  C   LIG d   1       2.363  82.781 111.535  0.00  0.00     0.038 C 
ATOM      4  C   LIG d   1       1.739  82.250 110.396  0.00  0.00     0.028 C 
ATOM      5  C   LIG d   1       0.955  80.972 110.675  0.00  0.00    -0.047 C 
ATOM      6  C   LIG d   1       0.003  81.218 111.869  0.00  0.00     0.091 C 
ENDROOT
BRANCH   1   7
ATOM      7  O   LIG d   1      -0.139  82.354 114.035  0.00  0.00    -0.368 OA
BRANCH   7   8
ATOM      8  C   LIG d   1      -0.068  81.904 115.410  0.00  0.00     0.119 C 
BRANCH   8   9
ATOM      9  C   LIG d   1      -1.435  81.288 115.767  0.00  0.00     0.028 C 
ATOM     10  C   LIG d   1      -2.593  82.284 115.584  0.00  0.00     0.006 C 
ENDBRANCH   8   9
BRANCH   8  11
ATOM     11  C   LIG d   1       0.111  83.081 116.373  0.00  0.00     0.028 C 
ATOM     12  C   LIG d   1       1.550  83.620 116.394  0.00  0.00     0.006 C 
ENDBRANCH   8  11
ENDBRANCH   7   8
ENDBRANCH   1   7
BRANCH   6  13
ATOM     13  N   LIG d   1      -0.741  79.993 112.262  0.00  0.00    -0.311 N 
ATOM     14  C   LIG d   1      -2.063  79.956 112.415  0.00  0.00     0.210 C 
ATOM     15  C   LIG d   1      -2.627  78.597 112.844  0.00  0.00     0.109 C 
ATOM     16  O   LIG d   1      -2.827  80.910 112.206  0.00  0.00    -0.276 OA
ATOM     17  H   LIG d   1      -0.203  79.164 112.421  0.00  0.00     0.149 HD
ENDBRANCH   6  13
BRANCH   5  18
ATOM     18  N   LIG d   1       0.245  80.605 109.435  0.00  0.00     0.381 N 
ATOM     19  H   LIG d   1       0.746  79.882 108.960  0.00  0.00    -0.090 HD
ATOM     20  H   LIG d   1       0.204  81.409 108.834  0.00  0.00    -0.090 HD
ATOM     21  H   LIG d   1      -0.678  80.295 109.650  0.00  0.00    -0.090 HD
ENDBRANCH   5  18
BRANCH   3  22
ATOM     22  C   LIG d   1       3.543  83.490 111.369  0.00  0.00     0.382 C 
ATOM     23  O   LIG d   1       3.918  83.822 110.219  0.00  0.00    -0.241 OA
ATOM     24  O   LIG d   1       4.258  83.764 112.351  0.00  0.00    -0.241 OA
ENDBRANCH   3  22
TORSDOF 7
ENDMDL
MODEL 4
REMARK VINA RESULT:      -4.8      2.363      5.446
REMARK  7 active torsions:
REMARK  status: ('A' for Active; 'I' for Inactive)
REMARK    1  A    between atoms: C_2  and  C_3 
REMARK    2  A    between atoms: C_3  and  O_6 
REMARK    3  A    between atoms: C_3  and  C_4 
REMARK    4  A    between atoms: C_7  and  O_6 
REMARK    5  A    between atoms: C_9  and  C_10 
REMARK    6  A    between atoms: N_15  and  C_14 
REMARK    7  A    between atoms: N_20  and  C_19 
REMARK       I    between atoms: C_22  and  N_20 
ROOT
ATOM      1  C   LIG d   1      -2.275  81.010 113.780  0.00  0.00     0.161 C 
ATOM      2  C   LIG d   1      -2.746  79.819 114.357  0.00  0.00     0.016 C 
ATOM      3  C   LIG d   1      -2.503  78.539 113.808  0.00  0.00     0.038 C 
ATOM      4  C   LIG d   1      -1.638  78.351 112.720  0.00  0.00     0.028 C 
ATOM      5  C   LIG d   1      -1.546  79.566 111.802  0.00  0.00    -0.047 C 
ATOM      6  C   LIG d   1      -1.236  80.817 112.656  0.00  0.00     0.091 C 
ENDROOT
BRANCH   1   7
ATOM      7  O   LIG d   1      -1.747  81.874 114.806  0.00  0.00    -0.368 OA
BRANCH   7   8
ATOM      8  C   LIG d   1      -0.381  81.618 115.215  0.00  0.00     0.119 C 
BRANCH   8   9
ATOM      9  C   LIG d   1      -0.420  81.123 116.674  0.00  0.00     0.028 C 
ATOM     10  C   LIG d   1      -1.465  81.869 117.520  0.00  0.00     0.006 C 
ENDBRANCH   8   9
BRANCH   8  11
ATOM     11  C   LIG d   1       0.442  82.909 115.247  0.00  0.00     0.028 C 
ATOM     12  C   LIG d   1      -0.346  84.131 114.748  0.00  0.00     0.006 C 
ENDBRANCH   8  11
ENDBRANCH   7   8
ENDBRANCH   1   7
BRANCH   6  13
ATOM     13  N   LIG d   1      -1.213  82.064 111.846  0.00  0.00    -0.311 N 
ATOM     14  C   LIG d   1      -0.093  82.620 111.389  0.00  0.00     0.210 C 
ATOM     15  C   LIG d   1      -0.291  83.913 110.593  0.00  0.00     0.109 C 
ATOM     16  O   LIG d   1       1.044  82.147 111.539  0.00  0.00    -0.276 OA
ATOM     17  H   LIG d   1      -2.094  82.497 111.651  0.00  0.00     0.149 HD
ENDBRANCH   6  13
BRANCH   5  18
ATOM     18  N   LIG d   1      -0.509  79.284 110.792  0.00  0.00     0.381 N 
ATOM     19  H   LIG d   1      -0.910  78.776 110.028  0.00  0.00    -0.090 HD
ATOM     20  H   LIG d   1       0.205  78.714 111.209  0.00  0.00    -0.090 HD
ATOM     21  H   LIG d   1      -0.114  80.137 110.462  0.00  0.00    -0.090 HD
ENDBRANCH   5  18
BRANCH   3  22
ATOM     22  C   LIG d   1      -3.161  77.433 114.325  0.00  0.00     0.382 C 
ATOM     23  O   LIG d   1      -3.440  77.384 115.547  0.00  0.00    -0.241 OA
ATOM     24  O   LIG d   1      -3.440  76.465 113.593  0.00  0.00    -0.241 OA
ENDBRANCH   3  22
TORSDOF 7
ENDMDL
MODEL 5
REMARK VINA RESULT:      -4.4      2.667      5.219
REMARK  7 active torsions:
REMARK  status: ('A' for Active; 'I' for Inactive)
REMARK    1  A    between atoms: C_2  and  C_3 
REMARK    2  A    between atoms: C_3  and  O_6 
REMARK    3  A    between atoms: C_3  and  C_4 
REMARK    4  A    between atoms: C_7  and  O_6 
REMARK    5  A    between atoms: C_9  and  C_10 
REMARK    6  A    between atoms: N_15  and  C_14 
REMARK    7  A    between atoms: N_20  and  C_19 
REMARK       I    between atoms: C_22  and  N_20 
ROOT
ATOM      1  C   LIG d   1      -0.350  82.941 115.006  0.00  0.00     0.161 C 
ATOM      2  C   LIG d   1      -1.514  82.256 114.621  0.00  0.00     0.016 C 
ATOM      3  C   LIG d   1      -1.572  81.381 113.513  0.00  0.00     0.038 C 
ATOM      4  C   LIG d   1      -0.422  81.011 112.799  0.00  0.00     0.028 C 
ATOM      5  C   LIG d   1       0.679  82.066 112.837  0.00  0.00    -0.047 C 
ATOM      6  C   LIG d   1       0.941  82.465 114.307  0.00  0.00     0.091 C 
ENDROOT
BRANCH   1   7
ATOM      7  O   LIG d   1      -0.196  82.879 116.438  0.00  0.00    -0.368 OA
BRANCH   7   8
ATOM      8  C   LIG d   1       0.428  81.680 116.960  0.00  0.00     0.119 C 
BRANCH   8   9
ATOM      9  C   LIG d   1      -0.590  80.999 117.896  0.00  0.00     0.028 C 
ATOM     10  C   LIG d   1      -1.669  81.973 118.398  0.00  0.00     0.006 C 
ENDBRANCH   8   9
BRANCH   8  11
ATOM     11  C   LIG d   1       1.631  82.018 117.845  0.00  0.00     0.028 C 
ATOM     12  C   LIG d   1       1.788  83.527 118.086  0.00  0.00     0.006 C 
ENDBRANCH   8  11
ENDBRANCH   7   8
ENDBRANCH   1   7
BRANCH   6  13
ATOM     13  N   LIG d   1       1.946  83.554 114.428  0.00  0.00    -0.311 N 
ATOM     14  C   LIG d   1       3.241  83.335 114.646  0.00  0.00     0.210 C 
ATOM     15  C   LIG d   1       4.101  84.599 114.757  0.00  0.00     0.109 C 
ATOM     16  O   LIG d   1       3.766  82.214 114.725  0.00  0.00    -0.276 OA
ATOM     17  H   LIG d   1       1.612  84.494 114.345  0.00  0.00     0.149 HD
ENDBRANCH   6  13
BRANCH   5  18
ATOM     18  N   LIG d   1       1.866  81.495 112.172  0.00  0.00     0.381 N 
ATOM     19  H   LIG d   1       1.582  80.942 111.388  0.00  0.00    -0.090 HD
ATOM     20  H   LIG d   1       2.346  80.898 112.822  0.00  0.00    -0.090 HD
ATOM     21  H   LIG d   1       2.472  82.226 111.870  0.00  0.00    -0.090 HD
ENDBRANCH   5  18
BRANCH   3  22
ATOM     22  C   LIG d   1      -2.798  80.895 113.083  0.00  0.00     0.382 C 
ATOM     23  O   LIG d   1      -3.272  79.851 113.593  0.00  0.00    -0.241 OA
ATOM     24  O   LIG d   1      -3.414  81.463 112.162  0.00  0.00    -0.241 OA
ENDBRANCH   3  22
TORSDOF 7
ENDMDL
MODEL 6
REMARK VINA RESULT:      -4.3      2.953      4.051
REMARK  7 active torsions:
REMARK  status: ('A' for Active; 'I' for Inactive)
REMARK    1  A    between atoms: C_2  and  C_3 
REMARK    2  A    between atoms: C_3  and  O_6 
REMARK    3  A    between atoms: C_3  and  C_4 
REMARK    4  A    between atoms: C_7  and  O_6 
REMARK    5  A    between atoms: C_9  and  C_10 
REMARK    6  A    between atoms: N_15  and  C_14 
REMARK    7  A    between atoms: N_20  and  C_19 
REMARK       I    between atoms: C_22  and  N_20 
ROOT
ATOM      1  C   LIG d   1      -0.989  80.804 114.755  0.00  0.00     0.161 C 
ATOM      2  C   LIG d   1      -0.890  82.133 114.313  0.00  0.00     0.016 C 
ATOM      3  C   LIG d   1      -0.841  82.498 112.948  0.00  0.00     0.038 C 
ATOM      4  C   LIG d   1      -1.043  81.562 111.923  0.00  0.00     0.028 C 
ATOM      5  C   LIG d   1      -0.642  80.143 112.311  0.00  0.00    -0.047 C 
ATOM      6  C   LIG d   1      -1.322  79.778 113.651  0.00  0.00     0.091 C 
ENDROOT
BRANCH   1   7
ATOM      7  O   LIG d   1      -1.949  80.715 115.826  0.00  0.00    -0.368 OA
BRANCH   7   8
ATOM      8  C   LIG d   1      -1.409  80.749 117.170  0.00  0.00     0.119 C 
BRANCH   8   9
ATOM      9  C   LIG d   1      -2.031  79.574 117.949  0.00  0.00     0.028 C 
ATOM     10  C   LIG d   1      -3.046  78.783 117.106  0.00  0.00     0.006 C 
ENDBRANCH   8   9
BRANCH   8  11
ATOM     11  C   LIG d   1      -1.852  82.011 117.917  0.00  0.00     0.028 C 
ATOM     12  C   LIG d   1      -1.959  81.797 119.436  0.00  0.00     0.006 C 
ENDBRANCH   8  11
ENDBRANCH   7   8
ENDBRANCH   1   7
BRANCH   6  13
ATOM     13  N   LIG d   1      -0.916  78.437 114.146  0.00  0.00    -0.311 N 
ATOM     14  C   LIG d   1      -1.604  77.324 113.894  0.00  0.00     0.210 C 
ATOM     15  C   LIG d   1      -1.022  76.050 114.516  0.00  0.00     0.109 C 
ATOM     16  O   LIG d   1      -2.622  77.266 113.189  0.00  0.00    -0.276 OA
ATOM     17  H   LIG d   1      -0.084  78.388 114.700  0.00  0.00     0.149 HD
ENDBRANCH   6  13
BRANCH   5  18
ATOM     18  N   LIG d   1      -1.033  79.250 111.203  0.00  0.00     0.381 N 
ATOM     19  H   LIG d   1      -1.726  78.602 111.519  0.00  0.00    -0.090 HD
ATOM     20  H   LIG d   1      -0.226  78.730 110.906  0.00  0.00    -0.090 HD
ATOM     21  H   LIG d   1      -1.390  79.787 110.443  0.00  0.00    -0.090 HD
ENDBRANCH   5  18
BRANCH   3  22
ATOM     22  C   LIG d   1      -0.550  83.807 112.596  0.00  0.00     0.382 C 
ATOM     23  O   LIG d   1      -0.104  84.603 113.457  0.00  0.00    -0.241 OA
ATOM     24  O   LIG d   1      -0.768  84.214 111.440  0.00  0.00    -0.241 OA
ENDBRANCH   3  22
TORSDOF 7
ENDMDL
MODEL 7
REMARK VINA RESULT:      -4.2      3.019      5.191
REMARK  7 active torsions:
REMARK  status: ('A' for Active; 'I' for Inactive)
REMARK    1  A    between atoms: C_2  and  C_3 
REMARK    2  A    between atoms: C_3  and  O_6 
REMARK    3  A    between atoms: C_3  and  C_4 
REMARK    4  A    between atoms: C_7  and  O_6 
REMARK    5  A    between atoms: C_9  and  C_10 
REMARK    6  A    between atoms: N_15  and  C_14 
REMARK    7  A    between atoms: N_20  and  C_19 
REMARK       I    between atoms: C_22  and  N_20 
ROOT
ATOM      1  C   LIG d   1      -2.421  81.592 114.063  0.00  0.00     0.161 C 
ATOM      2  C   LIG d   1      -1.998  81.681 112.727  0.00  0.00     0.016 C 
ATOM      3  C   LIG d   1      -0.655  81.907 112.349  0.00  0.00     0.038 C 
ATOM      4  C   LIG d   1       0.389  81.908 113.286  0.00  0.00     0.028 C 
ATOM      5  C   LIG d   1      -0.053  82.325 114.685  0.00  0.00    -0.047 C 
ATOM      6  C   LIG d   1      -1.280  81.479 115.096  0.00  0.00     0.091 C 
ENDROOT
BRANCH   1   7
ATOM      7  O   LIG d   1      -3.341  80.492 114.212  0.00  0.00    -0.368 OA
BRANCH   7   8
ATOM      8  C   LIG d   1      -2.752  79.205 114.517  0.00  0.00     0.119 C 
BRANCH   8   9
ATOM      9  C   LIG d   1      -3.036  78.271 113.324  0.00  0.00     0.028 C 
ATOM     10  C   LIG d   1      -1.829  78.142 112.380  0.00  0.00     0.006 C 
ENDBRANCH   8   9
BRANCH   8  11
ATOM     11  C   LIG d   1      -3.439  78.548 115.718  0.00  0.00     0.028 C 
ATOM     12  C   LIG d   1      -2.497  77.633 116.517  0.00  0.00     0.006 C 
ENDBRANCH   8  11
ENDBRANCH   7   8
ENDBRANCH   1   7
BRANCH   6  13
ATOM     13  N   LIG d   1      -1.828  81.881 116.418  0.00  0.00    -0.311 N 
ATOM     14  C   LIG d   1      -1.484  81.296 117.563  0.00  0.00     0.210 C 
ATOM     15  C   LIG d   1      -2.182  81.851 118.809  0.00  0.00     0.109 C 
ATOM     16  O   LIG d   1      -0.642  80.391 117.670  0.00  0.00    -0.276 OA
ATOM     17  H   LIG d   1      -2.495  82.629 116.427  0.00  0.00     0.149 HD
ENDBRANCH   6  13
BRANCH   5  18
ATOM     18  N   LIG d   1       1.100  82.149 115.588  0.00  0.00     0.381 N 
ATOM     19  H   LIG d   1       1.719  81.458 115.215  0.00  0.00    -0.090 HD
ATOM     20  H   LIG d   1       0.768  81.827 116.480  0.00  0.00    -0.090 HD
ATOM     21  H   LIG d   1       1.582  83.014 115.697  0.00  0.00    -0.090 HD
ENDBRANCH   5  18
BRANCH   3  22
ATOM     22  C   LIG d   1      -0.349  82.175 111.023  0.00  0.00     0.382 C 
ATOM     23  O   LIG d   1      -0.755  83.235 110.488  0.00  0.00    -0.241 OA
ATOM     24  O   LIG d   1       0.289  81.350 110.342  0.00  0.00    -0.241 OA
ENDBRANCH   3  22
TORSDOF 7
ENDMDL
MODEL 8
REMARK VINA RESULT:      -4.2      2.802      5.847
REMARK  7 active torsions:
REMARK  status: ('A' for Active; 'I' for Inactive)
REMARK    1  A    between atoms: C_2  and  C_3 
REMARK    2  A    between atoms: C_3  and  O_6 
REMARK    3  A    between atoms: C_3  and  C_4 
REMARK    4  A    between atoms: C_7  and  O_6 
REMARK    5  A    between atoms: C_9  and  C_10 
REMARK    6  A    between atoms: N_15  and  C_14 
REMARK    7  A    between atoms: N_20  and  C_19 
REMARK       I    between atoms: C_22  and  N_20 
ROOT
ATOM      1  C   LIG d   1      -1.982  80.645 114.201  0.00  0.00     0.161 C 
ATOM      2  C   LIG d   1      -2.457  79.438 114.740  0.00  0.00     0.016 C 
ATOM      3  C   LIG d   1      -2.420  78.207 114.044  0.00  0.00     0.038 C 
ATOM      4  C   LIG d   1      -1.764  78.072 112.811  0.00  0.00     0.028 C 
ATOM      5  C   LIG d   1      -1.716  79.365 112.005  0.00  0.00    -0.047 C 
ATOM      6  C   LIG d   1      -1.162  80.495 112.902  0.00  0.00     0.091 C 
ENDROOT
BRANCH   1   7
ATOM      7  O   LIG d   1      -1.220  81.358 115.195  0.00  0.00    -0.368 OA
BRANCH   7   8
ATOM      8  C   LIG d   1      -1.213  80.783 116.526  0.00  0.00     0.119 C 
BRANCH   8   9
ATOM      9  C   LIG d   1      -1.473  81.927 117.525  0.00  0.00     0.028 C 
ATOM     10  C   LIG d   1      -0.201  82.345 118.282  0.00  0.00     0.006 C 
ENDBRANCH   8   9
BRANCH   8  11
ATOM     11  C   LIG d   1       0.170  80.234 116.888  0.00  0.00     0.028 C 
ATOM     12  C   LIG d   1       0.125  78.772 117.360  0.00  0.00     0.006 C 
ENDBRANCH   8  11
ENDBRANCH   7   8
ENDBRANCH   1   7
BRANCH   6  13
ATOM     13  N   LIG d   1      -1.160  81.814 112.217  0.00  0.00    -0.311 N 
ATOM     14  C   LIG d   1      -0.048  82.466 111.884  0.00  0.00     0.210 C 
ATOM     15  C   LIG d   1      -0.271  83.819 111.202  0.00  0.00     0.109 C 
ATOM     16  O   LIG d   1       1.103  82.037 112.059  0.00  0.00    -0.276 OA
ATOM     17  H   LIG d   1      -2.051  82.221 112.009  0.00  0.00     0.149 HD
ENDBRANCH   6  13
BRANCH   5  18
ATOM     18  N   LIG d   1      -0.887  79.116 110.811  0.00  0.00     0.381 N 
ATOM     19  H   LIG d   1      -0.610  78.154 110.786  0.00  0.00    -0.090 HD
ATOM     20  H   LIG d   1      -0.058  79.681 110.867  0.00  0.00    -0.090 HD
ATOM     21  H   LIG d   1      -1.398  79.344 109.987  0.00  0.00    -0.090 HD
ENDBRANCH   5  18
BRANCH   3  22
ATOM     22  C   LIG d   1      -3.081  77.104 114.563  0.00  0.00     0.382 C 
ATOM     23  O   LIG d   1      -3.282  77.018 115.799  0.00  0.00    -0.241 OA
ATOM     24  O   LIG d   1      -3.438  76.173 113.817  0.00  0.00    -0.241 OA
ENDBRANCH   3  22
TORSDOF 7
ENDMDL
MODEL 9
REMARK VINA RESULT:      -4.1      2.186      5.209
REMARK  7 active torsions:
REMARK  status: ('A' for Active; 'I' for Inactive)
REMARK    1  A    between atoms: C_2  and  C_3 
REMARK    2  A    between atoms: C_3  and  O_6 
REMARK    3  A    between atoms: C_3  and  C_4 
REMARK    4  A    between atoms: C_7  and  O_6 
REMARK    5  A    between atoms: C_9  and  C_10 
REMARK    6  A    between atoms: N_15  and  C_14 
REMARK    7  A    between atoms: N_20  and  C_19 
REMARK       I    between atoms: C_22  and  N_20 
ROOT
ATOM      1  C   LIG d   1       0.318  82.076 113.837  0.00  0.00     0.161 C 
ATOM      2  C   LIG d   1      -0.829  81.323 114.135  0.00  0.00     0.016 C 
ATOM      3  C   LIG d   1      -1.475  80.484 113.198  0.00  0.00     0.038 C 
ATOM      4  C   LIG d   1      -0.925  80.224 111.934  0.00  0.00     0.028 C 
ATOM      5  C   LIG d   1      -0.042  81.353 111.413  0.00  0.00    -0.047 C 
ATOM      6  C   LIG d   1       0.996  81.719 112.498  0.00  0.00     0.091 C 
ENDROOT
BRANCH   1   7
ATOM      7  O   LIG d   1       1.264  81.974 114.920  0.00  0.00    -0.368 OA
BRANCH   7   8
ATOM      8  C   LIG d   1       0.701  81.812 116.245  0.00  0.00     0.119 C 
BRANCH   8   9
ATOM      9  C   LIG d   1       0.848  83.158 116.980  0.00  0.00     0.028 C 
ATOM     10  C   LIG d   1       2.070  83.959 116.498  0.00  0.00     0.006 C 
ENDBRANCH   8   9
BRANCH   8  11
ATOM     11  C   LIG d   1       1.508  80.807 117.074  0.00  0.00     0.028 C 
ATOM     12  C   LIG d   1       0.848  79.421 117.138  0.00  0.00     0.006 C 
ENDBRANCH   8  11
ENDBRANCH   7   8
ENDBRANCH   1   7
BRANCH   6  13
ATOM     13  N   LIG d   1       1.847  82.872 112.103  0.00  0.00    -0.311 N 
ATOM     14  C   LIG d   1       3.035  82.740 111.517  0.00  0.00     0.210 C 
ATOM     15  C   LIG d   1       3.756  84.057 111.211  0.00  0.00     0.109 C 
ATOM     16  O   LIG d   1       3.547  81.658 111.192  0.00  0.00    -0.276 OA
ATOM     17  H   LIG d   1       1.494  83.788 112.301  0.00  0.00     0.149 HD
ENDBRANCH   6  13
BRANCH   5  18
ATOM     18  N   LIG d   1       0.574  80.893 110.154  0.00  0.00     0.381 N 
ATOM     19  H   LIG d   1       0.957  81.673 109.660  0.00  0.00    -0.090 HD
ATOM     20  H   LIG d   1      -0.135  80.473 109.580  0.00  0.00    -0.090 HD
ATOM     21  H   LIG d   1       1.291  80.229 110.349  0.00  0.00    -0.090 HD
ENDBRANCH   5  18
BRANCH   3  22
ATOM     22  C   LIG d   1      -2.707  79.927 113.508  0.00  0.00     0.382 C 
ATOM     23  O   LIG d   1      -3.170  78.998 112.803  0.00  0.00    -0.241 OA
ATOM     24  O   LIG d   1      -3.380  80.372 114.457  0.00  0.00    -0.241 OA
ENDBRANCH   3  22
TORSDOF 7
ENDMDL
