MODEL 1
REMARK VINA RESULT:      -4.9      0.000      0.000
REMARK  7 active torsions:
REMARK  status: ('A' for Active; 'I' for Inactive)
REMARK    1  A    between atoms: C_2  and  C_3 
REMARK    2  A    between atoms: C_3  and  O_6 
REMARK    3  A    between atoms: C_3  and  C_4 
REMARK    4  A    between atoms: C_7  and  O_6 
REMARK    5  A    between atoms: C_9  and  C_10 
REMARK    6  A    between atoms: N_15  and  C_14 
REMARK    7  A    between atoms: N_20  and  C_19 
REMARK       I    between atoms: C_22  and  N_20 
ROOT
ATOM      1  C   LIG d   1      -0.280  81.164 111.730  0.00  0.00     0.161 C 
ATOM      2  C   LIG d   1      -1.383  80.474 112.260  0.00  0.00     0.016 C 
ATOM      3  C   LIG d   1      -1.639  79.106 112.009  0.00  0.00     0.038 C 
ATOM      4  C   LIG d   1      -0.720  78.292 111.329  0.00  0.00     0.028 C 
ATOM      5  C   LIG d   1       0.159  79.060 110.347  0.00  0.00    -0.047 C 
ATOM      6  C   LIG d   1       0.793  80.266 111.078  0.00  0.00     0.091 C 
ENDROOT
BRANCH   1   7
ATOM      7  O   LIG d   1       0.313  81.993 112.749  0.00  0.00    -0.368 OA
BRANCH   7   8
ATOM      8  C   LIG d   1      -0.000  83.406 112.683  0.00  0.00     0.119 C 
BRANCH   8   9
ATOM      9  C   LIG d   1      -0.597  83.683 111.290  0.00  0.00     0.028 C 
ATOM     10  C   LIG d   1       0.346  84.512 110.402  0.00  0.00     0.006 C 
ENDBRANCH   8   9
BRANCH   8  11
ATOM     11  C   LIG d   1       1.268  84.262 112.759  0.00  0.00     0.028 C 
ATOM     12  C   LIG d   1       2.238  83.794 113.856  0.00  0.00     0.006 C 
ENDBRANCH   8  11
ENDBRANCH   7   8
ENDBRANCH   1   7
BRANCH   6  13
ATOM     13  N   LIG d   1       1.601  81.118 110.168  0.00  0.00    -0.311 N 
ATOM     14  C   LIG d   1       2.773  81.650 110.510  0.00  0.00     0.210 C 
ATOM     15  C   LIG d   1       3.432  82.514 109.430  0.00  0.00     0.109 C 
ATOM     16  O   LIG d   1       3.346  81.462 111.594  0.00  0.00    -0.276 OA
ATOM     17  H   LIG d   1       1.226  81.297 109.257  0.00  0.00     0.149 HD
ENDBRANCH   6  13
BRANCH   5  18
ATOM     18  N   LIG d   1       1.159  78.116 109.813  0.00  0.00     0.381 N 
ATOM     19  H   LIG d   1       1.686  78.558 109.086  0.00  0.00    -0.090 HD
ATOM     20  H   LIG d   1       0.681  77.325 109.419  0.00  0.00    -0.090 HD
ATOM     21  H   LIG d   1       1.769  77.817 110.541  0.00  0.00    -0.090 HD
ENDBRANCH   5  18
BRANCH   3  22
ATOM     22  C   LIG d   1      -2.845  78.548 112.406  0.00  0.00     0.382 C 
ATOM     23  O   LIG d   1      -3.404  78.947 113.456  0.00  0.00    -0.241 OA
ATOM     24  O   LIG d   1      -3.358  77.621 111.751  0.00  0.00    -0.241 OA
ENDBRANCH   3  22
TORSDOF 7
ENDMDL
MODEL 2
REMARK VINA RESULT:      -4.4      1.465      2.250
REMARK  7 active torsions:
REMARK  status: ('A' for Active; 'I' for Inactive)
REMARK    1  A    between atoms: C_2  and  C_3 
REMARK    2  A    between atoms: C_3  and  O_6 
REMARK    3  A    between atoms: C_3  and  C_4 
REMARK    4  A    between atoms: C_7  and  O_6 
REMARK    5  A    between atoms: C_9  and  C_10 
REMARK    6  A    between atoms: N_15  and  C_14 
REMARK    7  A    between atoms: N_20  and  C_19 
REMARK       I    between atoms: C_22  and  N_20 
ROOT
ATOM      1  C   LIG d   1      -0.038  81.384 111.791  0.00  0.00     0.161 C 
ATOM      2  C   LIG d   1      -0.887  80.297 112.062  0.00  0.00     0.016 C 
ATOM      3  C   LIG d   1      -0.700  79.008 111.513  0.00  0.00     0.038 C 
ATOM      4  C   LIG d   1       0.443  78.678 110.769  0.00  0.00     0.028 C 
ATOM      5  C   LIG d   1       1.066  79.871 110.053  0.00  0.00    -0.047 C 
ATOM      6  C   LIG d   1       1.276  81.015 111.072  0.00  0.00     0.091 C 
ENDROOT
BRANCH   1   7
ATOM      7  O   LIG d   1       0.242  82.101 113.010  0.00  0.00    -0.368 OA
BRANCH   7   8
ATOM      8  C   LIG d   1       1.581  81.953 113.543  0.00  0.00     0.119 C 
BRANCH   8   9
ATOM      9  C   LIG d   1       1.508  80.946 114.707  0.00  0.00     0.028 C 
ATOM     10  C   LIG d   1       2.143  81.493 115.997  0.00  0.00     0.006 C 
ENDBRANCH   8   9
BRANCH   8  11
ATOM     11  C   LIG d   1       2.080  83.259 114.167  0.00  0.00     0.028 C 
ATOM     12  C   LIG d   1       1.666  84.501 113.362  0.00  0.00     0.006 C 
ENDBRANCH   8  11
ENDBRANCH   7   8
ENDBRANCH   1   7
BRANCH   6  13
ATOM     13  N   LIG d   1       1.803  82.250 110.437  0.00  0.00    -0.311 N 
ATOM     14  C   LIG d   1       3.103  82.522 110.328  0.00  0.00     0.210 C 
ATOM     15  C   LIG d   1       3.430  83.859 109.657  0.00  0.00     0.109 C 
ATOM     16  O   LIG d   1       4.016  81.767 110.695  0.00  0.00    -0.276 OA
ATOM     17  H   LIG d   1       1.132  82.904 110.083  0.00  0.00     0.149 HD
ENDBRANCH   6  13
BRANCH   5  18
ATOM     18  N   LIG d   1       2.322  79.412 109.431  0.00  0.00     0.381 N 
ATOM     19  H   LIG d   1       2.303  79.600 108.449  0.00  0.00    -0.090 HD
ATOM     20  H   LIG d   1       2.406  78.420 109.561  0.00  0.00    -0.090 HD
ATOM     21  H   LIG d   1       3.099  79.876 109.850  0.00  0.00    -0.090 HD
ENDBRANCH   5  18
BRANCH   3  22
ATOM     22  C   LIG d   1      -1.683  78.044 111.672  0.00  0.00     0.382 C 
ATOM     23  O   LIG d   1      -1.789  77.431 112.762  0.00  0.00    -0.241 OA
ATOM     24  O   LIG d   1      -2.437  77.748 110.726  0.00  0.00    -0.241 OA
ENDBRANCH   3  22
TORSDOF 7
ENDMDL
MODEL 3
REMARK VINA RESULT:      -4.4      2.245      5.430
REMARK  7 active torsions:
REMARK  status: ('A' for Active; 'I' for Inactive)
REMARK    1  A    between atoms: C_2  and  C_3 
REMARK    2  A    between atoms: C_3  and  O_6 
REMARK    3  A    between atoms: C_3  and  C_4 
REMARK    4  A    between atoms: C_7  and  O_6 
REMARK    5  A    between atoms: C_9  and  C_10 
REMARK    6  A    between atoms: N_15  and  C_14 
REMARK    7  A    between atoms: N_20  and  C_19 
REMARK       I    between atoms: C_22  and  N_20 
ROOT
ATOM      1  C   LIG d   1       1.505  81.726 112.673  0.00  0.00     0.161 C 
ATOM      2  C   LIG d   1       2.409  82.578 112.018  0.00  0.00     0.016 C 
ATOM      3  C   LIG d   1       2.455  82.733 110.613  0.00  0.00     0.038 C 
ATOM      4  C   LIG d   1       1.491  82.157 109.772  0.00  0.00     0.028 C 
ATOM      5  C   LIG d   1       0.870  80.887 110.344  0.00  0.00    -0.047 C 
ATOM      6  C   LIG d   1       0.374  81.174 111.780  0.00  0.00     0.091 C 
ENDROOT
BRANCH   1   7
ATOM      7  O   LIG d   1       0.953  82.392 113.826  0.00  0.00    -0.368 OA
BRANCH   7   8
ATOM      8  C   LIG d   1       1.433  81.938 115.115  0.00  0.00     0.119 C 
BRANCH   8   9
ATOM      9  C   LIG d   1       2.560  82.894 115.553  0.00  0.00     0.028 C 
ATOM     10  C   LIG d   1       2.179  84.373 115.368  0.00  0.00     0.006 C 
ENDBRANCH   8   9
BRANCH   8  11
ATOM     11  C   LIG d   1       2.089  80.558 115.011  0.00  0.00     0.028 C 
ATOM     12  C   LIG d   1       2.908  80.192 116.259  0.00  0.00     0.006 C 
ENDBRANCH   8  11
ENDBRANCH   7   8
ENDBRANCH   1   7
BRANCH   6  13
ATOM     13  N   LIG d   1      -0.172  79.962 112.444  0.00  0.00    -0.311 N 
ATOM     14  C   LIG d   1      -1.447  79.839 112.812  0.00  0.00     0.210 C 
ATOM     15  C   LIG d   1      -1.796  78.515 113.499  0.00  0.00     0.109 C 
ATOM     16  O   LIG d   1      -2.328  80.687 112.605  0.00  0.00    -0.276 OA
ATOM     17  H   LIG d   1       0.467  79.212 112.622  0.00  0.00     0.149 HD
ENDBRANCH   6  13
BRANCH   5  18
ATOM     18  N   LIG d   1      -0.211  80.470 109.432  0.00  0.00     0.381 N 
ATOM     19  H   LIG d   1       0.017  79.588 109.018  0.00  0.00    -0.090 HD
ATOM     20  H   LIG d   1      -0.298  81.150 108.697  0.00  0.00    -0.090 HD
ATOM     21  H   LIG d   1      -1.070  80.398 109.931  0.00  0.00    -0.090 HD
ENDBRANCH   5  18
BRANCH   3  22
ATOM     22  C   LIG d   1       3.497  83.441 110.034  0.00  0.00     0.382 C 
ATOM     23  O   LIG d   1       4.411  82.828 109.431  0.00  0.00    -0.241 OA
ATOM     24  O   LIG d   1       3.558  84.680 110.144  0.00  0.00    -0.241 OA
ENDBRANCH   3  22
TORSDOF 7
ENDMDL
MODEL 4
REMARK VINA RESULT:      -4.1      2.505      3.424
REMARK  7 active torsions:
REMARK  status: ('A' for Active; 'I' for Inactive)
REMARK    1  A    between atoms: C_2  and  C_3 
REMARK    2  A    between atoms: C_3  and  O_6 
REMARK    3  A    between atoms: C_3  and  C_4 
REMARK    4  A    between atoms: C_7  and  O_6 
REMARK    5  A    between atoms: C_9  and  C_10 
REMARK    6  A    between atoms: N_15  and  C_14 
REMARK    7  A    between atoms: N_20  and  C_19 
REMARK       I    between atoms: C_22  and  N_20 
ROOT
ATOM      1  C   LIG d   1       1.059  81.290 113.287  0.00  0.00     0.161 C 
ATOM      2  C   LIG d   1       0.054  80.309 113.311  0.00  0.00     0.016 C 
ATOM      3  C   LIG d   1      -0.573  79.808 112.147  0.00  0.00     0.038 C 
ATOM      4  C   LIG d   1      -0.128  80.148 110.861  0.00  0.00     0.028 C 
ATOM      5  C   LIG d   1       0.545  81.515 110.794  0.00  0.00    -0.047 C 
ATOM      6  C   LIG d   1       1.634  81.592 111.887  0.00  0.00     0.091 C 
ENDROOT
BRANCH   1   7
ATOM      7  O   LIG d   1       2.116  80.929 114.197  0.00  0.00    -0.368 OA
BRANCH   7   8
ATOM      8  C   LIG d   1       1.793  80.993 115.608  0.00  0.00     0.119 C 
BRANCH   8   9
ATOM      9  C   LIG d   1       2.513  82.225 116.191  0.00  0.00     0.028 C 
ATOM     10  C   LIG d   1       1.544  83.194 116.890  0.00  0.00     0.006 C 
ENDBRANCH   8   9
BRANCH   8  11
ATOM     11  C   LIG d   1       2.366  79.792 116.366  0.00  0.00     0.028 C 
ATOM     12  C   LIG d   1       3.902  79.797 116.418  0.00  0.00     0.006 C 
ENDBRANCH   8  11
ENDBRANCH   7   8
ENDBRANCH   1   7
BRANCH   6  13
ATOM     13  N   LIG d   1       2.285  82.927 111.947  0.00  0.00    -0.311 N 
ATOM     14  C   LIG d   1       3.419  83.219 111.312  0.00  0.00     0.210 C 
ATOM     15  C   LIG d   1       3.928  84.648 111.523  0.00  0.00     0.109 C 
ATOM     16  O   LIG d   1       4.034  82.440 110.569  0.00  0.00    -0.276 OA
ATOM     17  H   LIG d   1       1.836  83.628 112.503  0.00  0.00     0.149 HD
ENDBRANCH   6  13
BRANCH   5  18
ATOM     18  N   LIG d   1       1.081  81.682 109.430  0.00  0.00     0.381 N 
ATOM     19  H   LIG d   1       0.386  82.096 108.841  0.00  0.00    -0.090 HD
ATOM     20  H   LIG d   1       1.311  80.777 109.058  0.00  0.00    -0.090 HD
ATOM     21  H   LIG d   1       1.894  82.256 109.451  0.00  0.00    -0.090 HD
ENDBRANCH   5  18
BRANCH   3  22
ATOM     22  C   LIG d   1      -1.685  78.987 112.264  0.00  0.00     0.382 C 
ATOM     23  O   LIG d   1      -1.558  77.743 112.163  0.00  0.00    -0.241 OA
ATOM     24  O   LIG d   1      -2.818  79.478 112.424  0.00  0.00    -0.241 OA
ENDBRANCH   3  22
TORSDOF 7
ENDMDL
MODEL 5
REMARK VINA RESULT:      -4.0      5.030      6.559
REMARK  7 active torsions:
REMARK  status: ('A' for Active; 'I' for Inactive)
REMARK    1  A    between atoms: C_2  and  C_3 
REMARK    2  A    between atoms: C_3  and  O_6 
REMARK    3  A    between atoms: C_3  and  C_4 
REMARK    4  A    between atoms: C_7  and  O_6 
REMARK    5  A    between atoms: C_9  and  C_10 
REMARK    6  A    between atoms: N_15  and  C_14 
REMARK    7  A    between atoms: N_20  and  C_19 
REMARK       I    between atoms: C_22  and  N_20 
ROOT
ATOM      1  C   LIG d   1      -0.421  78.242 115.533  0.00  0.00     0.161 C 
ATOM      2  C   LIG d   1      -1.211  78.743 114.484  0.00  0.00     0.016 C 
ATOM      3  C   LIG d   1      -2.326  78.055 113.952  0.00  0.00     0.038 C 
ATOM      4  C   LIG d   1      -2.821  76.881 114.539  0.00  0.00     0.028 C 
ATOM      5  C   LIG d   1      -1.757  76.079 115.280  0.00  0.00    -0.047 C 
ATOM      6  C   LIG d   1      -1.013  77.016 116.258  0.00  0.00     0.091 C 
ENDROOT
BRANCH   1   7
ATOM      7  O   LIG d   1      -0.138  79.294 116.476  0.00  0.00    -0.368 OA
BRANCH   7   8
ATOM      8  C   LIG d   1       1.116  79.996 116.291  0.00  0.00     0.119 C 
BRANCH   8   9
ATOM      9  C   LIG d   1       2.226  79.133 116.924  0.00  0.00     0.028 C 
ATOM     10  C   LIG d   1       3.634  79.606 116.526  0.00  0.00     0.006 C 
ENDBRANCH   8   9
BRANCH   8  11
ATOM     11  C   LIG d   1       1.136  81.316 117.068  0.00  0.00     0.028 C 
ATOM     12  C   LIG d   1       0.095  81.358 118.198  0.00  0.00     0.006 C 
ENDBRANCH   8  11
ENDBRANCH   7   8
ENDBRANCH   1   7
BRANCH   6  13
ATOM     13  N   LIG d   1       0.101  76.330 116.964  0.00  0.00    -0.311 N 
ATOM     14  C   LIG d   1      -0.028  75.763 118.162  0.00  0.00     0.210 C 
ATOM     15  C   LIG d   1       1.250  75.128 118.718  0.00  0.00     0.109 C 
ATOM     16  O   LIG d   1      -1.088  75.698 118.803  0.00  0.00    -0.276 OA
ATOM     17  H   LIG d   1       0.989  76.309 116.501  0.00  0.00     0.149 HD
ENDBRANCH   6  13
BRANCH   5  18
ATOM     18  N   LIG d   1      -2.435  74.957 115.957  0.00  0.00     0.381 N 
ATOM     19  H   LIG d   1      -1.802  74.189 116.057  0.00  0.00    -0.090 HD
ATOM     20  H   LIG d   1      -3.209  74.656 115.391  0.00  0.00    -0.090 HD
ATOM     21  H   LIG d   1      -2.762  75.247 116.852  0.00  0.00    -0.090 HD
ENDBRANCH   5  18
BRANCH   3  22
ATOM     22  C   LIG d   1      -2.934  78.521 112.796  0.00  0.00     0.382 C 
ATOM     23  O   LIG d   1      -3.034  77.771 111.795  0.00  0.00    -0.241 OA
ATOM     24  O   LIG d   1      -3.343  79.695 112.727  0.00  0.00    -0.241 OA
ENDBRANCH   3  22
TORSDOF 7
ENDMDL
MODEL 6
REMARK VINA RESULT:      -3.7      4.091      5.527
REMARK  7 active torsions:
REMARK  status: ('A' for Active; 'I' for Inactive)
REMARK    1  A    between atoms: C_2  and  C_3 
REMARK    2  A    between atoms: C_3  and  O_6 
REMARK    3  A    between atoms: C_3  and  C_4 
REMARK    4  A    between atoms: C_7  and  O_6 
REMARK    5  A    between atoms: C_9  and  C_10 
REMARK    6  A    between atoms: N_15  and  C_14 
REMARK    7  A    between atoms: N_20  and  C_19 
REMARK       I    between atoms: C_22  and  N_20 
ROOT
ATOM      1  C   LIG d   1      -1.151  78.367 114.653  0.00  0.00     0.161 C 
ATOM      2  C   LIG d   1      -1.846  77.156 114.811  0.00  0.00     0.016 C 
ATOM      3  C   LIG d   1      -1.659  76.290 115.913  0.00  0.00     0.038 C 
ATOM      4  C   LIG d   1      -0.871  76.653 117.016  0.00  0.00     0.028 C 
ATOM      5  C   LIG d   1       0.241  77.637 116.668  0.00  0.00    -0.047 C 
ATOM      6  C   LIG d   1      -0.370  78.832 115.899  0.00  0.00     0.091 C 
ENDROOT
BRANCH   1   7
ATOM      7  O   LIG d   1      -2.060  79.397 114.218  0.00  0.00    -0.368 OA
BRANCH   7   8
ATOM      8  C   LIG d   1      -2.087  79.663 112.794  0.00  0.00     0.119 C 
BRANCH   8   9
ATOM      9  C   LIG d   1      -2.685  78.422 112.103  0.00  0.00     0.028 C 
ATOM     10  C   LIG d   1      -1.807  77.913 110.947  0.00  0.00     0.006 C 
ENDBRANCH   8   9
BRANCH   8  11
ATOM     11  C   LIG d   1      -0.672  79.801 112.225  0.00  0.00     0.028 C 
ATOM     12  C   LIG d   1      -0.243  81.266 112.045  0.00  0.00     0.006 C 
ENDBRANCH   8  11
ENDBRANCH   7   8
ENDBRANCH   1   7
BRANCH   6  13
ATOM     13  N   LIG d   1       0.662  79.801 115.447  0.00  0.00    -0.311 N 
ATOM     14  C   LIG d   1       1.030  80.865 116.160  0.00  0.00     0.210 C 
ATOM     15  C   LIG d   1       2.096  81.747 115.501  0.00  0.00     0.109 C 
ATOM     16  O   LIG d   1       0.599  81.144 117.289  0.00  0.00    -0.276 OA
ATOM     17  H   LIG d   1       1.086  79.634 114.556  0.00  0.00     0.149 HD
ENDBRANCH   6  13
BRANCH   5  18
ATOM     18  N   LIG d   1       0.895  78.035 117.929  0.00  0.00     0.381 N 
ATOM     19  H   LIG d   1       0.413  78.814 118.330  0.00  0.00    -0.090 HD
ATOM     20  H   LIG d   1       1.839  78.316 117.730  0.00  0.00    -0.090 HD
ATOM     21  H   LIG d   1       0.895  77.271 118.568  0.00  0.00    -0.090 HD
ENDBRANCH   5  18
BRANCH   3  22
ATOM     22  C   LIG d   1      -2.235  75.029 115.902  0.00  0.00     0.382 C 
ATOM     23  O   LIG d   1      -3.117  74.750 115.055  0.00  0.00    -0.241 OA
ATOM     24  O   LIG d   1      -1.914  74.180 116.755  0.00  0.00    -0.241 OA
ENDBRANCH   3  22
TORSDOF 7
ENDMDL
MODEL 7
REMARK VINA RESULT:      -3.7      3.615      4.517
REMARK  7 active torsions:
REMARK  status: ('A' for Active; 'I' for Inactive)
REMARK    1  A    between atoms: C_2  and  C_3 
REMARK    2  A    between atoms: C_3  and  O_6 
REMARK    3  A    between atoms: C_3  and  C_4 
REMARK    4  A    between atoms: C_7  and  O_6 
REMARK    5  A    between atoms: C_9  and  C_10 
REMARK    6  A    between atoms: N_15  and  C_14 
REMARK    7  A    between atoms: N_20  and  C_19 
REMARK       I    between atoms: C_22  and  N_20 
ROOT
ATOM      1  C   LIG d   1      -0.673  79.350 114.641  0.00  0.00     0.161 C 
ATOM      2  C   LIG d   1      -0.859  78.059 115.164  0.00  0.00     0.016 C 
ATOM      3  C   LIG d   1      -1.279  76.957 114.385  0.00  0.00     0.038 C 
ATOM      4  C   LIG d   1      -1.397  77.038 112.989  0.00  0.00     0.028 C 
ATOM      5  C   LIG d   1      -1.707  78.444 112.488  0.00  0.00    -0.047 C 
ATOM      6  C   LIG d   1      -0.688  79.432 113.100  0.00  0.00     0.091 C 
ENDROOT
BRANCH   1   7
ATOM      7  O   LIG d   1       0.547  79.916 115.161  0.00  0.00    -0.368 OA
BRANCH   7   8
ATOM      8  C   LIG d   1       0.886  79.558 116.523  0.00  0.00     0.119 C 
BRANCH   8   9
ATOM      9  C   LIG d   1       0.514  80.752 117.422  0.00  0.00     0.028 C 
ATOM     10  C   LIG d   1      -0.779  80.507 118.218  0.00  0.00     0.006 C 
ENDBRANCH   8   9
BRANCH   8  11
ATOM     11  C   LIG d   1       2.398  79.379 116.692  0.00  0.00     0.028 C 
ATOM     12  C   LIG d   1       3.175  80.697 116.543  0.00  0.00     0.006 C 
ENDBRANCH   8  11
ENDBRANCH   7   8
ENDBRANCH   1   7
BRANCH   6  13
ATOM     13  N   LIG d   1      -0.972  80.842 112.728  0.00  0.00    -0.311 N 
ATOM     14  C   LIG d   1      -0.396  81.459 111.697  0.00  0.00     0.210 C 
ATOM     15  C   LIG d   1      -0.814  82.919 111.501  0.00  0.00     0.109 C 
ATOM     16  O   LIG d   1       0.398  80.924 110.908  0.00  0.00    -0.276 OA
ATOM     17  H   LIG d   1      -1.628  81.341 113.297  0.00  0.00     0.149 HD
ENDBRANCH   6  13
BRANCH   5  18
ATOM     18  N   LIG d   1      -1.666  78.411 111.014  0.00  0.00     0.381 N 
ATOM     19  H   LIG d   1      -0.722  78.512 110.699  0.00  0.00    -0.090 HD
ATOM     20  H   LIG d   1      -2.202  79.182 110.656  0.00  0.00    -0.090 HD
ATOM     21  H   LIG d   1      -2.044  77.551 110.681  0.00  0.00    -0.090 HD
ENDBRANCH   5  18
BRANCH   3  22
ATOM     22  C   LIG d   1      -1.626  75.768 115.007  0.00  0.00     0.382 C 
ATOM     23  O   LIG d   1      -2.759  75.265 114.813  0.00  0.00    -0.241 OA
ATOM     24  O   LIG d   1      -0.836  75.213 115.795  0.00  0.00    -0.241 OA
ENDBRANCH   3  22
TORSDOF 7
ENDMDL
MODEL 8
REMARK VINA RESULT:      -3.6      5.263      7.493
REMARK  7 active torsions:
REMARK  status: ('A' for Active; 'I' for Inactive)
REMARK    1  A    between atoms: C_2  and  C_3 
REMARK    2  A    between atoms: C_3  and  O_6 
REMARK    3  A    between atoms: C_3  and  C_4 
REMARK    4  A    between atoms: C_7  and  O_6 
REMARK    5  A    between atoms: C_9  and  C_10 
REMARK    6  A    between atoms: N_15  and  C_14 
REMARK    7  A    between atoms: N_20  and  C_19 
REMARK       I    between atoms: C_22  and  N_20 
ROOT
ATOM      1  C   LIG d   1      -2.304  77.811 116.574  0.00  0.00     0.161 C 
ATOM      2  C   LIG d   1      -2.923  77.883 115.315  0.00  0.00     0.016 C 
ATOM      3  C   LIG d   1      -2.291  78.415 114.167  0.00  0.00     0.038 C 
ATOM      4  C   LIG d   1      -0.935  78.774 114.166  0.00  0.00     0.028 C 
ATOM      5  C   LIG d   1      -0.418  79.189 115.540  0.00  0.00    -0.047 C 
ATOM      6  C   LIG d   1      -0.788  78.095 116.567  0.00  0.00     0.091 C 
ENDROOT
BRANCH   1   7
ATOM      7  O   LIG d   1      -2.571  76.529 117.177  0.00  0.00    -0.368 OA
BRANCH   7   8
ATOM      8  C   LIG d   1      -1.519  75.540 117.062  0.00  0.00     0.119 C 
BRANCH   8   9
ATOM      9  C   LIG d   1      -1.813  74.694 115.808  0.00  0.00     0.028 C 
ATOM     10  C   LIG d   1      -0.782  74.923 114.690  0.00  0.00     0.006 C 
ENDBRANCH   8   9
BRANCH   8  11
ATOM     11  C   LIG d   1      -1.551  74.553 118.233  0.00  0.00     0.028 C 
ATOM     12  C   LIG d   1      -1.054  75.173 119.548  0.00  0.00     0.006 C 
ENDBRANCH   8  11
ENDBRANCH   7   8
ENDBRANCH   1   7
BRANCH   6  13
ATOM     13  N   LIG d   1      -0.392  78.462 117.952  0.00  0.00    -0.311 N 
ATOM     14  C   LIG d   1       0.793  78.162 118.480  0.00  0.00     0.210 C 
ATOM     15  C   LIG d   1       0.989  78.615 119.930  0.00  0.00     0.109 C 
ATOM     16  O   LIG d   1       1.713  77.592 117.874  0.00  0.00    -0.276 OA
ATOM     17  H   LIG d   1      -1.068  78.954 118.504  0.00  0.00     0.149 HD
ENDBRANCH   6  13
BRANCH   5  18
ATOM     18  N   LIG d   1       1.037  79.404 115.422  0.00  0.00     0.381 N 
ATOM     19  H   LIG d   1       1.218  80.345 115.136  0.00  0.00    -0.090 HD
ATOM     20  H   LIG d   1       1.401  78.785 114.719  0.00  0.00    -0.090 HD
ATOM     21  H   LIG d   1       1.480  79.223 116.295  0.00  0.00    -0.090 HD
ENDBRANCH   5  18
BRANCH   3  22
ATOM     22  C   LIG d   1      -3.030  78.629 113.013  0.00  0.00     0.382 C 
ATOM     23  O   LIG d   1      -3.259  77.676 112.230  0.00  0.00    -0.241 OA
ATOM     24  O   LIG d   1      -3.432  79.771 112.723  0.00  0.00    -0.241 OA
ENDBRANCH   3  22
TORSDOF 7
ENDMDL
MODEL 9
REMARK VINA RESULT:      -3.5      6.043      7.312
REMARK  7 active torsions:
REMARK  status: ('A' for Active; 'I' for Inactive)
REMARK    1  A    between atoms: C_2  and  C_3 
REMARK    2  A    between atoms: C_3  and  O_6 
REMARK    3  A    between atoms: C_3  and  C_4 
REMARK    4  A    between atoms: C_7  and  O_6 
REMARK    5  A    between atoms: C_9  and  C_10 
REMARK    6  A    between atoms: N_15  and  C_14 
REMARK    7  A    between atoms: N_20  and  C_19 
REMARK       I    between atoms: C_22  and  N_20 
ROOT
ATOM      1  C   LIG d   1      -0.206  77.911 117.707  0.00  0.00     0.161 C 
ATOM      2  C   LIG d   1      -0.754  76.657 117.389  0.00  0.00     0.016 C 
ATOM      3  C   LIG d   1      -1.184  76.302 116.089  0.00  0.00     0.038 C 
ATOM      4  C   LIG d   1      -0.954  77.130 114.980  0.00  0.00     0.028 C 
ATOM      5  C   LIG d   1      -0.863  78.610 115.338  0.00  0.00    -0.047 C 
ATOM      6  C   LIG d   1       0.154  78.786 116.488  0.00  0.00     0.091 C 
ENDROOT
BRANCH   1   7
ATOM      7  O   LIG d   1       0.943  77.740 118.559  0.00  0.00    -0.368 OA
BRANCH   7   8
ATOM      8  C   LIG d   1       1.900  76.734 118.145  0.00  0.00     0.119 C 
BRANCH   8   9
ATOM      9  C   LIG d   1       2.125  75.789 119.340  0.00  0.00     0.028 C 
ATOM     10  C   LIG d   1       1.537  74.388 119.100  0.00  0.00     0.006 C 
ENDBRANCH   8   9
BRANCH   8  11
ATOM     11  C   LIG d   1       3.270  77.354 117.855  0.00  0.00     0.028 C 
ATOM     12  C   LIG d   1       4.361  76.301 117.608  0.00  0.00     0.006 C 
ENDBRANCH   8  11
ENDBRANCH   7   8
ENDBRANCH   1   7
BRANCH   6  13
ATOM     13  N   LIG d   1       0.242  80.194 116.957  0.00  0.00    -0.311 N 
ATOM     14  C   LIG d   1       1.361  80.915 116.908  0.00  0.00     0.210 C 
ATOM     15  C   LIG d   1       1.238  82.338 117.461  0.00  0.00     0.109 C 
ATOM     16  O   LIG d   1       2.435  80.521 116.430  0.00  0.00    -0.276 OA
ATOM     17  H   LIG d   1      -0.592  80.603 117.331  0.00  0.00     0.149 HD
ENDBRANCH   6  13
BRANCH   5  18
ATOM     18  N   LIG d   1      -0.485  79.342 114.115  0.00  0.00     0.381 N 
ATOM     19  H   LIG d   1      -0.215  78.694 113.402  0.00  0.00    -0.090 HD
ATOM     20  H   LIG d   1       0.303  79.932 114.319  0.00  0.00    -0.090 HD
ATOM     21  H   LIG d   1      -1.250  79.895 113.798  0.00  0.00    -0.090 HD
ENDBRANCH   5  18
BRANCH   3  22
ATOM     22  C   LIG d   1      -1.888  75.123 115.896  0.00  0.00     0.382 C 
ATOM     23  O   LIG d   1      -1.783  74.187 116.725  0.00  0.00    -0.241 OA
ATOM     24  O   LIG d   1      -2.592  74.967 114.880  0.00  0.00    -0.241 OA
ENDBRANCH   3  22
TORSDOF 7
ENDMDL
