MODEL 1
REMARK VINA RESULT:      -5.3      0.000      0.000
REMARK  7 active torsions:
REMARK  status: ('A' for Active; 'I' for Inactive)
REMARK    1  A    between atoms: C_2  and  C_3 
REMARK    2  A    between atoms: C_3  and  O_6 
REMARK    3  A    between atoms: C_3  and  C_4 
REMARK    4  A    between atoms: C_7  and  O_6 
REMARK    5  A    between atoms: C_9  and  C_10 
REMARK    6  A    between atoms: N_15  and  C_14 
REMARK    7  A    between atoms: N_20  and  C_19 
REMARK       I    between atoms: C_22  and  N_20 
ROOT
ATOM      1  C   LIG d   1       1.128  81.280 112.935  0.00  0.00     0.161 C 
ATOM      2  C   LIG d   1       2.207  82.040 112.455  0.00  0.00     0.016 C 
ATOM      3  C   LIG d   1       2.473  82.231 111.079  0.00  0.00     0.038 C 
ATOM      4  C   LIG d   1       1.583  81.797 110.085  0.00  0.00     0.028 C 
ATOM      5  C   LIG d   1       0.747  80.593 110.504  0.00  0.00    -0.047 C 
ATOM      6  C   LIG d   1       0.083  80.892 111.868  0.00  0.00     0.091 C 
ENDROOT
BRANCH   1   7
ATOM      7  O   LIG d   1       0.493  81.971 114.029  0.00  0.00    -0.368 OA
BRANCH   7   8
ATOM      8  C   LIG d   1       0.482  81.278 115.301  0.00  0.00     0.119 C 
BRANCH   8   9
ATOM      9  C   LIG d   1      -0.957  81.340 115.850  0.00  0.00     0.028 C 
ATOM     10  C   LIG d   1      -1.009  81.835 117.305  0.00  0.00     0.006 C 
ENDBRANCH   8   9
BRANCH   8  11
ATOM     11  C   LIG d   1       1.343  82.003 116.339  0.00  0.00     0.028 C 
ATOM     12  C   LIG d   1       2.836  81.657 116.221  0.00  0.00     0.006 C 
ENDBRANCH   8  11
ENDBRANCH   7   8
ENDBRANCH   1   7
BRANCH   6  13
ATOM     13  N   LIG d   1      -0.685  79.733 112.391  0.00  0.00    -0.311 N 
ATOM     14  C   LIG d   1      -1.994  79.772 112.638  0.00  0.00     0.210 C 
ATOM     15  C   LIG d   1      -2.586  78.473 113.193  0.00  0.00     0.109 C 
ATOM     16  O   LIG d   1      -2.726  80.750 112.420  0.00  0.00    -0.276 OA
ATOM     17  H   LIG d   1      -0.176  78.889 112.567  0.00  0.00     0.149 HD
ENDBRANCH   6  13
BRANCH   5  18
ATOM     18  N   LIG d   1      -0.230  80.333 109.430  0.00  0.00     0.381 N 
ATOM     19  H   LIG d   1       0.241  79.982 108.621  0.00  0.00    -0.090 HD
ATOM     20  H   LIG d   1      -0.680  81.197 109.184  0.00  0.00    -0.090 HD
ATOM     21  H   LIG d   1      -0.910  79.674 109.740  0.00  0.00    -0.090 HD
ENDBRANCH   5  18
BRANCH   3  22
ATOM     22  C   LIG d   1       3.660  82.828 110.685  0.00  0.00     0.382 C 
ATOM     23  O   LIG d   1       4.280  82.391 109.685  0.00  0.00    -0.241 OA
ATOM     24  O   LIG d   1       4.143  83.770 111.343  0.00  0.00    -0.241 OA
ENDBRANCH   3  22
TORSDOF 7
ENDMDL
MODEL 2
REMARK VINA RESULT:      -5.2      1.203      1.626
REMARK  7 active torsions:
REMARK  status: ('A' for Active; 'I' for Inactive)
REMARK    1  A    between atoms: C_2  and  C_3 
REMARK    2  A    between atoms: C_3  and  O_6 
REMARK    3  A    between atoms: C_3  and  C_4 
REMARK    4  A    between atoms: C_7  and  O_6 
REMARK    5  A    between atoms: C_9  and  C_10 
REMARK    6  A    between atoms: N_15  and  C_14 
REMARK    7  A    between atoms: N_20  and  C_19 
REMARK       I    between atoms: C_22  and  N_20 
ROOT
ATOM      1  C   LIG d   1       0.004  80.907 113.333  0.00  0.00     0.161 C 
ATOM      2  C   LIG d   1       0.962  81.919 113.159  0.00  0.00     0.016 C 
ATOM      3  C   LIG d   1       1.437  82.332 111.893  0.00  0.00     0.038 C 
ATOM      4  C   LIG d   1       0.871  81.861 110.699  0.00  0.00     0.028 C 
ATOM      5  C   LIG d   1       0.255  80.472 110.827  0.00  0.00    -0.047 C 
ATOM      6  C   LIG d   1      -0.706  80.459 112.038  0.00  0.00     0.091 C 
ENDROOT
BRANCH   1   7
ATOM      7  O   LIG d   1      -0.964  81.314 114.320  0.00  0.00    -0.368 OA
BRANCH   7   8
ATOM      8  C   LIG d   1      -0.823  80.722 115.634  0.00  0.00     0.119 C 
BRANCH   8   9
ATOM      9  C   LIG d   1      -2.208  80.197 116.057  0.00  0.00     0.028 C 
ATOM     10  C   LIG d   1      -3.336  81.192 115.736  0.00  0.00     0.006 C 
ENDBRANCH   8   9
BRANCH   8  11
ATOM     11  C   LIG d   1      -0.450  81.774 116.683  0.00  0.00     0.028 C 
ATOM     12  C   LIG d   1       1.069  81.923 116.863  0.00  0.00     0.006 C 
ENDBRANCH   8  11
ENDBRANCH   7   8
ENDBRANCH   1   7
BRANCH   6  13
ATOM     13  N   LIG d   1      -1.287  79.114 112.286  0.00  0.00    -0.311 N 
ATOM     14  C   LIG d   1      -2.575  78.910 112.558  0.00  0.00     0.210 C 
ATOM     15  C   LIG d   1      -2.962  77.448 112.801  0.00  0.00     0.109 C 
ATOM     16  O   LIG d   1      -3.440  79.799 112.591  0.00  0.00    -0.276 OA
ATOM     17  H   LIG d   1      -0.662  78.333 112.248  0.00  0.00     0.149 HD
ENDBRANCH   6  13
BRANCH   5  18
ATOM     18  N   LIG d   1      -0.418  80.163 109.551  0.00  0.00     0.381 N 
ATOM     19  H   LIG d   1      -0.252  79.208 109.304  0.00  0.00    -0.090 HD
ATOM     20  H   LIG d   1      -0.032  80.747 108.831  0.00  0.00    -0.090 HD
ATOM     21  H   LIG d   1      -1.397  80.327 109.634  0.00  0.00    -0.090 HD
ENDBRANCH   5  18
BRANCH   3  22
ATOM     22  C   LIG d   1       2.517  83.197 111.813  0.00  0.00     0.382 C 
ATOM     23  O   LIG d   1       2.398  84.386 112.195  0.00  0.00    -0.241 OA
ATOM     24  O   LIG d   1       3.597  82.816 111.322  0.00  0.00    -0.241 OA
ENDBRANCH   3  22
TORSDOF 7
ENDMDL
MODEL 3
REMARK VINA RESULT:      -5.0      2.483      6.088
REMARK  7 active torsions:
REMARK  status: ('A' for Active; 'I' for Inactive)
REMARK    1  A    between atoms: C_2  and  C_3 
REMARK    2  A    between atoms: C_3  and  O_6 
REMARK    3  A    between atoms: C_3  and  C_4 
REMARK    4  A    between atoms: C_7  and  O_6 
REMARK    5  A    between atoms: C_9  and  C_10 
REMARK    6  A    between atoms: N_15  and  C_14 
REMARK    7  A    between atoms: N_20  and  C_19 
REMARK       I    between atoms: C_22  and  N_20 
ROOT
ATOM      1  C   LIG d   1       0.803  81.220 113.383  0.00  0.00     0.161 C 
ATOM      2  C   LIG d   1      -0.520  81.234 112.911  0.00  0.00     0.016 C 
ATOM      3  C   LIG d   1      -1.634  80.881 113.706  0.00  0.00     0.038 C 
ATOM      4  C   LIG d   1      -1.515  80.634 115.082  0.00  0.00     0.028 C 
ATOM      5  C   LIG d   1      -0.139  80.117 115.487  0.00  0.00    -0.047 C 
ATOM      6  C   LIG d   1       0.942  81.060 114.912  0.00  0.00     0.091 C 
ENDROOT
BRANCH   1   7
ATOM      7  O   LIG d   1       1.494  82.404 112.938  0.00  0.00    -0.368 OA
BRANCH   7   8
ATOM      8  C   LIG d   1       1.667  82.540 111.506  0.00  0.00     0.119 C 
BRANCH   8   9
ATOM      9  C   LIG d   1       3.075  82.022 111.159  0.00  0.00     0.028 C 
ATOM     10  C   LIG d   1       3.048  80.931 110.075  0.00  0.00     0.006 C 
ENDBRANCH   8   9
BRANCH   8  11
ATOM     11  C   LIG d   1       1.661  84.012 111.082  0.00  0.00     0.028 C 
ATOM     12  C   LIG d   1       0.828  84.263 109.815  0.00  0.00     0.006 C 
ENDBRANCH   8  11
ENDBRANCH   7   8
ENDBRANCH   1   7
BRANCH   6  13
ATOM     13  N   LIG d   1       2.321  80.580 115.190  0.00  0.00    -0.311 N 
ATOM     14  C   LIG d   1       3.021  80.943 116.264  0.00  0.00     0.210 C 
ATOM     15  C   LIG d   1       4.430  80.349 116.348  0.00  0.00     0.109 C 
ATOM     16  O   LIG d   1       2.597  81.676 117.170  0.00  0.00    -0.276 OA
ATOM     17  H   LIG d   1       2.730  79.957 114.522  0.00  0.00     0.149 HD
ENDBRANCH   6  13
BRANCH   5  18
ATOM     18  N   LIG d   1      -0.109  80.034 116.959  0.00  0.00     0.381 N 
ATOM     19  H   LIG d   1       0.788  79.712 117.263  0.00  0.00    -0.090 HD
ATOM     20  H   LIG d   1      -0.801  79.370 117.261  0.00  0.00    -0.090 HD
ATOM     21  H   LIG d   1      -0.301  80.928 117.355  0.00  0.00    -0.090 HD
ENDBRANCH   5  18
BRANCH   3  22
ATOM     22  C   LIG d   1      -2.881  80.734 113.117  0.00  0.00     0.382 C 
ATOM     23  O   LIG d   1      -3.433  79.608 113.091  0.00  0.00    -0.241 OA
ATOM     24  O   LIG d   1      -3.440  81.704 112.571  0.00  0.00    -0.241 OA
ENDBRANCH   3  22
TORSDOF 7
ENDMDL
MODEL 4
REMARK VINA RESULT:      -4.9      3.238      5.384
REMARK  7 active torsions:
REMARK  status: ('A' for Active; 'I' for Inactive)
REMARK    1  A    between atoms: C_2  and  C_3 
REMARK    2  A    between atoms: C_3  and  O_6 
REMARK    3  A    between atoms: C_3  and  C_4 
REMARK    4  A    between atoms: C_7  and  O_6 
REMARK    5  A    between atoms: C_9  and  C_10 
REMARK    6  A    between atoms: N_15  and  C_14 
REMARK    7  A    between atoms: N_20  and  C_19 
REMARK       I    between atoms: C_22  and  N_20 
ROOT
ATOM      1  C   LIG d   1      -2.779  80.454 114.149  0.00  0.00     0.161 C 
ATOM      2  C   LIG d   1      -2.340  81.229 113.063  0.00  0.00     0.016 C 
ATOM      3  C   LIG d   1      -1.068  81.845 113.011  0.00  0.00     0.038 C 
ATOM      4  C   LIG d   1      -0.086  81.602 113.982  0.00  0.00     0.028 C 
ATOM      5  C   LIG d   1      -0.660  81.234 115.346  0.00  0.00    -0.047 C 
ATOM      6  C   LIG d   1      -1.680  80.086 115.167  0.00  0.00     0.091 C 
ENDROOT
BRANCH   1   7
ATOM      7  O   LIG d   1      -3.434  79.264 113.667  0.00  0.00    -0.368 OA
BRANCH   7   8
ATOM      8  C   LIG d   1      -2.565  78.203 113.200  0.00  0.00     0.119 C 
BRANCH   8   9
ATOM      9  C   LIG d   1      -3.031  77.812 111.784  0.00  0.00     0.028 C 
ATOM     10  C   LIG d   1      -1.878  77.810 110.766  0.00  0.00     0.006 C 
ENDBRANCH   8   9
BRANCH   8  11
ATOM     11  C   LIG d   1      -2.728  76.936 114.045  0.00  0.00     0.028 C 
ATOM     12  C   LIG d   1      -1.397  76.208 114.291  0.00  0.00     0.006 C 
ENDBRANCH   8  11
ENDBRANCH   7   8
ENDBRANCH   1   7
BRANCH   6  13
ATOM     13  N   LIG d   1      -2.351  79.721 116.442  0.00  0.00    -0.311 N 
ATOM     14  C   LIG d   1      -1.895  78.782 117.269  0.00  0.00     0.210 C 
ATOM     15  C   LIG d   1      -2.749  78.549 118.518  0.00  0.00     0.109 C 
ATOM     16  O   LIG d   1      -0.845  78.142 117.102  0.00  0.00    -0.276 OA
ATOM     17  H   LIG d   1      -3.193  80.213 116.671  0.00  0.00     0.149 HD
ENDBRANCH   6  13
BRANCH   5  18
ATOM     18  N   LIG d   1       0.470  80.873 116.223  0.00  0.00     0.381 N 
ATOM     19  H   LIG d   1       1.297  80.747 115.675  0.00  0.00    -0.090 HD
ATOM     20  H   LIG d   1       0.260  80.004 116.682  0.00  0.00    -0.090 HD
ATOM     21  H   LIG d   1       0.617  81.588 116.900  0.00  0.00    -0.090 HD
ENDBRANCH   5  18
BRANCH   3  22
ATOM     22  C   LIG d   1      -0.784  82.748 111.998  0.00  0.00     0.382 C 
ATOM     23  O   LIG d   1       0.148  83.576 112.139  0.00  0.00    -0.241 OA
ATOM     24  O   LIG d   1      -1.476  82.775 110.962  0.00  0.00    -0.241 OA
ENDBRANCH   3  22
TORSDOF 7
ENDMDL
MODEL 5
REMARK VINA RESULT:      -4.6      1.318      2.111
REMARK  7 active torsions:
REMARK  status: ('A' for Active; 'I' for Inactive)
REMARK    1  A    between atoms: C_2  and  C_3 
REMARK    2  A    between atoms: C_3  and  O_6 
REMARK    3  A    between atoms: C_3  and  C_4 
REMARK    4  A    between atoms: C_7  and  O_6 
REMARK    5  A    between atoms: C_9  and  C_10 
REMARK    6  A    between atoms: N_15  and  C_14 
REMARK    7  A    between atoms: N_20  and  C_19 
REMARK       I    between atoms: C_22  and  N_20 
ROOT
ATOM      1  C   LIG d   1       1.285  81.031 112.580  0.00  0.00     0.161 C 
ATOM      2  C   LIG d   1       2.415  81.798 112.251  0.00  0.00     0.016 C 
ATOM      3  C   LIG d   1       2.361  82.955 111.440  0.00  0.00     0.038 C 
ATOM      4  C   LIG d   1       1.143  83.512 111.024  0.00  0.00     0.028 C 
ATOM      5  C   LIG d   1       0.016  82.490 110.910  0.00  0.00    -0.047 C 
ATOM      6  C   LIG d   1      -0.066  81.686 112.228  0.00  0.00     0.091 C 
ENDROOT
BRANCH   1   7
ATOM      7  O   LIG d   1       1.323  80.680 113.978  0.00  0.00    -0.368 OA
BRANCH   7   8
ATOM      8  C   LIG d   1       1.055  81.755 114.912  0.00  0.00     0.119 C 
BRANCH   8   9
ATOM      9  C   LIG d   1       2.308  81.925 115.793  0.00  0.00     0.028 C 
ATOM     10  C   LIG d   1       3.194  80.667 115.803  0.00  0.00     0.006 C 
ENDBRANCH   8   9
BRANCH   8  11
ATOM     11  C   LIG d   1      -0.074  81.386 115.878  0.00  0.00     0.028 C 
ATOM     12  C   LIG d   1      -0.394  79.883 115.873  0.00  0.00     0.006 C 
ENDBRANCH   8  11
ENDBRANCH   7   8
ENDBRANCH   1   7
BRANCH   6  13
ATOM     13  N   LIG d   1      -1.088  80.608 112.170  0.00  0.00    -0.311 N 
ATOM     14  C   LIG d   1      -2.240  80.653 112.836  0.00  0.00     0.210 C 
ATOM     15  C   LIG d   1      -3.141  79.428 112.653  0.00  0.00     0.109 C 
ATOM     16  O   LIG d   1      -2.616  81.606 113.534  0.00  0.00    -0.276 OA
ATOM     17  H   LIG d   1      -0.878  79.811 111.602  0.00  0.00     0.149 HD
ENDBRANCH   6  13
BRANCH   5  18
ATOM     18  N   LIG d   1      -1.224  83.227 110.603  0.00  0.00     0.381 N 
ATOM     19  H   LIG d   1      -1.001  84.146 110.279  0.00  0.00    -0.090 HD
ATOM     20  H   LIG d   1      -1.768  83.312 111.444  0.00  0.00    -0.090 HD
ATOM     21  H   LIG d   1      -1.747  82.740 109.909  0.00  0.00    -0.090 HD
ENDBRANCH   5  18
BRANCH   3  22
ATOM     22  C   LIG d   1       3.538  83.544 111.003  0.00  0.00     0.382 C 
ATOM     23  O   LIG d   1       4.108  84.406 111.714  0.00  0.00    -0.241 OA
ATOM     24  O   LIG d   1       4.012  83.256 109.888  0.00  0.00    -0.241 OA
ENDBRANCH   3  22
TORSDOF 7
ENDMDL
MODEL 6
REMARK VINA RESULT:      -4.5      2.777      3.851
REMARK  7 active torsions:
REMARK  status: ('A' for Active; 'I' for Inactive)
REMARK    1  A    between atoms: C_2  and  C_3 
REMARK    2  A    between atoms: C_3  and  O_6 
REMARK    3  A    between atoms: C_3  and  C_4 
REMARK    4  A    between atoms: C_7  and  O_6 
REMARK    5  A    between atoms: C_9  and  C_10 
REMARK    6  A    between atoms: N_15  and  C_14 
REMARK    7  A    between atoms: N_20  and  C_19 
REMARK       I    between atoms: C_22  and  N_20 
ROOT
ATOM      1  C   LIG d   1      -0.340  79.970 114.594  0.00  0.00     0.161 C 
ATOM      2  C   LIG d   1      -0.340  81.226 113.966  0.00  0.00     0.016 C 
ATOM      3  C   LIG d   1      -0.947  81.471 112.713  0.00  0.00     0.038 C 
ATOM      4  C   LIG d   1      -1.732  80.503 112.069  0.00  0.00     0.028 C 
ATOM      5  C   LIG d   1      -1.339  79.072 112.420  0.00  0.00    -0.047 C 
ATOM      6  C   LIG d   1      -1.286  78.929 113.958  0.00  0.00     0.091 C 
ENDROOT
BRANCH   1   7
ATOM      7  O   LIG d   1      -0.634  80.124 115.996  0.00  0.00    -0.368 OA
BRANCH   7   8
ATOM      8  C   LIG d   1      -1.317  81.344 116.374  0.00  0.00     0.119 C 
BRANCH   8   9
ATOM      9  C   LIG d   1      -0.624  81.890 117.637  0.00  0.00     0.028 C 
ATOM     10  C   LIG d   1       0.810  82.371 117.359  0.00  0.00     0.006 C 
ENDBRANCH   8   9
BRANCH   8  11
ATOM     11  C   LIG d   1      -2.764  81.066 116.793  0.00  0.00     0.028 C 
ATOM     12  C   LIG d   1      -3.440  82.283 117.444  0.00  0.00     0.006 C 
ENDBRANCH   8  11
ENDBRANCH   7   8
ENDBRANCH   1   7
BRANCH   6  13
ATOM     13  N   LIG d   1      -0.827  77.583 114.387  0.00  0.00    -0.311 N 
ATOM     14  C   LIG d   1      -1.654  76.563 114.612  0.00  0.00     0.210 C 
ATOM     15  C   LIG d   1      -0.975  75.267 115.067  0.00  0.00     0.109 C 
ATOM     16  O   LIG d   1      -2.883  76.600 114.448  0.00  0.00    -0.276 OA
ATOM     17  H   LIG d   1       0.158  77.455 114.515  0.00  0.00     0.149 HD
ENDBRANCH   6  13
BRANCH   5  18
ATOM     18  N   LIG d   1      -2.322  78.172 111.789  0.00  0.00     0.381 N 
ATOM     19  H   LIG d   1      -2.089  77.220 111.992  0.00  0.00    -0.090 HD
ATOM     20  H   LIG d   1      -2.289  78.300 110.793  0.00  0.00    -0.090 HD
ATOM     21  H   LIG d   1      -3.237  78.376 112.127  0.00  0.00    -0.090 HD
ENDBRANCH   5  18
BRANCH   3  22
ATOM     22  C   LIG d   1      -0.739  82.683 112.073  0.00  0.00     0.382 C 
ATOM     23  O   LIG d   1      -1.513  83.048 111.156  0.00  0.00    -0.241 OA
ATOM     24  O   LIG d   1       0.239  83.395 112.371  0.00  0.00    -0.241 OA
ENDBRANCH   3  22
TORSDOF 7
ENDMDL
MODEL 7
REMARK VINA RESULT:      -4.5      1.671      2.291
REMARK  7 active torsions:
REMARK  status: ('A' for Active; 'I' for Inactive)
REMARK    1  A    between atoms: C_2  and  C_3 
REMARK    2  A    between atoms: C_3  and  O_6 
REMARK    3  A    between atoms: C_3  and  C_4 
REMARK    4  A    between atoms: C_7  and  O_6 
REMARK    5  A    between atoms: C_9  and  C_10 
REMARK    6  A    between atoms: N_15  and  C_14 
REMARK    7  A    between atoms: N_20  and  C_19 
REMARK       I    between atoms: C_22  and  N_20 
ROOT
ATOM      1  C   LIG d   1       0.748  81.042 114.444  0.00  0.00     0.161 C 
ATOM      2  C   LIG d   1       1.734  81.262 113.468  0.00  0.00     0.016 C 
ATOM      3  C   LIG d   1       1.527  81.033 112.088  0.00  0.00     0.038 C 
ATOM      4  C   LIG d   1       0.264  80.710 111.571  0.00  0.00     0.028 C 
ATOM      5  C   LIG d   1      -0.633  79.987 112.571  0.00  0.00    -0.047 C 
ATOM      6  C   LIG d   1      -0.670  80.796 113.888  0.00  0.00     0.091 C 
ENDROOT
BRANCH   1   7
ATOM      7  O   LIG d   1       0.736  82.137 115.381  0.00  0.00    -0.368 OA
BRANCH   7   8
ATOM      8  C   LIG d   1       1.290  81.861 116.692  0.00  0.00     0.119 C 
BRANCH   8   9
ATOM      9  C   LIG d   1       0.526  82.730 117.709  0.00  0.00     0.028 C 
ATOM     10  C   LIG d   1      -0.959  82.345 117.813  0.00  0.00     0.006 C 
ENDBRANCH   8   9
BRANCH   8  11
ATOM     11  C   LIG d   1       2.750  82.314 116.786  0.00  0.00     0.028 C 
ATOM     12  C   LIG d   1       3.744  81.151 116.647  0.00  0.00     0.006 C 
ENDBRANCH   8  11
ENDBRANCH   7   8
ENDBRANCH   1   7
BRANCH   6  13
ATOM     13  N   LIG d   1      -1.457  80.116 114.949  0.00  0.00    -0.311 N 
ATOM     14  C   LIG d   1      -2.742  80.374 115.188  0.00  0.00     0.210 C 
ATOM     15  C   LIG d   1      -3.358  79.576 116.341  0.00  0.00     0.109 C 
ATOM     16  O   LIG d   1      -3.437  81.166 114.535  0.00  0.00    -0.276 OA
ATOM     17  H   LIG d   1      -0.979  79.435 115.507  0.00  0.00     0.149 HD
ENDBRANCH   6  13
BRANCH   5  18
ATOM     18  N   LIG d   1      -1.962  79.834 111.949  0.00  0.00     0.381 N 
ATOM     19  H   LIG d   1      -2.505  80.660 112.104  0.00  0.00    -0.090 HD
ATOM     20  H   LIG d   1      -2.435  79.060 112.380  0.00  0.00    -0.090 HD
ATOM     21  H   LIG d   1      -1.864  79.671 110.971  0.00  0.00    -0.090 HD
ENDBRANCH   5  18
BRANCH   3  22
ATOM     22  C   LIG d   1       2.602  81.088 111.214  0.00  0.00     0.382 C 
ATOM     23  O   LIG d   1       3.608  81.781 111.500  0.00  0.00    -0.241 OA
ATOM     24  O   LIG d   1       2.560  80.489 110.122  0.00  0.00    -0.241 OA
ENDBRANCH   3  22
TORSDOF 7
ENDMDL
MODEL 8
REMARK VINA RESULT:      -4.4      2.998      5.318
REMARK  7 active torsions:
REMARK  status: ('A' for Active; 'I' for Inactive)
REMARK    1  A    between atoms: C_2  and  C_3 
REMARK    2  A    between atoms: C_3  and  O_6 
REMARK    3  A    between atoms: C_3  and  C_4 
REMARK    4  A    between atoms: C_7  and  O_6 
REMARK    5  A    between atoms: C_9  and  C_10 
REMARK    6  A    between atoms: N_15  and  C_14 
REMARK    7  A    between atoms: N_20  and  C_19 
REMARK       I    between atoms: C_22  and  N_20 
ROOT
ATOM      1  C   LIG d   1      -0.618  81.260 115.978  0.00  0.00     0.161 C 
ATOM      2  C   LIG d   1      -1.748  80.943 115.205  0.00  0.00     0.016 C 
ATOM      3  C   LIG d   1      -1.700  80.729 113.809  0.00  0.00     0.038 C 
ATOM      4  C   LIG d   1      -0.486  80.668 113.109  0.00  0.00     0.028 C 
ATOM      5  C   LIG d   1       0.629  81.480 113.758  0.00  0.00    -0.047 C 
ATOM      6  C   LIG d   1       0.732  81.088 115.250  0.00  0.00     0.091 C 
ENDROOT
BRANCH   1   7
ATOM      7  O   LIG d   1      -0.630  80.494 117.198  0.00  0.00    -0.368 OA
BRANCH   7   8
ATOM      8  C   LIG d   1      -0.820  81.247 118.422  0.00  0.00     0.119 C 
BRANCH   8   9
ATOM      9  C   LIG d   1      -1.066  82.716 118.028  0.00  0.00     0.028 C 
ATOM     10  C   LIG d   1      -0.182  83.693 118.821  0.00  0.00     0.006 C 
ENDBRANCH   8   9
BRANCH   8  11
ATOM     11  C   LIG d   1       0.455  81.262 119.270  0.00  0.00     0.028 C 
ATOM     12  C   LIG d   1       1.312  80.001 119.080  0.00  0.00     0.006 C 
ENDBRANCH   8  11
ENDBRANCH   7   8
ENDBRANCH   1   7
BRANCH   6  13
ATOM     13  N   LIG d   1       1.742  81.897 115.980  0.00  0.00    -0.311 N 
ATOM     14  C   LIG d   1       3.028  81.561 116.065  0.00  0.00     0.210 C 
ATOM     15  C   LIG d   1       3.896  82.523 116.882  0.00  0.00     0.109 C 
ATOM     16  O   LIG d   1       3.539  80.574 115.514  0.00  0.00    -0.276 OA
ATOM     17  H   LIG d   1       1.420  82.731 116.431  0.00  0.00     0.149 HD
ENDBRANCH   6  13
BRANCH   5  18
ATOM     18  N   LIG d   1       1.869  81.217 113.005  0.00  0.00     0.381 N 
ATOM     19  H   LIG d   1       2.311  80.391 113.357  0.00  0.00    -0.090 HD
ATOM     20  H   LIG d   1       2.498  81.990 113.134  0.00  0.00    -0.090 HD
ATOM     21  H   LIG d   1       1.663  81.105 112.037  0.00  0.00    -0.090 HD
ENDBRANCH   5  18
BRANCH   3  22
ATOM     22  C   LIG d   1      -2.881  80.612 113.091  0.00  0.00     0.382 C 
ATOM     23  O   LIG d   1      -3.418  81.633 112.597  0.00  0.00    -0.241 OA
ATOM     24  O   LIG d   1      -3.439  79.506 112.968  0.00  0.00    -0.241 OA
ENDBRANCH   3  22
TORSDOF 7
ENDMDL
MODEL 9
REMARK VINA RESULT:      -4.4      2.523      6.084
REMARK  7 active torsions:
REMARK  status: ('A' for Active; 'I' for Inactive)
REMARK    1  A    between atoms: C_2  and  C_3 
REMARK    2  A    between atoms: C_3  and  O_6 
REMARK    3  A    between atoms: C_3  and  C_4 
REMARK    4  A    between atoms: C_7  and  O_6 
REMARK    5  A    between atoms: C_9  and  C_10 
REMARK    6  A    between atoms: N_15  and  C_14 
REMARK    7  A    between atoms: N_20  and  C_19 
REMARK       I    between atoms: C_22  and  N_20 
ROOT
ATOM      1  C   LIG d   1      -0.464  80.414 112.196  0.00  0.00     0.161 C 
ATOM      2  C   LIG d   1      -1.237  79.344 111.716  0.00  0.00     0.016 C 
ATOM      3  C   LIG d   1      -2.266  78.730 112.466  0.00  0.00     0.038 C 
ATOM      4  C   LIG d   1      -2.696  79.248 113.698  0.00  0.00     0.028 C 
ATOM      5  C   LIG d   1      -1.610  80.015 114.444  0.00  0.00    -0.047 C 
ATOM      6  C   LIG d   1      -0.991  81.064 113.492  0.00  0.00     0.091 C 
ENDROOT
BRANCH   1   7
ATOM      7  O   LIG d   1      -0.312  81.409 111.163  0.00  0.00    -0.368 OA
BRANCH   7   8
ATOM      8  C   LIG d   1       0.857  81.275 110.317  0.00  0.00     0.119 C 
BRANCH   8   9
ATOM      9  C   LIG d   1       2.065  81.010 111.235  0.00  0.00     0.028 C 
ATOM     10  C   LIG d   1       3.400  81.042 110.472  0.00  0.00     0.006 C 
ENDBRANCH   8   9
BRANCH   8  11
ATOM     11  C   LIG d   1       1.175  82.588 109.596  0.00  0.00     0.028 C 
ATOM     12  C   LIG d   1       0.472  83.800 110.227  0.00  0.00     0.006 C 
ENDBRANCH   8  11
ENDBRANCH   7   8
ENDBRANCH   1   7
BRANCH   6  13
ATOM     13  N   LIG d   1       0.137  81.801 114.117  0.00  0.00    -0.311 N 
ATOM     14  C   LIG d   1       0.981  81.250 114.988  0.00  0.00     0.210 C 
ATOM     15  C   LIG d   1       2.062  82.192 115.527  0.00  0.00     0.109 C 
ATOM     16  O   LIG d   1       0.957  80.061 115.340  0.00  0.00    -0.276 OA
ATOM     17  H   LIG d   1       0.249  82.763 113.864  0.00  0.00     0.149 HD
ENDBRANCH   6  13
BRANCH   5  18
ATOM     18  N   LIG d   1      -2.230  80.614 115.641  0.00  0.00     0.381 N 
ATOM     19  H   LIG d   1      -2.342  81.599 115.507  0.00  0.00    -0.090 HD
ATOM     20  H   LIG d   1      -1.622  80.470 116.429  0.00  0.00    -0.090 HD
ATOM     21  H   LIG d   1      -3.115  80.192 115.814  0.00  0.00    -0.090 HD
ENDBRANCH   5  18
BRANCH   3  22
ATOM     22  C   LIG d   1      -2.851  77.562 112.003  0.00  0.00     0.382 C 
ATOM     23  O   LIG d   1      -3.440  76.795 112.803  0.00  0.00    -0.241 OA
ATOM     24  O   LIG d   1      -2.759  77.242 110.803  0.00  0.00    -0.241 OA
ENDBRANCH   3  22
TORSDOF 7
ENDMDL
