MODEL 1
REMARK VINA RESULT:      -4.4      0.000      0.000
REMARK  7 active torsions:
REMARK  status: ('A' for Active; 'I' for Inactive)
REMARK    1  A    between atoms: C_2  and  C_3 
REMARK    2  A    between atoms: C_3  and  O_6 
REMARK    3  A    between atoms: C_3  and  C_4 
REMARK    4  A    between atoms: C_7  and  O_6 
REMARK    5  A    between atoms: C_9  and  C_10 
REMARK    6  A    between atoms: N_15  and  C_14 
REMARK    7  A    between atoms: N_20  and  C_19 
REMARK       I    between atoms: C_22  and  N_20 
ROOT
ATOM      1  C   LIG d   1      -0.235  78.055 116.916  0.00  0.00     0.161 C 
ATOM      2  C   LIG d   1      -1.096  78.423 115.868  0.00  0.00     0.016 C 
ATOM      3  C   LIG d   1      -1.614  77.503 114.928  0.00  0.00     0.038 C 
ATOM      4  C   LIG d   1      -1.427  76.120 115.063  0.00  0.00     0.028 C 
ATOM      5  C   LIG d   1      -0.151  75.752 115.813  0.00  0.00    -0.047 C 
ATOM      6  C   LIG d   1      -0.109  76.535 117.146  0.00  0.00     0.091 C 
ENDROOT
BRANCH   1   7
ATOM      7  O   LIG d   1      -0.638  78.714 118.133  0.00  0.00    -0.368 OA
BRANCH   7   8
ATOM      8  C   LIG d   1      -2.055  78.981 118.274  0.00  0.00     0.119 C 
BRANCH   8   9
ATOM      9  C   LIG d   1      -2.201  80.331 119.004  0.00  0.00     0.028 C 
ATOM     10  C   LIG d   1      -1.034  81.287 118.707  0.00  0.00     0.006 C 
ENDBRANCH   8   9
BRANCH   8  11
ATOM     11  C   LIG d   1      -2.728  77.952 119.187  0.00  0.00     0.028 C 
ATOM     12  C   LIG d   1      -3.439  76.836 118.405  0.00  0.00     0.006 C 
ENDBRANCH   8  11
ENDBRANCH   7   8
ENDBRANCH   1   7
BRANCH   6  13
ATOM     13  N   LIG d   1       1.147  76.297 117.903  0.00  0.00    -0.311 N 
ATOM     14  C   LIG d   1       1.253  75.405 118.887  0.00  0.00     0.210 C 
ATOM     15  C   LIG d   1       2.632  75.333 119.549  0.00  0.00     0.109 C 
ATOM     16  O   LIG d   1       0.344  74.643 119.251  0.00  0.00    -0.276 OA
ATOM     17  H   LIG d   1       1.943  76.850 117.652  0.00  0.00     0.149 HD
ENDBRANCH   6  13
BRANCH   5  18
ATOM     18  N   LIG d   1      -0.152  74.289 116.002  0.00  0.00     0.381 N 
ATOM     19  H   LIG d   1      -0.720  73.857 115.301  0.00  0.00    -0.090 HD
ATOM     20  H   LIG d   1      -0.545  74.077 116.902  0.00  0.00    -0.090 HD
ATOM     21  H   LIG d   1       0.779  73.938 115.948  0.00  0.00    -0.090 HD
ENDBRANCH   5  18
BRANCH   3  22
ATOM     22  C   LIG d   1      -2.297  77.970 113.815  0.00  0.00     0.382 C 
ATOM     23  O   LIG d   1      -2.691  79.160 113.775  0.00  0.00    -0.241 OA
ATOM     24  O   LIG d   1      -2.561  77.204 112.869  0.00  0.00    -0.241 OA
ENDBRANCH   3  22
TORSDOF 7
ENDMDL
MODEL 2
REMARK VINA RESULT:      -4.2      1.232      1.981
REMARK  7 active torsions:
REMARK  status: ('A' for Active; 'I' for Inactive)
REMARK    1  A    between atoms: C_2  and  C_3 
REMARK    2  A    between atoms: C_3  and  O_6 
REMARK    3  A    between atoms: C_3  and  C_4 
REMARK    4  A    between atoms: C_7  and  O_6 
REMARK    5  A    between atoms: C_9  and  C_10 
REMARK    6  A    between atoms: N_15  and  C_14 
REMARK    7  A    between atoms: N_20  and  C_19 
REMARK       I    between atoms: C_22  and  N_20 
ROOT
ATOM      1  C   LIG d   1      -0.269  77.960 116.744  0.00  0.00     0.161 C 
ATOM      2  C   LIG d   1      -1.066  78.382 115.667  0.00  0.00     0.016 C 
ATOM      3  C   LIG d   1      -1.514  77.515 114.644  0.00  0.00     0.038 C 
ATOM      4  C   LIG d   1      -1.321  76.127 114.711  0.00  0.00     0.028 C 
ATOM      5  C   LIG d   1      -0.091  75.725 115.519  0.00  0.00    -0.047 C 
ATOM      6  C   LIG d   1      -0.141  76.430 116.894  0.00  0.00     0.091 C 
ENDROOT
BRANCH   1   7
ATOM      7  O   LIG d   1      -0.755  78.544 117.969  0.00  0.00    -0.368 OA
BRANCH   7   8
ATOM      8  C   LIG d   1       0.075  79.577 118.556  0.00  0.00     0.119 C 
BRANCH   8   9
ATOM      9  C   LIG d   1      -0.660  80.920 118.375  0.00  0.00     0.028 C 
ATOM     10  C   LIG d   1      -1.995  80.965 119.136  0.00  0.00     0.006 C 
ENDBRANCH   8   9
BRANCH   8  11
ATOM     11  C   LIG d   1       1.394  79.731 117.794  0.00  0.00     0.028 C 
ATOM     12  C   LIG d   1       1.590  81.144 117.221  0.00  0.00     0.006 C 
ENDBRANCH   8  11
ENDBRANCH   7   8
ENDBRANCH   1   7
BRANCH   6  13
ATOM     13  N   LIG d   1       1.067  76.157 117.715  0.00  0.00    -0.311 N 
ATOM     14  C   LIG d   1       1.029  75.539 118.894  0.00  0.00     0.210 C 
ATOM     15  C   LIG d   1       2.387  75.377 119.584  0.00  0.00     0.109 C 
ATOM     16  O   LIG d   1       0.003  75.081 119.419  0.00  0.00    -0.276 OA
ATOM     17  H   LIG d   1       1.946  76.468 117.349  0.00  0.00     0.149 HD
ENDBRANCH   6  13
BRANCH   5  18
ATOM     18  N   LIG d   1      -0.088  74.254 115.623  0.00  0.00     0.381 N 
ATOM     19  H   LIG d   1       0.474  73.864 114.893  0.00  0.00    -0.090 HD
ATOM     20  H   LIG d   1      -1.028  73.918 115.511  0.00  0.00    -0.090 HD
ATOM     21  H   LIG d   1       0.269  73.975 116.511  0.00  0.00    -0.090 HD
ENDBRANCH   5  18
BRANCH   3  22
ATOM     22  C   LIG d   1      -2.130  78.040 113.518  0.00  0.00     0.382 C 
ATOM     23  O   LIG d   1      -2.783  79.108 113.602  0.00  0.00    -0.241 OA
ATOM     24  O   LIG d   1      -2.078  77.436 112.430  0.00  0.00    -0.241 OA
ENDBRANCH   3  22
TORSDOF 7
ENDMDL
MODEL 3
REMARK VINA RESULT:      -4.2      2.656      4.736
REMARK  7 active torsions:
REMARK  status: ('A' for Active; 'I' for Inactive)
REMARK    1  A    between atoms: C_2  and  C_3 
REMARK    2  A    between atoms: C_3  and  O_6 
REMARK    3  A    between atoms: C_3  and  C_4 
REMARK    4  A    between atoms: C_7  and  O_6 
REMARK    5  A    between atoms: C_9  and  C_10 
REMARK    6  A    between atoms: N_15  and  C_14 
REMARK    7  A    between atoms: N_20  and  C_19 
REMARK       I    between atoms: C_22  and  N_20 
ROOT
ATOM      1  C   LIG d   1      -0.590  77.821 117.854  0.00  0.00     0.161 C 
ATOM      2  C   LIG d   1      -0.962  76.556 117.371  0.00  0.00     0.016 C 
ATOM      3  C   LIG d   1      -1.146  76.270 115.998  0.00  0.00     0.038 C 
ATOM      4  C   LIG d   1      -0.821  77.198 114.998  0.00  0.00     0.028 C 
ATOM      5  C   LIG d   1      -0.925  78.647 115.459  0.00  0.00    -0.047 C 
ATOM      6  C   LIG d   1      -0.123  78.815 116.770  0.00  0.00     0.091 C 
ENDROOT
BRANCH   1   7
ATOM      7  O   LIG d   1       0.420  77.678 118.872  0.00  0.00    -0.368 OA
BRANCH   7   8
ATOM      8  C   LIG d   1       1.461  76.706 118.604  0.00  0.00     0.119 C 
BRANCH   8   9
ATOM      9  C   LIG d   1       1.640  75.857 119.877  0.00  0.00     0.028 C 
ATOM     10  C   LIG d   1       0.923  74.499 119.782  0.00  0.00     0.006 C 
ENDBRANCH   8   9
BRANCH   8  11
ATOM     11  C   LIG d   1       2.814  77.387 118.378  0.00  0.00     0.028 C 
ATOM     12  C   LIG d   1       3.976  76.644 119.057  0.00  0.00     0.006 C 
ENDBRANCH   8  11
ENDBRANCH   7   8
ENDBRANCH   1   7
BRANCH   6  13
ATOM     13  N   LIG d   1      -0.241  80.185 117.335  0.00  0.00    -0.311 N 
ATOM     14  C   LIG d   1       0.809  80.945 117.640  0.00  0.00     0.210 C 
ATOM     15  C   LIG d   1       0.464  82.317 118.230  0.00  0.00     0.109 C 
ATOM     16  O   LIG d   1       1.992  80.627 117.449  0.00  0.00    -0.276 OA
ATOM     17  H   LIG d   1      -1.166  80.535 117.494  0.00  0.00     0.149 HD
ENDBRANCH   6  13
BRANCH   5  18
ATOM     18  N   LIG d   1      -0.426  79.500 114.364  0.00  0.00     0.381 N 
ATOM     19  H   LIG d   1      -1.178  79.728 113.744  0.00  0.00    -0.090 HD
ATOM     20  H   LIG d   1       0.267  78.991 113.845  0.00  0.00    -0.090 HD
ATOM     21  H   LIG d   1      -0.028  80.335 114.735  0.00  0.00    -0.090 HD
ENDBRANCH   5  18
BRANCH   3  22
ATOM     22  C   LIG d   1      -1.698  75.056 115.617  0.00  0.00     0.382 C 
ATOM     23  O   LIG d   1      -2.698  74.604 116.225  0.00  0.00    -0.241 OA
ATOM     24  O   LIG d   1      -1.183  74.388 114.702  0.00  0.00    -0.241 OA
ENDBRANCH   3  22
TORSDOF 7
ENDMDL
MODEL 4
REMARK VINA RESULT:      -4.1      2.370      4.356
REMARK  7 active torsions:
REMARK  status: ('A' for Active; 'I' for Inactive)
REMARK    1  A    between atoms: C_2  and  C_3 
REMARK    2  A    between atoms: C_3  and  O_6 
REMARK    3  A    between atoms: C_3  and  C_4 
REMARK    4  A    between atoms: C_7  and  O_6 
REMARK    5  A    between atoms: C_9  and  C_10 
REMARK    6  A    between atoms: N_15  and  C_14 
REMARK    7  A    between atoms: N_20  and  C_19 
REMARK       I    between atoms: C_22  and  N_20 
ROOT
ATOM      1  C   LIG d   1      -1.466  77.947 117.791  0.00  0.00     0.161 C 
ATOM      2  C   LIG d   1      -2.074  76.783 117.290  0.00  0.00     0.016 C 
ATOM      3  C   LIG d   1      -2.145  76.474 115.913  0.00  0.00     0.038 C 
ATOM      4  C   LIG d   1      -1.476  77.239 114.945  0.00  0.00     0.028 C 
ATOM      5  C   LIG d   1      -1.278  78.694 115.355  0.00  0.00    -0.047 C 
ATOM      6  C   LIG d   1      -0.634  78.737 116.760  0.00  0.00     0.091 C 
ENDROOT
BRANCH   1   7
ATOM      7  O   LIG d   1      -0.661  77.622 118.941  0.00  0.00    -0.368 OA
BRANCH   7   8
ATOM      8  C   LIG d   1       0.131  76.412 118.843  0.00  0.00     0.119 C 
BRANCH   8   9
ATOM      9  C   LIG d   1      -0.371  75.441 119.930  0.00  0.00     0.028 C 
ATOM     10  C   LIG d   1      -1.029  74.185 119.336  0.00  0.00     0.006 C 
ENDBRANCH   8   9
BRANCH   8  11
ATOM     11  C   LIG d   1       1.600  76.679 119.185  0.00  0.00     0.028 C 
ATOM     12  C   LIG d   1       2.400  75.388 119.423  0.00  0.00     0.006 C 
ENDBRANCH   8  11
ENDBRANCH   7   8
ENDBRANCH   1   7
BRANCH   6  13
ATOM     13  N   LIG d   1      -0.483  80.124 117.272  0.00  0.00    -0.311 N 
ATOM     14  C   LIG d   1       0.661  80.608 117.753  0.00  0.00     0.210 C 
ATOM     15  C   LIG d   1       0.594  82.056 118.248  0.00  0.00     0.109 C 
ATOM     16  O   LIG d   1       1.733  79.985 117.788  0.00  0.00    -0.276 OA
ATOM     17  H   LIG d   1      -1.296  80.709 117.252  0.00  0.00     0.149 HD
ENDBRANCH   6  13
BRANCH   5  18
ATOM     18  N   LIG d   1      -0.449  79.340 114.319  0.00  0.00     0.381 N 
ATOM     19  H   LIG d   1       0.035  80.123 114.712  0.00  0.00    -0.090 HD
ATOM     20  H   LIG d   1      -1.048  79.676 113.586  0.00  0.00    -0.090 HD
ATOM     21  H   LIG d   1       0.206  78.686 113.950  0.00  0.00    -0.090 HD
ENDBRANCH   5  18
BRANCH   3  22
ATOM     22  C   LIG d   1      -2.925  75.410 115.487  0.00  0.00     0.382 C 
ATOM     23  O   LIG d   1      -3.440  75.429 114.342  0.00  0.00    -0.241 OA
ATOM     24  O   LIG d   1      -3.158  74.452 116.248  0.00  0.00    -0.241 OA
ENDBRANCH   3  22
TORSDOF 7
ENDMDL
MODEL 5
REMARK VINA RESULT:      -4.1      1.970      2.890
REMARK  7 active torsions:
REMARK  status: ('A' for Active; 'I' for Inactive)
REMARK    1  A    between atoms: C_2  and  C_3 
REMARK    2  A    between atoms: C_3  and  O_6 
REMARK    3  A    between atoms: C_3  and  C_4 
REMARK    4  A    between atoms: C_7  and  O_6 
REMARK    5  A    between atoms: C_9  and  C_10 
REMARK    6  A    between atoms: N_15  and  C_14 
REMARK    7  A    between atoms: N_20  and  C_19 
REMARK       I    between atoms: C_22  and  N_20 
ROOT
ATOM      1  C   LIG d   1      -0.623  78.248 115.950  0.00  0.00     0.161 C 
ATOM      2  C   LIG d   1      -1.032  79.075 114.890  0.00  0.00     0.016 C 
ATOM      3  C   LIG d   1      -2.037  78.714 113.964  0.00  0.00     0.038 C 
ATOM      4  C   LIG d   1      -2.812  77.556 114.126  0.00  0.00     0.028 C 
ATOM      5  C   LIG d   1      -2.095  76.448 114.891  0.00  0.00    -0.047 C 
ATOM      6  C   LIG d   1      -1.535  77.031 116.208  0.00  0.00     0.091 C 
ENDROOT
BRANCH   1   7
ATOM      7  O   LIG d   1      -0.479  79.030 117.152  0.00  0.00    -0.368 OA
BRANCH   7   8
ATOM      8  C   LIG d   1       0.665  79.917 117.203  0.00  0.00     0.119 C 
BRANCH   8   9
ATOM      9  C   LIG d   1       1.781  79.189 117.977  0.00  0.00     0.028 C 
ATOM     10  C   LIG d   1       1.226  78.231 119.044  0.00  0.00     0.006 C 
ENDBRANCH   8   9
BRANCH   8  11
ATOM     11  C   LIG d   1       0.360  81.176 118.020  0.00  0.00     0.028 C 
ATOM     12  C   LIG d   1      -1.036  81.144 118.663  0.00  0.00     0.006 C 
ENDBRANCH   8  11
ENDBRANCH   7   8
ENDBRANCH   1   7
BRANCH   6  13
ATOM     13  N   LIG d   1      -0.746  76.034 116.978  0.00  0.00    -0.311 N 
ATOM     14  C   LIG d   1      -1.237  75.347 118.008  0.00  0.00     0.210 C 
ATOM     15  C   LIG d   1      -0.249  74.385 118.674  0.00  0.00     0.109 C 
ATOM     16  O   LIG d   1      -2.407  75.420 118.413  0.00  0.00    -0.276 OA
ATOM     17  H   LIG d   1       0.204  75.889 116.698  0.00  0.00     0.149 HD
ENDBRANCH   6  13
BRANCH   5  18
ATOM     18  N   LIG d   1      -3.064  75.357 115.106  0.00  0.00     0.381 N 
ATOM     19  H   LIG d   1      -2.577  74.489 115.216  0.00  0.00    -0.090 HD
ATOM     20  H   LIG d   1      -3.658  75.285 114.299  0.00  0.00    -0.090 HD
ATOM     21  H   LIG d   1      -3.612  75.543 115.917  0.00  0.00    -0.090 HD
ENDBRANCH   5  18
BRANCH   3  22
ATOM     22  C   LIG d   1      -2.247  79.495 112.838  0.00  0.00     0.382 C 
ATOM     23  O   LIG d   1      -1.560  79.305 111.805  0.00  0.00    -0.241 OA
ATOM     24  O   LIG d   1      -3.084  80.417 112.857  0.00  0.00    -0.241 OA
ENDBRANCH   3  22
TORSDOF 7
ENDMDL
MODEL 6
REMARK VINA RESULT:      -3.8      4.294      6.051
REMARK  7 active torsions:
REMARK  status: ('A' for Active; 'I' for Inactive)
REMARK    1  A    between atoms: C_2  and  C_3 
REMARK    2  A    between atoms: C_3  and  O_6 
REMARK    3  A    between atoms: C_3  and  C_4 
REMARK    4  A    between atoms: C_7  and  O_6 
REMARK    5  A    between atoms: C_9  and  C_10 
REMARK    6  A    between atoms: N_15  and  C_14 
REMARK    7  A    between atoms: N_20  and  C_19 
REMARK       I    between atoms: C_22  and  N_20 
ROOT
ATOM      1  C   LIG d   1      -0.920  79.956 112.947  0.00  0.00     0.161 C 
ATOM      2  C   LIG d   1      -1.525  78.843 112.341  0.00  0.00     0.016 C 
ATOM      3  C   LIG d   1      -1.203  78.394 111.040  0.00  0.00     0.038 C 
ATOM      4  C   LIG d   1      -0.139  78.941 110.309  0.00  0.00     0.028 C 
ATOM      5  C   LIG d   1       0.165  80.390 110.674  0.00  0.00    -0.047 C 
ATOM      6  C   LIG d   1       0.322  80.498 112.208  0.00  0.00     0.091 C 
ENDROOT
BRANCH   1   7
ATOM      7  O   LIG d   1      -0.594  79.650 114.317  0.00  0.00    -0.368 OA
BRANCH   7   8
ATOM      8  C   LIG d   1      -1.174  78.436 114.855  0.00  0.00     0.119 C 
BRANCH   8   9
ATOM      9  C   LIG d   1      -2.365  78.847 115.742  0.00  0.00     0.028 C 
ATOM     10  C   LIG d   1      -2.002  78.873 117.236  0.00  0.00     0.006 C 
ENDBRANCH   8   9
BRANCH   8  11
ATOM     11  C   LIG d   1      -0.198  77.720 115.792  0.00  0.00     0.028 C 
ATOM     12  C   LIG d   1      -0.047  76.225 115.465  0.00  0.00     0.006 C 
ENDBRANCH   8  11
ENDBRANCH   7   8
ENDBRANCH   1   7
BRANCH   6  13
ATOM     13  N   LIG d   1       0.538  81.898 112.659  0.00  0.00    -0.311 N 
ATOM     14  C   LIG d   1       1.743  82.416 112.891  0.00  0.00     0.210 C 
ATOM     15  C   LIG d   1       1.740  83.872 113.368  0.00  0.00     0.109 C 
ATOM     16  O   LIG d   1       2.815  81.818 112.716  0.00  0.00    -0.276 OA
ATOM     17  H   LIG d   1      -0.277  82.464 112.796  0.00  0.00     0.149 HD
ENDBRANCH   6  13
BRANCH   5  18
ATOM     18  N   LIG d   1       1.380  80.790 109.939  0.00  0.00     0.381 N 
ATOM     19  H   LIG d   1       2.045  81.184 110.574  0.00  0.00    -0.090 HD
ATOM     20  H   LIG d   1       1.135  81.492 109.263  0.00  0.00    -0.090 HD
ATOM     21  H   LIG d   1       1.776  80.000 109.480  0.00  0.00    -0.090 HD
ENDBRANCH   5  18
BRANCH   3  22
ATOM     22  C   LIG d   1      -1.977  77.411 110.441  0.00  0.00     0.382 C 
ATOM     23  O   LIG d   1      -3.215  77.578 110.316  0.00  0.00    -0.241 OA
ATOM     24  O   LIG d   1      -1.461  76.342 110.064  0.00  0.00    -0.241 OA
ENDBRANCH   3  22
TORSDOF 7
ENDMDL
MODEL 7
REMARK VINA RESULT:      -3.4      2.317      4.504
REMARK  7 active torsions:
REMARK  status: ('A' for Active; 'I' for Inactive)
REMARK    1  A    between atoms: C_2  and  C_3 
REMARK    2  A    between atoms: C_3  and  O_6 
REMARK    3  A    between atoms: C_3  and  C_4 
REMARK    4  A    between atoms: C_7  and  O_6 
REMARK    5  A    between atoms: C_9  and  C_10 
REMARK    6  A    between atoms: N_15  and  C_14 
REMARK    7  A    between atoms: N_20  and  C_19 
REMARK       I    between atoms: C_22  and  N_20 
ROOT
ATOM      1  C   LIG d   1       0.756  77.438 117.081  0.00  0.00     0.161 C 
ATOM      2  C   LIG d   1       0.458  78.465 117.993  0.00  0.00     0.016 C 
ATOM      3  C   LIG d   1      -0.740  79.214 117.956  0.00  0.00     0.038 C 
ATOM      4  C   LIG d   1      -1.795  78.884 117.093  0.00  0.00     0.028 C 
ATOM      5  C   LIG d   1      -1.338  78.182 115.819  0.00  0.00    -0.047 C 
ATOM      6  C   LIG d   1      -0.430  76.990 116.201  0.00  0.00     0.091 C 
ENDROOT
BRANCH   1   7
ATOM      7  O   LIG d   1       1.315  76.309 117.782  0.00  0.00    -0.368 OA
BRANCH   7   8
ATOM      8  C   LIG d   1       0.655  75.935 119.016  0.00  0.00     0.119 C 
BRANCH   8   9
ATOM      9  C   LIG d   1       1.557  74.910 119.731  0.00  0.00     0.028 C 
ATOM     10  C   LIG d   1       2.993  75.427 119.925  0.00  0.00     0.006 C 
ENDBRANCH   8   9
BRANCH   8  11
ATOM     11  C   LIG d   1      -0.660  75.198 118.744  0.00  0.00     0.028 C 
ATOM     12  C   LIG d   1      -1.815  75.696 119.626  0.00  0.00     0.006 C 
ENDBRANCH   8  11
ENDBRANCH   7   8
ENDBRANCH   1   7
BRANCH   6  13
ATOM     13  N   LIG d   1       0.129  76.299 115.011  0.00  0.00    -0.311 N 
ATOM     14  C   LIG d   1       0.100  74.977 114.850  0.00  0.00     0.210 C 
ATOM     15  C   LIG d   1       0.750  74.468 113.559  0.00  0.00     0.109 C 
ATOM     16  O   LIG d   1      -0.432  74.180 115.638  0.00  0.00    -0.276 OA
ATOM     17  H   LIG d   1       0.552  76.872 114.307  0.00  0.00     0.149 HD
ENDBRANCH   6  13
BRANCH   5  18
ATOM     18  N   LIG d   1      -2.546  77.773 115.077  0.00  0.00     0.381 N 
ATOM     19  H   LIG d   1      -2.305  77.089 114.388  0.00  0.00    -0.090 HD
ATOM     20  H   LIG d   1      -2.924  78.576 114.606  0.00  0.00    -0.090 HD
ATOM     21  H   LIG d   1      -3.221  77.398 115.705  0.00  0.00    -0.090 HD
ENDBRANCH   5  18
BRANCH   3  22
ATOM     22  C   LIG d   1      -0.876  80.333 118.765  0.00  0.00     0.382 C 
ATOM     23  O   LIG d   1      -1.960  80.964 118.784  0.00  0.00    -0.241 OA
ATOM     24  O   LIG d   1       0.086  80.744 119.440  0.00  0.00    -0.241 OA
ENDBRANCH   3  22
TORSDOF 7
ENDMDL
MODEL 8
REMARK VINA RESULT:      -3.4      2.835      4.893
REMARK  7 active torsions:
REMARK  status: ('A' for Active; 'I' for Inactive)
REMARK    1  A    between atoms: C_2  and  C_3 
REMARK    2  A    between atoms: C_3  and  O_6 
REMARK    3  A    between atoms: C_3  and  C_4 
REMARK    4  A    between atoms: C_7  and  O_6 
REMARK    5  A    between atoms: C_9  and  C_10 
REMARK    6  A    between atoms: N_15  and  C_14 
REMARK    7  A    between atoms: N_20  and  C_19 
REMARK       I    between atoms: C_22  and  N_20 
ROOT
ATOM      1  C   LIG d   1       1.239  77.565 118.671  0.00  0.00     0.161 C 
ATOM      2  C   LIG d   1       0.008  78.242 118.655  0.00  0.00     0.016 C 
ATOM      3  C   LIG d   1      -0.146  79.566 118.183  0.00  0.00     0.038 C 
ATOM      4  C   LIG d   1       0.900  80.254 117.551  0.00  0.00     0.028 C 
ATOM      5  C   LIG d   1       2.284  79.799 118.002  0.00  0.00    -0.047 C 
ATOM      6  C   LIG d   1       2.369  78.260 117.883  0.00  0.00     0.091 C 
ENDROOT
BRANCH   1   7
ATOM      7  O   LIG d   1       1.059  76.213 118.203  0.00  0.00    -0.368 OA
BRANCH   7   8
ATOM      8  C   LIG d   1      -0.128  75.966 117.410  0.00  0.00     0.119 C 
BRANCH   8   9
ATOM      9  C   LIG d   1      -0.511  74.485 117.601  0.00  0.00     0.028 C 
ATOM     10  C   LIG d   1      -1.426  74.268 118.818  0.00  0.00     0.006 C 
ENDBRANCH   8   9
BRANCH   8  11
ATOM     11  C   LIG d   1       0.158  76.121 115.914  0.00  0.00     0.028 C 
ATOM     12  C   LIG d   1      -0.764  77.145 115.234  0.00  0.00     0.006 C 
ENDBRANCH   8  11
ENDBRANCH   7   8
ENDBRANCH   1   7
BRANCH   6  13
ATOM     13  N   LIG d   1       3.661  77.723 118.383  0.00  0.00    -0.311 N 
ATOM     14  C   LIG d   1       4.720  77.515 117.602  0.00  0.00     0.210 C 
ATOM     15  C   LIG d   1       5.946  76.937 118.316  0.00  0.00     0.109 C 
ATOM     16  O   LIG d   1       4.770  77.784 116.392  0.00  0.00    -0.276 OA
ATOM     17  H   LIG d   1       3.718  77.507 119.359  0.00  0.00     0.149 HD
ENDBRANCH   6  13
BRANCH   5  18
ATOM     18  N   LIG d   1       3.277  80.499 117.166  0.00  0.00     0.381 N 
ATOM     19  H   LIG d   1       2.863  80.758 116.293  0.00  0.00    -0.090 HD
ATOM     20  H   LIG d   1       4.043  79.875 116.979  0.00  0.00    -0.090 HD
ATOM     21  H   LIG d   1       3.609  81.311 117.638  0.00  0.00    -0.090 HD
ENDBRANCH   5  18
BRANCH   3  22
ATOM     22  C   LIG d   1      -1.348  80.229 118.379  0.00  0.00     0.382 C 
ATOM     23  O   LIG d   1      -2.433  79.642 118.150  0.00  0.00    -0.241 OA
ATOM     24  O   LIG d   1      -1.360  81.422 118.738  0.00  0.00    -0.241 OA
ENDBRANCH   3  22
TORSDOF 7
ENDMDL
MODEL 9
REMARK VINA RESULT:      -3.2      2.383      4.665
REMARK  7 active torsions:
REMARK  status: ('A' for Active; 'I' for Inactive)
REMARK    1  A    between atoms: C_2  and  C_3 
REMARK    2  A    between atoms: C_3  and  O_6 
REMARK    3  A    between atoms: C_3  and  C_4 
REMARK    4  A    between atoms: C_7  and  O_6 
REMARK    5  A    between atoms: C_9  and  C_10 
REMARK    6  A    between atoms: N_15  and  C_14 
REMARK    7  A    between atoms: N_20  and  C_19 
REMARK       I    between atoms: C_22  and  N_20 
ROOT
ATOM      1  C   LIG d   1       0.161  77.887 117.054  0.00  0.00     0.161 C 
ATOM      2  C   LIG d   1       0.179  79.289 116.961  0.00  0.00     0.016 C 
ATOM      3  C   LIG d   1       1.157  80.097 117.586  0.00  0.00     0.038 C 
ATOM      4  C   LIG d   1       2.276  79.545 118.226  0.00  0.00     0.028 C 
ATOM      5  C   LIG d   1       2.030  78.144 118.776  0.00  0.00    -0.047 C 
ATOM      6  C   LIG d   1       1.437  77.262 117.655  0.00  0.00     0.091 C 
ENDROOT
BRANCH   1   7
ATOM      7  O   LIG d   1      -0.116  77.315 115.760  0.00  0.00    -0.368 OA
BRANCH   7   8
ATOM      8  C   LIG d   1      -1.461  76.817 115.557  0.00  0.00     0.119 C 
BRANCH   8   9
ATOM      9  C   LIG d   1      -1.388  75.277 115.554  0.00  0.00     0.028 C 
ATOM     10  C   LIG d   1      -0.101  74.752 114.896  0.00  0.00     0.006 C 
ENDBRANCH   8   9
BRANCH   8  11
ATOM     11  C   LIG d   1      -1.995  77.201 114.175  0.00  0.00     0.028 C 
ATOM     12  C   LIG d   1      -1.669  78.653 113.792  0.00  0.00     0.006 C 
ENDBRANCH   8  11
ENDBRANCH   7   8
ENDBRANCH   1   7
BRANCH   6  13
ATOM     13  N   LIG d   1       1.088  75.898 118.132  0.00  0.00    -0.311 N 
ATOM     14  C   LIG d   1       0.127  75.656 119.021  0.00  0.00     0.210 C 
ATOM     15  C   LIG d   1      -0.056  74.180 119.390  0.00  0.00     0.109 C 
ATOM     16  O   LIG d   1      -0.614  76.519 119.514  0.00  0.00    -0.276 OA
ATOM     17  H   LIG d   1       1.618  75.135 117.759  0.00  0.00     0.149 HD
ENDBRANCH   6  13
BRANCH   5  18
ATOM     18  N   LIG d   1       3.315  77.637 119.293  0.00  0.00     0.381 N 
ATOM     19  H   LIG d   1       3.360  77.774 120.283  0.00  0.00    -0.090 HD
ATOM     20  H   LIG d   1       4.064  78.155 118.868  0.00  0.00    -0.090 HD
ATOM     21  H   LIG d   1       3.409  76.668 119.081  0.00  0.00    -0.090 HD
ENDBRANCH   5  18
BRANCH   3  22
ATOM     22  C   LIG d   1       0.997  81.474 117.609  0.00  0.00     0.382 C 
ATOM     23  O   LIG d   1       0.452  82.026 118.595  0.00  0.00    -0.241 OA
ATOM     24  O   LIG d   1       1.351  82.167 116.636  0.00  0.00    -0.241 OA
ENDBRANCH   3  22
TORSDOF 7
ENDMDL
