MODEL 1
REMARK VINA RESULT:      -5.2      0.000      0.000
REMARK  7 active torsions:
REMARK  status: ('A' for Active; 'I' for Inactive)
REMARK    1  A    between atoms: C_2  and  C_3 
REMARK    2  A    between atoms: C_3  and  O_6 
REMARK    3  A    between atoms: C_3  and  C_4 
REMARK    4  A    between atoms: C_7  and  O_6 
REMARK    5  A    between atoms: C_9  and  C_10 
REMARK    6  A    between atoms: N_15  and  C_14 
REMARK    7  A    between atoms: N_20  and  C_19 
REMARK       I    between atoms: C_22  and  N_20 
ROOT
ATOM      1  C   LIG d   1      -0.619  79.697 115.136  0.00  0.00     0.161 C 
ATOM      2  C   LIG d   1      -0.845  81.033 114.764  0.00  0.00     0.016 C 
ATOM      3  C   LIG d   1      -1.551  81.406 113.597  0.00  0.00     0.038 C 
ATOM      4  C   LIG d   1      -2.213  80.463 112.797  0.00  0.00     0.028 C 
ATOM      5  C   LIG d   1      -1.587  79.074 112.855  0.00  0.00    -0.047 C 
ATOM      6  C   LIG d   1      -1.428  78.656 114.335  0.00  0.00     0.091 C 
ENDROOT
BRANCH   1   7
ATOM      7  O   LIG d   1      -0.856  79.537 116.549  0.00  0.00    -0.368 OA
BRANCH   7   8
ATOM      8  C   LIG d   1      -2.162  79.033 116.923  0.00  0.00     0.119 C 
BRANCH   8   9
ATOM      9  C   LIG d   1      -2.889  80.154 117.690  0.00  0.00     0.028 C 
ATOM     10  C   LIG d   1      -2.376  80.307 119.132  0.00  0.00     0.006 C 
ENDBRANCH   8   9
BRANCH   8  11
ATOM     11  C   LIG d   1      -2.048  77.871 117.915  0.00  0.00     0.028 C 
ATOM     12  C   LIG d   1      -3.174  76.838 117.754  0.00  0.00     0.006 C 
ENDBRANCH   8  11
ENDBRANCH   7   8
ENDBRANCH   1   7
BRANCH   6  13
ATOM     13  N   LIG d   1      -0.746  77.344 114.484  0.00  0.00    -0.311 N 
ATOM     14  C   LIG d   1      -1.392  76.180 114.502  0.00  0.00     0.210 C 
ATOM     15  C   LIG d   1      -0.500  74.948 114.686  0.00  0.00     0.109 C 
ATOM     16  O   LIG d   1      -2.616  76.048 114.352  0.00  0.00    -0.276 OA
ATOM     17  H   LIG d   1       0.250  77.357 114.581  0.00  0.00     0.149 HD
ENDBRANCH   6  13
BRANCH   5  18
ATOM     18  N   LIG d   1      -2.454  78.162 112.087  0.00  0.00     0.381 N 
ATOM     19  H   LIG d   1      -2.986  77.592 112.713  0.00  0.00    -0.090 HD
ATOM     20  H   LIG d   1      -1.877  77.560 111.526  0.00  0.00    -0.090 HD
ATOM     21  H   LIG d   1      -3.067  78.686 111.501  0.00  0.00    -0.090 HD
ENDBRANCH   5  18
BRANCH   3  22
ATOM     22  C   LIG d   1      -1.566  82.734 113.199  0.00  0.00     0.382 C 
ATOM     23  O   LIG d   1      -1.535  83.023 111.978  0.00  0.00    -0.241 OA
ATOM     24  O   LIG d   1      -1.565  83.648 114.046  0.00  0.00    -0.241 OA
ENDBRANCH   3  22
TORSDOF 7
ENDMDL
MODEL 2
REMARK VINA RESULT:      -5.2      4.126      6.301
REMARK  7 active torsions:
REMARK  status: ('A' for Active; 'I' for Inactive)
REMARK    1  A    between atoms: C_2  and  C_3 
REMARK    2  A    between atoms: C_3  and  O_6 
REMARK    3  A    between atoms: C_3  and  C_4 
REMARK    4  A    between atoms: C_7  and  O_6 
REMARK    5  A    between atoms: C_9  and  C_10 
REMARK    6  A    between atoms: N_15  and  C_14 
REMARK    7  A    between atoms: N_20  and  C_19 
REMARK       I    between atoms: C_22  and  N_20 
ROOT
ATOM      1  C   LIG d   1       0.443  83.489 112.408  0.00  0.00     0.161 C 
ATOM      2  C   LIG d   1      -0.752  83.108 113.041  0.00  0.00     0.016 C 
ATOM      3  C   LIG d   1      -1.350  81.838 112.875  0.00  0.00     0.038 C 
ATOM      4  C   LIG d   1      -0.709  80.802 112.179  0.00  0.00     0.028 C 
ATOM      5  C   LIG d   1       0.254  81.299 111.106  0.00  0.00    -0.047 C 
ATOM      6  C   LIG d   1       1.214  82.335 111.734  0.00  0.00     0.091 C 
ENDROOT
BRANCH   1   7
ATOM      7  O   LIG d   1       1.293  84.180 113.345  0.00  0.00    -0.368 OA
BRANCH   7   8
ATOM      8  C   LIG d   1       2.351  83.392 113.946  0.00  0.00     0.119 C 
BRANCH   8   9
ATOM      9  C   LIG d   1       1.979  83.169 115.424  0.00  0.00     0.028 C 
ATOM     10  C   LIG d   1       1.470  81.742 115.692  0.00  0.00     0.006 C 
ENDBRANCH   8   9
BRANCH   8  11
ATOM     11  C   LIG d   1       3.674  84.164 113.973  0.00  0.00     0.028 C 
ATOM     12  C   LIG d   1       4.208  84.381 115.397  0.00  0.00     0.006 C 
ENDBRANCH   8  11
ENDBRANCH   7   8
ENDBRANCH   1   7
BRANCH   6  13
ATOM     13  N   LIG d   1       2.135  82.934 110.733  0.00  0.00    -0.311 N 
ATOM     14  C   LIG d   1       3.356  82.463 110.486  0.00  0.00     0.210 C 
ATOM     15  C   LIG d   1       4.148  83.241 109.431  0.00  0.00     0.109 C 
ATOM     16  O   LIG d   1       3.847  81.456 111.019  0.00  0.00    -0.276 OA
ATOM     17  H   LIG d   1       1.806  83.736 110.232  0.00  0.00     0.149 HD
ENDBRANCH   6  13
BRANCH   5  18
ATOM     18  N   LIG d   1       0.953  80.123 110.555  0.00  0.00     0.381 N 
ATOM     19  H   LIG d   1       0.642  79.294 111.022  0.00  0.00    -0.090 HD
ATOM     20  H   LIG d   1       1.939  80.225 110.717  0.00  0.00    -0.090 HD
ATOM     21  H   LIG d   1       0.776  80.047 109.577  0.00  0.00    -0.090 HD
ENDBRANCH   5  18
BRANCH   3  22
ATOM     22  C   LIG d   1      -2.622  81.606 113.376  0.00  0.00     0.382 C 
ATOM     23  O   LIG d   1      -3.356  80.738 112.845  0.00  0.00    -0.241 OA
ATOM     24  O   LIG d   1      -3.061  82.286 114.323  0.00  0.00    -0.241 OA
ENDBRANCH   3  22
TORSDOF 7
ENDMDL
MODEL 3
REMARK VINA RESULT:      -5.2      4.017      5.612
REMARK  7 active torsions:
REMARK  status: ('A' for Active; 'I' for Inactive)
REMARK    1  A    between atoms: C_2  and  C_3 
REMARK    2  A    between atoms: C_3  and  O_6 
REMARK    3  A    between atoms: C_3  and  C_4 
REMARK    4  A    between atoms: C_7  and  O_6 
REMARK    5  A    between atoms: C_9  and  C_10 
REMARK    6  A    between atoms: N_15  and  C_14 
REMARK    7  A    between atoms: N_20  and  C_19 
REMARK       I    between atoms: C_22  and  N_20 
ROOT
ATOM      1  C   LIG d   1       1.324  82.229 112.429  0.00  0.00     0.161 C 
ATOM      2  C   LIG d   1       2.406  82.731 111.687  0.00  0.00     0.016 C 
ATOM      3  C   LIG d   1       2.608  82.449 110.316  0.00  0.00     0.038 C 
ATOM      4  C   LIG d   1       1.652  81.763 109.552  0.00  0.00     0.028 C 
ATOM      5  C   LIG d   1       0.792  80.808 110.373  0.00  0.00    -0.047 C 
ATOM      6  C   LIG d   1       0.212  81.571 111.586  0.00  0.00     0.091 C 
ENDROOT
BRANCH   1   7
ATOM      7  O   LIG d   1       0.774  83.272 113.257  0.00  0.00    -0.368 OA
BRANCH   7   8
ATOM      8  C   LIG d   1       0.989  83.133 114.683  0.00  0.00     0.119 C 
BRANCH   8   9
ATOM      9  C   LIG d   1       2.031  84.189 115.100  0.00  0.00     0.028 C 
ATOM     10  C   LIG d   1       3.347  83.557 115.581  0.00  0.00     0.006 C 
ENDBRANCH   8   9
BRANCH   8  11
ATOM     11  C   LIG d   1       1.623  81.781 115.022  0.00  0.00     0.028 C 
ATOM     12  C   LIG d   1       0.712  80.895 115.886  0.00  0.00     0.006 C 
ENDBRANCH   8  11
ENDBRANCH   7   8
ENDBRANCH   1   7
BRANCH   6  13
ATOM     13  N   LIG d   1      -0.573  80.689 112.488  0.00  0.00    -0.311 N 
ATOM     14  C   LIG d   1      -1.760  81.025 112.991  0.00  0.00     0.210 C 
ATOM     15  C   LIG d   1      -2.390  79.978 113.915  0.00  0.00     0.109 C 
ATOM     16  O   LIG d   1      -2.365  82.077 112.735  0.00  0.00    -0.276 OA
ATOM     17  H   LIG d   1      -0.171  79.803 112.723  0.00  0.00     0.149 HD
ENDBRANCH   6  13
BRANCH   5  18
ATOM     18  N   LIG d   1      -0.249  80.265 109.480  0.00  0.00     0.381 N 
ATOM     19  H   LIG d   1      -0.620  79.421 109.866  0.00  0.00    -0.090 HD
ATOM     20  H   LIG d   1       0.166  80.049 108.591  0.00  0.00    -0.090 HD
ATOM     21  H   LIG d   1      -0.978  80.933 109.360  0.00  0.00    -0.090 HD
ENDBRANCH   5  18
BRANCH   3  22
ATOM     22  C   LIG d   1       3.796  82.820 109.705  0.00  0.00     0.382 C 
ATOM     23  O   LIG d   1       4.658  81.951 109.430  0.00  0.00    -0.241 OA
ATOM     24  O   LIG d   1       4.036  84.019 109.466  0.00  0.00    -0.241 OA
ENDBRANCH   3  22
TORSDOF 7
ENDMDL
MODEL 4
REMARK VINA RESULT:      -5.2      3.984      5.783
REMARK  7 active torsions:
REMARK  status: ('A' for Active; 'I' for Inactive)
REMARK    1  A    between atoms: C_2  and  C_3 
REMARK    2  A    between atoms: C_3  and  O_6 
REMARK    3  A    between atoms: C_3  and  C_4 
REMARK    4  A    between atoms: C_7  and  O_6 
REMARK    5  A    between atoms: C_9  and  C_10 
REMARK    6  A    between atoms: N_15  and  C_14 
REMARK    7  A    between atoms: N_20  and  C_19 
REMARK       I    between atoms: C_22  and  N_20 
ROOT
ATOM      1  C   LIG d   1       0.870  82.902 112.519  0.00  0.00     0.161 C 
ATOM      2  C   LIG d   1      -0.329  82.658 113.209  0.00  0.00     0.016 C 
ATOM      3  C   LIG d   1      -1.159  81.542 112.956  0.00  0.00     0.038 C 
ATOM      4  C   LIG d   1      -0.769  80.508 112.093  0.00  0.00     0.028 C 
ATOM      5  C   LIG d   1       0.194  80.961 111.001  0.00  0.00    -0.047 C 
ATOM      6  C   LIG d   1       1.368  81.726 111.653  0.00  0.00     0.091 C 
ENDROOT
BRANCH   1   7
ATOM      7  O   LIG d   1       1.894  83.310 113.447  0.00  0.00    -0.368 OA
BRANCH   7   8
ATOM      8  C   LIG d   1       1.518  83.325 114.846  0.00  0.00     0.119 C 
BRANCH   8   9
ATOM      9  C   LIG d   1       1.997  84.664 115.440  0.00  0.00     0.028 C 
ATOM     10  C   LIG d   1       3.278  84.510 116.277  0.00  0.00     0.006 C 
ENDBRANCH   8   9
BRANCH   8  11
ATOM     11  C   LIG d   1       2.260  82.243 115.635  0.00  0.00     0.028 C 
ATOM     12  C   LIG d   1       1.320  81.163 116.194  0.00  0.00     0.006 C 
ENDBRANCH   8  11
ENDBRANCH   7   8
ENDBRANCH   1   7
BRANCH   6  13
ATOM     13  N   LIG d   1       2.313  82.278 110.647  0.00  0.00    -0.311 N 
ATOM     14  C   LIG d   1       3.625  82.050 110.671  0.00  0.00     0.210 C 
ATOM     15  C   LIG d   1       4.421  82.729 109.552  0.00  0.00     0.109 C 
ATOM     16  O   LIG d   1       4.202  81.324 111.495  0.00  0.00    -0.276 OA
ATOM     17  H   LIG d   1       1.926  82.853 109.924  0.00  0.00     0.149 HD
ENDBRANCH   6  13
BRANCH   5  18
ATOM     18  N   LIG d   1       0.626  79.760 110.261  0.00  0.00     0.381 N 
ATOM     19  H   LIG d   1       0.160  79.721 109.377  0.00  0.00    -0.090 HD
ATOM     20  H   LIG d   1       0.371  78.944 110.789  0.00  0.00    -0.090 HD
ATOM     21  H   LIG d   1       1.613  79.781 110.124  0.00  0.00    -0.090 HD
ENDBRANCH   5  18
BRANCH   3  22
ATOM     22  C   LIG d   1      -2.415  81.474 113.540  0.00  0.00     0.382 C 
ATOM     23  O   LIG d   1      -3.440  81.701 112.852  0.00  0.00    -0.241 OA
ATOM     24  O   LIG d   1      -2.534  81.232 114.756  0.00  0.00    -0.241 OA
ENDBRANCH   3  22
TORSDOF 7
ENDMDL
MODEL 5
REMARK VINA RESULT:      -5.0      2.278      3.590
REMARK  7 active torsions:
REMARK  status: ('A' for Active; 'I' for Inactive)
REMARK    1  A    between atoms: C_2  and  C_3 
REMARK    2  A    between atoms: C_3  and  O_6 
REMARK    3  A    between atoms: C_3  and  C_4 
REMARK    4  A    between atoms: C_7  and  O_6 
REMARK    5  A    between atoms: C_9  and  C_10 
REMARK    6  A    between atoms: N_15  and  C_14 
REMARK    7  A    between atoms: N_20  and  C_19 
REMARK       I    between atoms: C_22  and  N_20 
ROOT
ATOM      1  C   LIG d   1      -2.187  79.241 116.203  0.00  0.00     0.161 C 
ATOM      2  C   LIG d   1      -2.629  80.140 115.219  0.00  0.00     0.016 C 
ATOM      3  C   LIG d   1      -1.776  81.056 114.561  0.00  0.00     0.038 C 
ATOM      4  C   LIG d   1      -0.385  81.030 114.736  0.00  0.00     0.028 C 
ATOM      5  C   LIG d   1       0.045  80.480 116.092  0.00  0.00    -0.047 C 
ATOM      6  C   LIG d   1      -0.653  79.121 116.327  0.00  0.00     0.091 C 
ENDROOT
BRANCH   1   7
ATOM      7  O   LIG d   1      -2.774  77.944 115.978  0.00  0.00    -0.368 OA
BRANCH   7   8
ATOM      8  C   LIG d   1      -2.107  77.101 115.006  0.00  0.00     0.119 C 
BRANCH   8   9
ATOM      9  C   LIG d   1      -3.019  77.012 113.768  0.00  0.00     0.028 C 
ATOM     10  C   LIG d   1      -2.516  77.882 112.604  0.00  0.00     0.006 C 
ENDBRANCH   8   9
BRANCH   8  11
ATOM     11  C   LIG d   1      -1.971  75.663 115.515  0.00  0.00     0.028 C 
ATOM     12  C   LIG d   1      -2.595  75.461 116.905  0.00  0.00     0.006 C 
ENDBRANCH   8  11
ENDBRANCH   7   8
ENDBRANCH   1   7
BRANCH   6  13
ATOM     13  N   LIG d   1      -0.353  78.554 117.667  0.00  0.00    -0.311 N 
ATOM     14  C   LIG d   1       0.427  77.491 117.855  0.00  0.00     0.210 C 
ATOM     15  C   LIG d   1       0.589  77.058 119.316  0.00  0.00     0.109 C 
ATOM     16  O   LIG d   1       1.025  76.884 116.954  0.00  0.00    -0.276 OA
ATOM     17  H   LIG d   1      -0.773  79.004 118.457  0.00  0.00     0.149 HD
ENDBRANCH   6  13
BRANCH   5  18
ATOM     18  N   LIG d   1       1.517  80.381 116.086  0.00  0.00     0.381 N 
ATOM     19  H   LIG d   1       1.893  80.884 116.865  0.00  0.00    -0.090 HD
ATOM     20  H   LIG d   1       1.868  80.798 115.242  0.00  0.00    -0.090 HD
ATOM     21  H   LIG d   1       1.794  79.425 116.133  0.00  0.00    -0.090 HD
ENDBRANCH   5  18
BRANCH   3  22
ATOM     22  C   LIG d   1      -2.319  82.038 113.746  0.00  0.00     0.382 C 
ATOM     23  O   LIG d   1      -3.291  81.767 113.001  0.00  0.00    -0.241 OA
ATOM     24  O   LIG d   1      -1.822  83.179 113.715  0.00  0.00    -0.241 OA
ENDBRANCH   3  22
TORSDOF 7
ENDMDL
MODEL 6
REMARK VINA RESULT:      -4.6      2.774      3.800
REMARK  7 active torsions:
REMARK  status: ('A' for Active; 'I' for Inactive)
REMARK    1  A    between atoms: C_2  and  C_3 
REMARK    2  A    between atoms: C_3  and  O_6 
REMARK    3  A    between atoms: C_3  and  C_4 
REMARK    4  A    between atoms: C_7  and  O_6 
REMARK    5  A    between atoms: C_9  and  C_10 
REMARK    6  A    between atoms: N_15  and  C_14 
REMARK    7  A    between atoms: N_20  and  C_19 
REMARK       I    between atoms: C_22  and  N_20 
ROOT
ATOM      1  C   LIG d   1      -0.216  80.504 115.180  0.00  0.00     0.161 C 
ATOM      2  C   LIG d   1       0.746  81.261 115.869  0.00  0.00     0.016 C 
ATOM      3  C   LIG d   1       1.625  82.167 115.232  0.00  0.00     0.038 C 
ATOM      4  C   LIG d   1       1.499  82.491 113.873  0.00  0.00     0.028 C 
ATOM      5  C   LIG d   1       0.873  81.377 113.040  0.00  0.00    -0.047 C 
ATOM      6  C   LIG d   1      -0.443  80.926 113.713  0.00  0.00     0.091 C 
ENDROOT
BRANCH   1   7
ATOM      7  O   LIG d   1      -1.462  80.521 115.904  0.00  0.00    -0.368 OA
BRANCH   7   8
ATOM      8  C   LIG d   1      -1.727  79.370 116.744  0.00  0.00     0.119 C 
BRANCH   8   9
ATOM      9  C   LIG d   1      -3.036  78.726 116.247  0.00  0.00     0.028 C 
ATOM     10  C   LIG d   1      -2.804  77.355 115.590  0.00  0.00     0.006 C 
ENDBRANCH   8   9
BRANCH   8  11
ATOM     11  C   LIG d   1      -2.005  79.788 118.191  0.00  0.00     0.028 C 
ATOM     12  C   LIG d   1      -3.440  80.297 118.399  0.00  0.00     0.006 C 
ENDBRANCH   8  11
ENDBRANCH   7   8
ENDBRANCH   1   7
BRANCH   6  13
ATOM     13  N   LIG d   1      -1.077  79.781 113.008  0.00  0.00    -0.311 N 
ATOM     14  C   LIG d   1      -2.371  79.738 112.697  0.00  0.00     0.210 C 
ATOM     15  C   LIG d   1      -2.823  78.456 111.989  0.00  0.00     0.109 C 
ATOM     16  O   LIG d   1      -3.181  80.652 112.911  0.00  0.00    -0.276 OA
ATOM     17  H   LIG d   1      -0.486  79.009 112.769  0.00  0.00     0.149 HD
ENDBRANCH   6  13
BRANCH   5  18
ATOM     18  N   LIG d   1       0.675  81.899 111.675  0.00  0.00     0.381 N 
ATOM     19  H   LIG d   1      -0.202  81.581 111.315  0.00  0.00    -0.090 HD
ATOM     20  H   LIG d   1       1.406  81.545 111.082  0.00  0.00    -0.090 HD
ATOM     21  H   LIG d   1       0.698  82.895 111.684  0.00  0.00    -0.090 HD
ENDBRANCH   5  18
BRANCH   3  22
ATOM     22  C   LIG d   1       2.670  82.730 115.949  0.00  0.00     0.382 C 
ATOM     23  O   LIG d   1       3.850  82.600 115.543  0.00  0.00    -0.241 OA
ATOM     24  O   LIG d   1       2.451  83.327 117.020  0.00  0.00    -0.241 OA
ENDBRANCH   3  22
TORSDOF 7
ENDMDL
MODEL 7
REMARK VINA RESULT:      -4.5      2.710      4.166
REMARK  7 active torsions:
REMARK  status: ('A' for Active; 'I' for Inactive)
REMARK    1  A    between atoms: C_2  and  C_3 
REMARK    2  A    between atoms: C_3  and  O_6 
REMARK    3  A    between atoms: C_3  and  C_4 
REMARK    4  A    between atoms: C_7  and  O_6 
REMARK    5  A    between atoms: C_9  and  C_10 
REMARK    6  A    between atoms: N_15  and  C_14 
REMARK    7  A    between atoms: N_20  and  C_19 
REMARK       I    between atoms: C_22  and  N_20 
ROOT
ATOM      1  C   LIG d   1      -1.375  79.829 116.576  0.00  0.00     0.161 C 
ATOM      2  C   LIG d   1      -2.187  79.901 115.432  0.00  0.00     0.016 C 
ATOM      3  C   LIG d   1      -1.740  80.409 114.191  0.00  0.00     0.038 C 
ATOM      4  C   LIG d   1      -0.395  80.741 113.967  0.00  0.00     0.028 C 
ATOM      5  C   LIG d   1       0.344  81.159 115.234  0.00  0.00    -0.047 C 
ATOM      6  C   LIG d   1       0.126  80.083 116.321  0.00  0.00     0.091 C 
ENDROOT
BRANCH   1   7
ATOM      7  O   LIG d   1      -1.564  78.558 117.230  0.00  0.00    -0.368 OA
BRANCH   7   8
ATOM      8  C   LIG d   1      -0.790  77.451 116.707  0.00  0.00     0.119 C 
BRANCH   8   9
ATOM      9  C   LIG d   1      -1.785  76.390 116.198  0.00  0.00     0.028 C 
ATOM     10  C   LIG d   1      -1.311  74.955 116.487  0.00  0.00     0.006 C 
ENDBRANCH   8   9
BRANCH   8  11
ATOM     11  C   LIG d   1       0.011  76.759 117.813  0.00  0.00     0.028 C 
ATOM     12  C   LIG d   1      -0.301  77.315 119.212  0.00  0.00     0.006 C 
ENDBRANCH   8  11
ENDBRANCH   7   8
ENDBRANCH   1   7
BRANCH   6  13
ATOM     13  N   LIG d   1       0.746  80.455 117.619  0.00  0.00    -0.311 N 
ATOM     14  C   LIG d   1       1.940  80.015 118.014  0.00  0.00     0.210 C 
ATOM     15  C   LIG d   1       2.384  80.503 119.396  0.00  0.00     0.109 C 
ATOM     16  O   LIG d   1       2.687  79.293 117.337  0.00  0.00    -0.276 OA
ATOM     17  H   LIG d   1       0.222  81.062 118.218  0.00  0.00     0.149 HD
ENDBRANCH   6  13
BRANCH   5  18
ATOM     18  N   LIG d   1       1.765  81.344 114.880  0.00  0.00     0.381 N 
ATOM     19  H   LIG d   1       2.223  80.455 114.847  0.00  0.00    -0.090 HD
ATOM     20  H   LIG d   1       2.207  81.901 115.590  0.00  0.00    -0.090 HD
ATOM     21  H   LIG d   1       1.840  81.798 113.996  0.00  0.00    -0.090 HD
ENDBRANCH   5  18
BRANCH   3  22
ATOM     22  C   LIG d   1      -2.651  80.627 113.169  0.00  0.00     0.382 C 
ATOM     23  O   LIG d   1      -3.160  81.763 113.014  0.00  0.00    -0.241 OA
ATOM     24  O   LIG d   1      -3.003  79.691 112.427  0.00  0.00    -0.241 OA
ENDBRANCH   3  22
TORSDOF 7
ENDMDL
MODEL 8
REMARK VINA RESULT:      -4.4      2.490      5.740
REMARK  7 active torsions:
REMARK  status: ('A' for Active; 'I' for Inactive)
REMARK    1  A    between atoms: C_2  and  C_3 
REMARK    2  A    between atoms: C_3  and  O_6 
REMARK    3  A    between atoms: C_3  and  C_4 
REMARK    4  A    between atoms: C_7  and  O_6 
REMARK    5  A    between atoms: C_9  and  C_10 
REMARK    6  A    between atoms: N_15  and  C_14 
REMARK    7  A    between atoms: N_20  and  C_19 
REMARK       I    between atoms: C_22  and  N_20 
ROOT
ATOM      1  C   LIG d   1      -0.854  79.880 114.534  0.00  0.00     0.161 C 
ATOM      2  C   LIG d   1      -1.813  79.054 113.925  0.00  0.00     0.016 C 
ATOM      3  C   LIG d   1      -2.203  77.799 114.447  0.00  0.00     0.038 C 
ATOM      4  C   LIG d   1      -1.766  77.350 115.702  0.00  0.00     0.028 C 
ATOM      5  C   LIG d   1      -0.412  77.919 116.111  0.00  0.00    -0.047 C 
ATOM      6  C   LIG d   1      -0.448  79.457 115.961  0.00  0.00     0.091 C 
ENDROOT
BRANCH   1   7
ATOM      7  O   LIG d   1      -1.310  81.247 114.527  0.00  0.00    -0.368 OA
BRANCH   7   8
ATOM      8  C   LIG d   1      -0.909  82.047 113.387  0.00  0.00     0.119 C 
BRANCH   8   9
ATOM      9  C   LIG d   1       0.527  81.632 113.012  0.00  0.00     0.028 C 
ATOM     10  C   LIG d   1       0.653  81.223 111.535  0.00  0.00     0.006 C 
ENDBRANCH   8   9
BRANCH   8  11
ATOM     11  C   LIG d   1      -0.819  83.532 113.753  0.00  0.00     0.028 C 
ATOM     12  C   LIG d   1      -0.619  84.436 112.527  0.00  0.00     0.006 C 
ENDBRANCH   8  11
ENDBRANCH   7   8
ENDBRANCH   1   7
BRANCH   6  13
ATOM     13  N   LIG d   1       0.864  80.087 116.261  0.00  0.00    -0.311 N 
ATOM     14  C   LIG d   1       1.194  80.557 117.462  0.00  0.00     0.210 C 
ATOM     15  C   LIG d   1       2.589  81.185 117.550  0.00  0.00     0.109 C 
ATOM     16  O   LIG d   1       0.477  80.486 118.471  0.00  0.00    -0.276 OA
ATOM     17  H   LIG d   1       1.519  80.158 115.507  0.00  0.00     0.149 HD
ENDBRANCH   6  13
BRANCH   5  18
ATOM     18  N   LIG d   1      -0.143  77.479 117.494  0.00  0.00     0.381 N 
ATOM     19  H   LIG d   1      -1.006  77.289 117.962  0.00  0.00    -0.090 HD
ATOM     20  H   LIG d   1       0.326  78.220 117.985  0.00  0.00    -0.090 HD
ATOM     21  H   LIG d   1       0.427  76.662 117.487  0.00  0.00    -0.090 HD
ENDBRANCH   5  18
BRANCH   3  22
ATOM     22  C   LIG d   1      -3.009  76.961 113.691  0.00  0.00     0.382 C 
ATOM     23  O   LIG d   1      -3.278  75.808 114.107  0.00  0.00    -0.241 OA
ATOM     24  O   LIG d   1      -3.434  77.327 112.579  0.00  0.00    -0.241 OA
ENDBRANCH   3  22
TORSDOF 7
ENDMDL
MODEL 9
REMARK VINA RESULT:      -4.4      2.379      3.451
REMARK  7 active torsions:
REMARK  status: ('A' for Active; 'I' for Inactive)
REMARK    1  A    between atoms: C_2  and  C_3 
REMARK    2  A    between atoms: C_3  and  O_6 
REMARK    3  A    between atoms: C_3  and  C_4 
REMARK    4  A    between atoms: C_7  and  O_6 
REMARK    5  A    between atoms: C_9  and  C_10 
REMARK    6  A    between atoms: N_15  and  C_14 
REMARK    7  A    between atoms: N_20  and  C_19 
REMARK       I    between atoms: C_22  and  N_20 
ROOT
ATOM      1  C   LIG d   1      -1.495  79.049 116.099  0.00  0.00     0.161 C 
ATOM      2  C   LIG d   1      -2.167  79.613 115.002  0.00  0.00     0.016 C 
ATOM      3  C   LIG d   1      -1.609  80.619 114.181  0.00  0.00     0.038 C 
ATOM      4  C   LIG d   1      -0.273  81.026 114.311  0.00  0.00     0.028 C 
ATOM      5  C   LIG d   1       0.280  80.848 115.721  0.00  0.00    -0.047 C 
ATOM      6  C   LIG d   1       0.005  79.401 116.189  0.00  0.00     0.091 C 
ENDROOT
BRANCH   1   7
ATOM      7  O   LIG d   1      -1.675  77.619 116.101  0.00  0.00    -0.368 OA
BRANCH   7   8
ATOM      8  C   LIG d   1      -2.826  77.123 116.827  0.00  0.00     0.119 C 
BRANCH   8   9
ATOM      9  C   LIG d   1      -2.326  76.609 118.192  0.00  0.00     0.028 C 
ATOM     10  C   LIG d   1      -2.558  77.625 119.322  0.00  0.00     0.006 C 
ENDBRANCH   8   9
BRANCH   8  11
ATOM     11  C   LIG d   1      -3.438  75.902 116.134  0.00  0.00     0.028 C 
ATOM     12  C   LIG d   1      -3.436  76.023 114.602  0.00  0.00     0.006 C 
ENDBRANCH   8  11
ENDBRANCH   7   8
ENDBRANCH   1   7
BRANCH   6  13
ATOM     13  N   LIG d   1       0.439  79.166 117.591  0.00  0.00    -0.311 N 
ATOM     14  C   LIG d   1       1.143  78.102 117.972  0.00  0.00     0.210 C 
ATOM     15  C   LIG d   1       1.469  78.045 119.468  0.00  0.00     0.109 C 
ATOM     16  O   LIG d   1       1.556  77.217 117.208  0.00  0.00    -0.276 OA
ATOM     17  H   LIG d   1       0.174  79.852 118.271  0.00  0.00     0.149 HD
ENDBRANCH   6  13
BRANCH   5  18
ATOM     18  N   LIG d   1       1.717  81.180 115.681  0.00  0.00     0.381 N 
ATOM     19  H   LIG d   1       1.833  82.169 115.585  0.00  0.00    -0.090 HD
ATOM     20  H   LIG d   1       2.132  80.734 114.882  0.00  0.00    -0.090 HD
ATOM     21  H   LIG d   1       2.163  80.865 116.515  0.00  0.00    -0.090 HD
ENDBRANCH   5  18
BRANCH   3  22
ATOM     22  C   LIG d   1      -2.403  81.258 113.241  0.00  0.00     0.382 C 
ATOM     23  O   LIG d   1      -3.434  80.693 112.803  0.00  0.00    -0.241 OA
ATOM     24  O   LIG d   1      -2.079  82.374 112.794  0.00  0.00    -0.241 OA
ENDBRANCH   3  22
TORSDOF 7
ENDMDL
