MODEL 1
REMARK VINA RESULT:      -5.2      0.000      0.000
REMARK  7 active torsions:
REMARK  status: ('A' for Active; 'I' for Inactive)
REMARK    1  A    between atoms: C_2  and  C_3 
REMARK    2  A    between atoms: C_3  and  O_6 
REMARK    3  A    between atoms: C_3  and  C_4 
REMARK    4  A    between atoms: C_7  and  O_6 
REMARK    5  A    between atoms: C_9  and  C_10 
REMARK    6  A    between atoms: N_15  and  C_14 
REMARK    7  A    between atoms: N_20  and  C_19 
REMARK       I    between atoms: C_22  and  N_20 
ROOT
ATOM      1  C   LIG d   1      -0.274  81.507 111.795  0.00  0.00     0.161 C 
ATOM      2  C   LIG d   1      -1.315  80.675 112.240  0.00  0.00     0.016 C 
ATOM      3  C   LIG d   1      -1.490  79.344 111.799  0.00  0.00     0.038 C 
ATOM      4  C   LIG d   1      -0.542  78.699 110.991  0.00  0.00     0.028 C 
ATOM      5  C   LIG d   1       0.258  79.657 110.114  0.00  0.00    -0.047 C 
ATOM      6  C   LIG d   1       0.834  80.785 111.000  0.00  0.00     0.091 C 
ENDROOT
BRANCH   1   7
ATOM      7  O   LIG d   1       0.294  82.219 112.912  0.00  0.00    -0.368 OA
BRANCH   7   8
ATOM      8  C   LIG d   1       0.929  83.485 112.604  0.00  0.00     0.119 C 
BRANCH   8   9
ATOM      9  C   LIG d   1       1.604  83.990 113.894  0.00  0.00     0.028 C 
ATOM     10  C   LIG d   1       2.985  84.612 113.629  0.00  0.00     0.006 C 
ENDBRANCH   8   9
BRANCH   8  11
ATOM     11  C   LIG d   1      -0.106  84.554 112.243  0.00  0.00     0.028 C 
ATOM     12  C   LIG d   1      -0.441  84.576 110.743  0.00  0.00     0.006 C 
ENDBRANCH   8  11
ENDBRANCH   7   8
ENDBRANCH   1   7
BRANCH   6  13
ATOM     13  N   LIG d   1       1.561  81.812 110.208  0.00  0.00    -0.311 N 
ATOM     14  C   LIG d   1       2.868  82.040 110.326  0.00  0.00     0.210 C 
ATOM     15  C   LIG d   1       3.413  83.157 109.430  0.00  0.00     0.109 C 
ATOM     16  O   LIG d   1       3.633  81.401 111.064  0.00  0.00    -0.276 OA
ATOM     17  H   LIG d   1       1.022  82.355 109.562  0.00  0.00     0.149 HD
ENDBRANCH   6  13
BRANCH   5  18
ATOM     18  N   LIG d   1       1.301  78.869 109.430  0.00  0.00     0.381 N 
ATOM     19  H   LIG d   1       1.013  78.667 108.493  0.00  0.00    -0.090 HD
ATOM     20  H   LIG d   1       1.422  77.998 109.917  0.00  0.00    -0.090 HD
ATOM     21  H   LIG d   1       2.159  79.375 109.420  0.00  0.00    -0.090 HD
ENDBRANCH   5  18
BRANCH   3  22
ATOM     22  C   LIG d   1      -2.647  78.655 112.134  0.00  0.00     0.382 C 
ATOM     23  O   LIG d   1      -3.440  79.136 112.978  0.00  0.00    -0.241 OA
ATOM     24  O   LIG d   1      -2.884  77.539 111.635  0.00  0.00    -0.241 OA
ENDBRANCH   3  22
TORSDOF 7
ENDMDL
MODEL 2
REMARK VINA RESULT:      -5.2      5.466      7.349
REMARK  7 active torsions:
REMARK  status: ('A' for Active; 'I' for Inactive)
REMARK    1  A    between atoms: C_2  and  C_3 
REMARK    2  A    between atoms: C_3  and  O_6 
REMARK    3  A    between atoms: C_3  and  C_4 
REMARK    4  A    between atoms: C_7  and  O_6 
REMARK    5  A    between atoms: C_9  and  C_10 
REMARK    6  A    between atoms: N_15  and  C_14 
REMARK    7  A    between atoms: N_20  and  C_19 
REMARK       I    between atoms: C_22  and  N_20 
ROOT
ATOM      1  C   LIG d   1      -1.988  78.535 116.354  0.00  0.00     0.161 C 
ATOM      2  C   LIG d   1      -2.502  79.160 115.206  0.00  0.00     0.016 C 
ATOM      3  C   LIG d   1      -2.180  78.757 113.889  0.00  0.00     0.038 C 
ATOM      4  C   LIG d   1      -1.434  77.597 113.631  0.00  0.00     0.028 C 
ATOM      5  C   LIG d   1      -0.478  77.228 114.760  0.00  0.00    -0.047 C 
ATOM      6  C   LIG d   1      -1.261  77.199 116.092  0.00  0.00     0.091 C 
ENDROOT
BRANCH   1   7
ATOM      7  O   LIG d   1      -3.039  78.353 117.323  0.00  0.00    -0.368 OA
BRANCH   7   8
ATOM      8  C   LIG d   1      -3.111  79.342 118.378  0.00  0.00     0.119 C 
BRANCH   8   9
ATOM      9  C   LIG d   1      -1.824  80.186 118.311  0.00  0.00     0.028 C 
ATOM     10  C   LIG d   1      -1.944  81.504 119.094  0.00  0.00     0.006 C 
ENDBRANCH   8   9
BRANCH   8  11
ATOM     11  C   LIG d   1      -3.094  78.685 119.761  0.00  0.00     0.028 C 
ATOM     12  C   LIG d   1      -3.113  77.150 119.691  0.00  0.00     0.006 C 
ENDBRANCH   8  11
ENDBRANCH   7   8
ENDBRANCH   1   7
BRANCH   6  13
ATOM     13  N   LIG d   1      -0.384  76.928 117.260  0.00  0.00    -0.311 N 
ATOM     14  C   LIG d   1      -0.126  75.703 117.715  0.00  0.00     0.210 C 
ATOM     15  C   LIG d   1       0.788  75.648 118.943  0.00  0.00     0.109 C 
ATOM     16  O   LIG d   1      -0.541  74.655 117.198  0.00  0.00    -0.276 OA
ATOM     17  H   LIG d   1       0.021  77.720 117.720  0.00  0.00     0.149 HD
ENDBRANCH   6  13
BRANCH   5  18
ATOM     18  N   LIG d   1       0.132  75.929 114.420  0.00  0.00     0.381 N 
ATOM     19  H   LIG d   1      -0.564  75.211 114.445  0.00  0.00    -0.090 HD
ATOM     20  H   LIG d   1       0.835  75.711 115.104  0.00  0.00    -0.090 HD
ATOM     21  H   LIG d   1       0.543  75.972 113.513  0.00  0.00    -0.090 HD
ENDBRANCH   5  18
BRANCH   3  22
ATOM     22  C   LIG d   1      -2.572  79.541 112.815  0.00  0.00     0.382 C 
ATOM     23  O   LIG d   1      -2.020  79.396 111.698  0.00  0.00    -0.241 OA
ATOM     24  O   LIG d   1      -3.440  80.423 112.960  0.00  0.00    -0.241 OA
ENDBRANCH   3  22
TORSDOF 7
ENDMDL
MODEL 3
REMARK VINA RESULT:      -5.0      5.966      7.374
REMARK  7 active torsions:
REMARK  status: ('A' for Active; 'I' for Inactive)
REMARK    1  A    between atoms: C_2  and  C_3 
REMARK    2  A    between atoms: C_3  and  O_6 
REMARK    3  A    between atoms: C_3  and  C_4 
REMARK    4  A    between atoms: C_7  and  O_6 
REMARK    5  A    between atoms: C_9  and  C_10 
REMARK    6  A    between atoms: N_15  and  C_14 
REMARK    7  A    between atoms: N_20  and  C_19 
REMARK       I    between atoms: C_22  and  N_20 
ROOT
ATOM      1  C   LIG d   1      -0.405  78.266 116.424  0.00  0.00     0.161 C 
ATOM      2  C   LIG d   1      -1.435  78.607 115.532  0.00  0.00     0.016 C 
ATOM      3  C   LIG d   1      -2.129  77.658 114.746  0.00  0.00     0.038 C 
ATOM      4  C   LIG d   1      -1.942  76.278 114.913  0.00  0.00     0.028 C 
ATOM      5  C   LIG d   1      -0.558  75.914 115.439  0.00  0.00    -0.047 C 
ATOM      6  C   LIG d   1      -0.263  76.755 116.702  0.00  0.00     0.091 C 
ENDROOT
BRANCH   1   7
ATOM      7  O   LIG d   1      -0.570  78.989 117.660  0.00  0.00    -0.368 OA
BRANCH   7   8
ATOM      8  C   LIG d   1      -1.935  79.179 118.109  0.00  0.00     0.119 C 
BRANCH   8   9
ATOM      9  C   LIG d   1      -2.010  80.560 118.789  0.00  0.00     0.028 C 
ATOM     10  C   LIG d   1      -0.660  81.297 118.771  0.00  0.00     0.006 C 
ENDBRANCH   8   9
BRANCH   8  11
ATOM     11  C   LIG d   1      -2.309  78.170 119.199  0.00  0.00     0.028 C 
ATOM     12  C   LIG d   1      -3.386  77.173 118.742  0.00  0.00     0.006 C 
ENDBRANCH   8  11
ENDBRANCH   7   8
ENDBRANCH   1   7
BRANCH   6  13
ATOM     13  N   LIG d   1       1.106  76.521 117.231  0.00  0.00    -0.311 N 
ATOM     14  C   LIG d   1       1.348  76.014 118.439  0.00  0.00     0.210 C 
ATOM     15  C   LIG d   1       2.831  75.874 118.796  0.00  0.00     0.109 C 
ATOM     16  O   LIG d   1       0.475  75.636 119.235  0.00  0.00    -0.276 OA
ATOM     17  H   LIG d   1       1.873  76.770 116.638  0.00  0.00     0.149 HD
ENDBRANCH   6  13
BRANCH   5  18
ATOM     18  N   LIG d   1      -0.547  74.461 115.696  0.00  0.00     0.381 N 
ATOM     19  H   LIG d   1       0.096  74.253 116.434  0.00  0.00    -0.090 HD
ATOM     20  H   LIG d   1      -0.239  73.986 114.865  0.00  0.00    -0.090 HD
ATOM     21  H   LIG d   1      -1.461  74.152 115.944  0.00  0.00    -0.090 HD
ENDBRANCH   5  18
BRANCH   3  22
ATOM     22  C   LIG d   1      -2.994  78.090 113.753  0.00  0.00     0.382 C 
ATOM     23  O   LIG d   1      -3.439  79.263 113.775  0.00  0.00    -0.241 OA
ATOM     24  O   LIG d   1      -3.370  77.309 112.859  0.00  0.00    -0.241 OA
ENDBRANCH   3  22
TORSDOF 7
ENDMDL
MODEL 4
REMARK VINA RESULT:      -4.9      5.716      7.082
REMARK  7 active torsions:
REMARK  status: ('A' for Active; 'I' for Inactive)
REMARK    1  A    between atoms: C_2  and  C_3 
REMARK    2  A    between atoms: C_3  and  O_6 
REMARK    3  A    between atoms: C_3  and  C_4 
REMARK    4  A    between atoms: C_7  and  O_6 
REMARK    5  A    between atoms: C_9  and  C_10 
REMARK    6  A    between atoms: N_15  and  C_14 
REMARK    7  A    between atoms: N_20  and  C_19 
REMARK       I    between atoms: C_22  and  N_20 
ROOT
ATOM      1  C   LIG d   1      -0.200  78.541 115.821  0.00  0.00     0.161 C 
ATOM      2  C   LIG d   1      -1.144  78.772 114.807  0.00  0.00     0.016 C 
ATOM      3  C   LIG d   1      -1.861  77.738 114.160  0.00  0.00     0.038 C 
ATOM      4  C   LIG d   1      -1.792  76.406 114.593  0.00  0.00     0.028 C 
ATOM      5  C   LIG d   1      -0.474  76.059 115.278  0.00  0.00    -0.047 C 
ATOM      6  C   LIG d   1      -0.193  77.103 116.383  0.00  0.00     0.091 C 
ENDROOT
BRANCH   1   7
ATOM      7  O   LIG d   1      -0.385  79.494 116.887  0.00  0.00    -0.368 OA
BRANCH   7   8
ATOM      8  C   LIG d   1      -1.230  79.067 117.984  0.00  0.00     0.119 C 
BRANCH   8   9
ATOM      9  C   LIG d   1      -2.508  79.926 117.945  0.00  0.00     0.028 C 
ATOM     10  C   LIG d   1      -2.541  80.981 119.064  0.00  0.00     0.006 C 
ENDBRANCH   8   9
BRANCH   8  11
ATOM     11  C   LIG d   1      -0.580  79.369 119.338  0.00  0.00     0.028 C 
ATOM     12  C   LIG d   1       0.905  79.745 119.215  0.00  0.00     0.006 C 
ENDBRANCH   8  11
ENDBRANCH   7   8
ENDBRANCH   1   7
BRANCH   6  13
ATOM     13  N   LIG d   1       1.118  76.886 117.047  0.00  0.00    -0.311 N 
ATOM     14  C   LIG d   1       1.266  76.175 118.163  0.00  0.00     0.210 C 
ATOM     15  C   LIG d   1       2.701  76.093 118.692  0.00  0.00     0.109 C 
ATOM     16  O   LIG d   1       0.350  75.577 118.747  0.00  0.00    -0.276 OA
ATOM     17  H   LIG d   1       1.920  77.310 116.623  0.00  0.00     0.149 HD
ENDBRANCH   6  13
BRANCH   5  18
ATOM     18  N   LIG d   1      -0.592  74.684 115.799  0.00  0.00     0.381 N 
ATOM     19  H   LIG d   1      -1.500  74.548 116.196  0.00  0.00    -0.090 HD
ATOM     20  H   LIG d   1       0.092  74.551 116.523  0.00  0.00    -0.090 HD
ATOM     21  H   LIG d   1      -0.441  74.027 115.065  0.00  0.00    -0.090 HD
ENDBRANCH   5  18
BRANCH   3  22
ATOM     22  C   LIG d   1      -2.628  78.029 113.042  0.00  0.00     0.382 C 
ATOM     23  O   LIG d   1      -2.479  77.363 111.990  0.00  0.00    -0.241 OA
ATOM     24  O   LIG d   1      -3.435  78.978 113.059  0.00  0.00    -0.241 OA
ENDBRANCH   3  22
TORSDOF 7
ENDMDL
MODEL 5
REMARK VINA RESULT:      -4.8      4.676      6.202
REMARK  7 active torsions:
REMARK  status: ('A' for Active; 'I' for Inactive)
REMARK    1  A    between atoms: C_2  and  C_3 
REMARK    2  A    between atoms: C_3  and  O_6 
REMARK    3  A    between atoms: C_3  and  C_4 
REMARK    4  A    between atoms: C_7  and  O_6 
REMARK    5  A    between atoms: C_9  and  C_10 
REMARK    6  A    between atoms: N_15  and  C_14 
REMARK    7  A    between atoms: N_20  and  C_19 
REMARK       I    between atoms: C_22  and  N_20 
ROOT
ATOM      1  C   LIG d   1      -0.450  78.153 115.129  0.00  0.00     0.161 C 
ATOM      2  C   LIG d   1      -1.361  77.092 114.996  0.00  0.00     0.016 C 
ATOM      3  C   LIG d   1      -1.710  76.229 116.060  0.00  0.00     0.038 C 
ATOM      4  C   LIG d   1      -1.282  76.462 117.375  0.00  0.00     0.028 C 
ATOM      5  C   LIG d   1       0.038  77.220 117.457  0.00  0.00    -0.047 C 
ATOM      6  C   LIG d   1      -0.058  78.491 116.583  0.00  0.00     0.091 C 
ENDROOT
BRANCH   1   7
ATOM      7  O   LIG d   1      -0.962  79.324 114.463  0.00  0.00    -0.368 OA
BRANCH   7   8
ATOM      8  C   LIG d   1      -1.123  79.221 113.027  0.00  0.00     0.119 C 
BRANCH   8   9
ATOM      9  C   LIG d   1      -0.396  80.422 112.392  0.00  0.00     0.028 C 
ATOM     10  C   LIG d   1       0.057  80.139 110.950  0.00  0.00     0.006 C 
ENDBRANCH   8   9
BRANCH   8  11
ATOM     11  C   LIG d   1      -2.591  79.374 112.618  0.00  0.00     0.028 C 
ATOM     12  C   LIG d   1      -3.083  78.225 111.724  0.00  0.00     0.006 C 
ENDBRANCH   8  11
ENDBRANCH   7   8
ENDBRANCH   1   7
BRANCH   6  13
ATOM     13  N   LIG d   1       1.221  79.248 116.539  0.00  0.00    -0.311 N 
ATOM     14  C   LIG d   1       1.345  80.503 116.968  0.00  0.00     0.210 C 
ATOM     15  C   LIG d   1       2.746  81.103 116.814  0.00  0.00     0.109 C 
ATOM     16  O   LIG d   1       0.435  81.165 117.490  0.00  0.00    -0.276 OA
ATOM     17  H   LIG d   1       2.018  78.775 116.160  0.00  0.00     0.149 HD
ENDBRANCH   6  13
BRANCH   5  18
ATOM     18  N   LIG d   1       0.295  77.516 118.880  0.00  0.00     0.381 N 
ATOM     19  H   LIG d   1       0.594  76.684 119.349  0.00  0.00    -0.090 HD
ATOM     20  H   LIG d   1      -0.559  77.829 119.306  0.00  0.00    -0.090 HD
ATOM     21  H   LIG d   1       0.994  78.221 118.961  0.00  0.00    -0.090 HD
ENDBRANCH   5  18
BRANCH   3  22
ATOM     22  C   LIG d   1      -2.464  75.093 115.804  0.00  0.00     0.382 C 
ATOM     23  O   LIG d   1      -2.192  74.370 114.816  0.00  0.00    -0.241 OA
ATOM     24  O   LIG d   1      -3.440  74.808 116.524  0.00  0.00    -0.241 OA
ENDBRANCH   3  22
TORSDOF 7
ENDMDL
MODEL 6
REMARK VINA RESULT:      -4.7      6.480      7.604
REMARK  7 active torsions:
REMARK  status: ('A' for Active; 'I' for Inactive)
REMARK    1  A    between atoms: C_2  and  C_3 
REMARK    2  A    between atoms: C_3  and  O_6 
REMARK    3  A    between atoms: C_3  and  C_4 
REMARK    4  A    between atoms: C_7  and  O_6 
REMARK    5  A    between atoms: C_9  and  C_10 
REMARK    6  A    between atoms: N_15  and  C_14 
REMARK    7  A    between atoms: N_20  and  C_19 
REMARK       I    between atoms: C_22  and  N_20 
ROOT
ATOM      1  C   LIG d   1       0.151  77.353 117.946  0.00  0.00     0.161 C 
ATOM      2  C   LIG d   1      -0.171  76.111 117.373  0.00  0.00     0.016 C 
ATOM      3  C   LIG d   1      -0.519  75.949 116.012  0.00  0.00     0.038 C 
ATOM      4  C   LIG d   1      -0.420  77.002 115.091  0.00  0.00     0.028 C 
ATOM      5  C   LIG d   1      -0.587  78.379 115.725  0.00  0.00    -0.047 C 
ATOM      6  C   LIG d   1       0.372  78.495 116.932  0.00  0.00     0.091 C 
ENDROOT
BRANCH   1   7
ATOM      7  O   LIG d   1       1.303  77.212 118.801  0.00  0.00    -0.368 OA
BRANCH   7   8
ATOM      8  C   LIG d   1       2.567  76.977 118.133  0.00  0.00     0.119 C 
BRANCH   8   9
ATOM      9  C   LIG d   1       3.199  75.722 118.767  0.00  0.00     0.028 C 
ATOM     10  C   LIG d   1       4.699  75.596 118.451  0.00  0.00     0.006 C 
ENDBRANCH   8   9
BRANCH   8  11
ATOM     11  C   LIG d   1       3.560  78.111 118.404  0.00  0.00     0.028 C 
ATOM     12  C   LIG d   1       3.273  78.852 119.720  0.00  0.00     0.006 C 
ENDBRANCH   8  11
ENDBRANCH   7   8
ENDBRANCH   1   7
BRANCH   6  13
ATOM     13  N   LIG d   1       0.214  79.780 117.661  0.00  0.00    -0.311 N 
ATOM     14  C   LIG d   1       1.039  80.815 117.510  0.00  0.00     0.210 C 
ATOM     15  C   LIG d   1       0.706  82.037 118.371  0.00  0.00     0.109 C 
ATOM     16  O   LIG d   1       1.995  80.848 116.722  0.00  0.00    -0.276 OA
ATOM     17  H   LIG d   1      -0.555  79.851 118.298  0.00  0.00     0.149 HD
ENDBRANCH   6  13
BRANCH   5  18
ATOM     18  N   LIG d   1      -0.324  79.386 114.679  0.00  0.00     0.381 N 
ATOM     19  H   LIG d   1      -1.124  79.977 114.570  0.00  0.00    -0.090 HD
ATOM     20  H   LIG d   1      -0.160  78.914 113.808  0.00  0.00    -0.090 HD
ATOM     21  H   LIG d   1       0.472  79.932 114.924  0.00  0.00    -0.090 HD
ENDBRANCH   5  18
BRANCH   3  22
ATOM     22  C   LIG d   1      -1.010  74.730 115.569  0.00  0.00     0.382 C 
ATOM     23  O   LIG d   1      -0.526  74.195 114.543  0.00  0.00    -0.241 OA
ATOM     24  O   LIG d   1      -1.960  74.180 116.158  0.00  0.00    -0.241 OA
ENDBRANCH   3  22
TORSDOF 7
ENDMDL
MODEL 7
REMARK VINA RESULT:      -4.6      7.079      7.929
REMARK  7 active torsions:
REMARK  status: ('A' for Active; 'I' for Inactive)
REMARK    1  A    between atoms: C_2  and  C_3 
REMARK    2  A    between atoms: C_3  and  O_6 
REMARK    3  A    between atoms: C_3  and  C_4 
REMARK    4  A    between atoms: C_7  and  O_6 
REMARK    5  A    between atoms: C_9  and  C_10 
REMARK    6  A    between atoms: N_15  and  C_14 
REMARK    7  A    between atoms: N_20  and  C_19 
REMARK       I    between atoms: C_22  and  N_20 
ROOT
ATOM      1  C   LIG d   1       2.002  78.068 118.698  0.00  0.00     0.161 C 
ATOM      2  C   LIG d   1       1.152  76.965 118.508  0.00  0.00     0.016 C 
ATOM      3  C   LIG d   1       0.212  76.880 117.455  0.00  0.00     0.038 C 
ATOM      4  C   LIG d   1       0.163  77.832 116.426  0.00  0.00     0.028 C 
ATOM      5  C   LIG d   1       0.654  79.211 116.853  0.00  0.00    -0.047 C 
ATOM      6  C   LIG d   1       2.040  79.065 117.521  0.00  0.00     0.091 C 
ENDROOT
BRANCH   1   7
ATOM      7  O   LIG d   1       3.333  77.610 119.010  0.00  0.00    -0.368 OA
BRANCH   7   8
ATOM      8  C   LIG d   1       4.025  76.895 117.957  0.00  0.00     0.119 C 
BRANCH   8   9
ATOM      9  C   LIG d   1       4.341  75.483 118.487  0.00  0.00     0.028 C 
ATOM     10  C   LIG d   1       5.819  75.323 118.882  0.00  0.00     0.006 C 
ENDBRANCH   8   9
BRANCH   8  11
ATOM     11  C   LIG d   1       5.385  77.529 117.654  0.00  0.00     0.028 C 
ATOM     12  C   LIG d   1       5.445  78.173 116.260  0.00  0.00     0.006 C 
ENDBRANCH   8  11
ENDBRANCH   7   8
ENDBRANCH   1   7
BRANCH   6  13
ATOM     13  N   LIG d   1       2.556  80.357 118.044  0.00  0.00    -0.311 N 
ATOM     14  C   LIG d   1       3.305  81.192 117.325  0.00  0.00     0.210 C 
ATOM     15  C   LIG d   1       3.748  82.460 118.062  0.00  0.00     0.109 C 
ATOM     16  O   LIG d   1       3.617  81.018 116.137  0.00  0.00    -0.276 OA
ATOM     17  H   LIG d   1       2.325  80.592 118.989  0.00  0.00     0.149 HD
ENDBRANCH   6  13
BRANCH   5  18
ATOM     18  N   LIG d   1       0.679  80.067 115.651  0.00  0.00     0.381 N 
ATOM     19  H   LIG d   1      -0.209  80.033 115.193  0.00  0.00    -0.090 HD
ATOM     20  H   LIG d   1       1.375  79.716 115.017  0.00  0.00    -0.090 HD
ATOM     21  H   LIG d   1       0.894  81.006 115.906  0.00  0.00    -0.090 HD
ENDBRANCH   5  18
BRANCH   3  22
ATOM     22  C   LIG d   1      -0.720  75.853 117.447  0.00  0.00     0.382 C 
ATOM     23  O   LIG d   1      -0.359  74.681 117.185  0.00  0.00    -0.241 OA
ATOM     24  O   LIG d   1      -1.925  76.092 117.656  0.00  0.00    -0.241 OA
ENDBRANCH   3  22
TORSDOF 7
ENDMDL
MODEL 8
REMARK VINA RESULT:      -4.3      6.408      8.233
REMARK  7 active torsions:
REMARK  status: ('A' for Active; 'I' for Inactive)
REMARK    1  A    between atoms: C_2  and  C_3 
REMARK    2  A    between atoms: C_3  and  O_6 
REMARK    3  A    between atoms: C_3  and  C_4 
REMARK    4  A    between atoms: C_7  and  O_6 
REMARK    5  A    between atoms: C_9  and  C_10 
REMARK    6  A    between atoms: N_15  and  C_14 
REMARK    7  A    between atoms: N_20  and  C_19 
REMARK       I    between atoms: C_22  and  N_20 
ROOT
ATOM      1  C   LIG d   1       0.344  76.904 117.884  0.00  0.00     0.161 C 
ATOM      2  C   LIG d   1      -0.822  77.685 117.824  0.00  0.00     0.016 C 
ATOM      3  C   LIG d   1      -0.810  79.089 117.656  0.00  0.00     0.038 C 
ATOM      4  C   LIG d   1       0.373  79.793 117.384  0.00  0.00     0.028 C 
ATOM      5  C   LIG d   1       1.622  79.116 117.937  0.00  0.00    -0.047 C 
ATOM      6  C   LIG d   1       1.638  77.640 117.477  0.00  0.00     0.091 C 
ENDROOT
BRANCH   1   7
ATOM      7  O   LIG d   1       0.175  75.713 117.090  0.00  0.00    -0.368 OA
BRANCH   7   8
ATOM      8  C   LIG d   1      -0.966  75.698 116.198  0.00  0.00     0.119 C 
BRANCH   8   9
ATOM      9  C   LIG d   1      -1.537  74.267 116.200  0.00  0.00     0.028 C 
ATOM     10  C   LIG d   1      -3.035  74.231 115.851  0.00  0.00     0.006 C 
ENDBRANCH   8   9
BRANCH   8  11
ATOM     11  C   LIG d   1      -0.545  75.965 114.750  0.00  0.00     0.028 C 
ATOM     12  C   LIG d   1      -1.135  77.269 114.188  0.00  0.00     0.006 C 
ENDBRANCH   8  11
ENDBRANCH   7   8
ENDBRANCH   1   7
BRANCH   6  13
ATOM     13  N   LIG d   1       2.784  76.882 118.044  0.00  0.00    -0.311 N 
ATOM     14  C   LIG d   1       3.977  76.808 117.456  0.00  0.00     0.210 C 
ATOM     15  C   LIG d   1       5.012  75.958 118.198  0.00  0.00     0.109 C 
ATOM     16  O   LIG d   1       4.285  77.392 116.406  0.00  0.00    -0.276 OA
ATOM     17  H   LIG d   1       2.631  76.404 118.910  0.00  0.00     0.149 HD
ENDBRANCH   6  13
BRANCH   5  18
ATOM     18  N   LIG d   1       2.791  79.882 117.463  0.00  0.00     0.381 N 
ATOM     19  H   LIG d   1       2.818  79.875 116.463  0.00  0.00    -0.090 HD
ATOM     20  H   LIG d   1       3.627  79.442 117.804  0.00  0.00    -0.090 HD
ATOM     21  H   LIG d   1       2.741  80.820 117.795  0.00  0.00    -0.090 HD
ENDBRANCH   5  18
BRANCH   3  22
ATOM     22  C   LIG d   1      -1.986  79.809 117.801  0.00  0.00     0.382 C 
ATOM     23  O   LIG d   1      -3.016  79.458 117.176  0.00  0.00    -0.241 OA
ATOM     24  O   LIG d   1      -2.019  80.830 118.514  0.00  0.00    -0.241 OA
ENDBRANCH   3  22
TORSDOF 7
ENDMDL
MODEL 9
REMARK VINA RESULT:      -4.3      7.139      9.137
REMARK  7 active torsions:
REMARK  status: ('A' for Active; 'I' for Inactive)
REMARK    1  A    between atoms: C_2  and  C_3 
REMARK    2  A    between atoms: C_3  and  O_6 
REMARK    3  A    between atoms: C_3  and  C_4 
REMARK    4  A    between atoms: C_7  and  O_6 
REMARK    5  A    between atoms: C_9  and  C_10 
REMARK    6  A    between atoms: N_15  and  C_14 
REMARK    7  A    between atoms: N_20  and  C_19 
REMARK       I    between atoms: C_22  and  N_20 
ROOT
ATOM      1  C   LIG d   1       3.173  78.722 117.340  0.00  0.00     0.161 C 
ATOM      2  C   LIG d   1       3.709  80.007 117.155  0.00  0.00     0.016 C 
ATOM      3  C   LIG d   1       2.915  81.171 117.033  0.00  0.00     0.038 C 
ATOM      4  C   LIG d   1       1.528  81.148 117.240  0.00  0.00     0.028 C 
ATOM      5  C   LIG d   1       0.891  79.798 116.929  0.00  0.00    -0.047 C 
ATOM      6  C   LIG d   1       1.668  78.692 117.680  0.00  0.00     0.091 C 
ENDROOT
BRANCH   1   7
ATOM      7  O   LIG d   1       3.927  78.018 118.346  0.00  0.00    -0.368 OA
BRANCH   7   8
ATOM      8  C   LIG d   1       4.867  77.027 117.862  0.00  0.00     0.119 C 
BRANCH   8   9
ATOM      9  C   LIG d   1       4.423  75.659 118.415  0.00  0.00     0.028 C 
ATOM     10  C   LIG d   1       5.604  74.834 118.954  0.00  0.00     0.006 C 
ENDBRANCH   8   9
BRANCH   8  11
ATOM     11  C   LIG d   1       6.268  77.262 118.433  0.00  0.00     0.028 C 
ATOM     12  C   LIG d   1       6.972  78.475 117.806  0.00  0.00     0.006 C 
ENDBRANCH   8  11
ENDBRANCH   7   8
ENDBRANCH   1   7
BRANCH   6  13
ATOM     13  N   LIG d   1       1.163  77.330 117.364  0.00  0.00    -0.311 N 
ATOM     14  C   LIG d   1       0.269  76.687 118.113  0.00  0.00     0.210 C 
ATOM     15  C   LIG d   1      -0.101  75.285 117.619  0.00  0.00     0.109 C 
ATOM     16  O   LIG d   1      -0.277  77.158 119.123  0.00  0.00    -0.276 OA
ATOM     17  H   LIG d   1       1.529  76.886 116.545  0.00  0.00     0.149 HD
ENDBRANCH   6  13
BRANCH   5  18
ATOM     18  N   LIG d   1      -0.529  79.874 117.318  0.00  0.00     0.381 N 
ATOM     19  H   LIG d   1      -0.991  79.018 117.083  0.00  0.00    -0.090 HD
ATOM     20  H   LIG d   1      -0.967  80.620 116.807  0.00  0.00    -0.090 HD
ATOM     21  H   LIG d   1      -0.605  80.043 118.297  0.00  0.00    -0.090 HD
ENDBRANCH   5  18
BRANCH   3  22
ATOM     22  C   LIG d   1       3.505  82.369 116.661  0.00  0.00     0.382 C 
ATOM     23  O   LIG d   1       3.250  82.873 115.540  0.00  0.00    -0.241 OA
ATOM     24  O   LIG d   1       4.324  82.931 117.413  0.00  0.00    -0.241 OA
ENDBRANCH   3  22
TORSDOF 7
ENDMDL
