MODEL 1
REMARK VINA RESULT:      -5.4      0.000      0.000
REMARK  7 active torsions:
REMARK  status: ('A' for Active; 'I' for Inactive)
REMARK    1  A    between atoms: C_2  and  C_3 
REMARK    2  A    between atoms: C_3  and  O_6 
REMARK    3  A    between atoms: C_3  and  C_4 
REMARK    4  A    between atoms: C_7  and  O_6 
REMARK    5  A    between atoms: C_9  and  C_10 
REMARK    6  A    between atoms: N_15  and  C_14 
REMARK    7  A    between atoms: N_20  and  C_19 
REMARK       I    between atoms: C_22  and  N_20 
ROOT
ATOM      1  C   LIG d   1       0.721  82.379 112.459  0.00  0.00     0.161 C 
ATOM      2  C   LIG d   1      -0.555  82.059 112.951  0.00  0.00     0.016 C 
ATOM      3  C   LIG d   1      -1.332  80.985 112.459  0.00  0.00     0.038 C 
ATOM      4  C   LIG d   1      -0.818  80.059 111.539  0.00  0.00     0.028 C 
ATOM      5  C   LIG d   1       0.274  80.637 110.645  0.00  0.00    -0.047 C 
ATOM      6  C   LIG d   1       1.343  81.314 111.533  0.00  0.00     0.091 C 
ENDROOT
BRANCH   1   7
ATOM      7  O   LIG d   1       1.609  82.669 113.557  0.00  0.00    -0.368 OA
BRANCH   7   8
ATOM      8  C   LIG d   1       1.523  84.005 114.110  0.00  0.00     0.119 C 
BRANCH   8   9
ATOM      9  C   LIG d   1       2.950  84.586 114.140  0.00  0.00     0.028 C 
ATOM     10  C   LIG d   1       3.633  84.537 112.763  0.00  0.00     0.006 C 
ENDBRANCH   8   9
BRANCH   8  11
ATOM     11  C   LIG d   1       1.068  83.975 115.572  0.00  0.00     0.028 C 
ATOM     12  C   LIG d   1       2.220  84.212 116.561  0.00  0.00     0.006 C 
ENDBRANCH   8  11
ENDBRANCH   7   8
ENDBRANCH   1   7
BRANCH   6  13
ATOM     13  N   LIG d   1       2.406  81.978 110.734  0.00  0.00    -0.311 N 
ATOM     14  C   LIG d   1       3.483  81.344 110.276  0.00  0.00     0.210 C 
ATOM     15  C   LIG d   1       4.465  82.220 109.491  0.00  0.00     0.109 C 
ATOM     16  O   LIG d   1       3.703  80.131 110.417  0.00  0.00    -0.276 OA
ATOM     17  H   LIG d   1       2.291  82.955 110.546  0.00  0.00     0.149 HD
ENDBRANCH   6  13
BRANCH   5  18
ATOM     18  N   LIG d   1       0.815  79.531 109.831  0.00  0.00     0.381 N 
ATOM     19  H   LIG d   1       0.432  79.572 108.908  0.00  0.00    -0.090 HD
ATOM     20  H   LIG d   1       0.543  78.658 110.247  0.00  0.00    -0.090 HD
ATOM     21  H   LIG d   1       1.808  79.593 109.789  0.00  0.00    -0.090 HD
ENDBRANCH   5  18
BRANCH   3  22
ATOM     22  C   LIG d   1      -2.653  80.851 112.859  0.00  0.00     0.382 C 
ATOM     23  O   LIG d   1      -3.439  81.824 112.759  0.00  0.00    -0.241 OA
ATOM     24  O   LIG d   1      -3.057  79.785 113.361  0.00  0.00    -0.241 OA
ENDBRANCH   3  22
TORSDOF 7
ENDMDL
MODEL 2
REMARK VINA RESULT:      -5.4      1.142      1.872
REMARK  7 active torsions:
REMARK  status: ('A' for Active; 'I' for Inactive)
REMARK    1  A    between atoms: C_2  and  C_3 
REMARK    2  A    between atoms: C_3  and  O_6 
REMARK    3  A    between atoms: C_3  and  C_4 
REMARK    4  A    between atoms: C_7  and  O_6 
REMARK    5  A    between atoms: C_9  and  C_10 
REMARK    6  A    between atoms: N_15  and  C_14 
REMARK    7  A    between atoms: N_20  and  C_19 
REMARK       I    between atoms: C_22  and  N_20 
ROOT
ATOM      1  C   LIG d   1       0.125  83.467 112.263  0.00  0.00     0.161 C 
ATOM      2  C   LIG d   1      -1.058  82.978 112.843  0.00  0.00     0.016 C 
ATOM      3  C   LIG d   1      -1.508  81.647 112.687  0.00  0.00     0.038 C 
ATOM      4  C   LIG d   1      -0.723  80.667 112.062  0.00  0.00     0.028 C 
ATOM      5  C   LIG d   1       0.242  81.234 111.026  0.00  0.00    -0.047 C 
ATOM      6  C   LIG d   1       1.050  82.384 111.670  0.00  0.00     0.091 C 
ENDROOT
BRANCH   1   7
ATOM      7  O   LIG d   1       0.843  84.270 113.221  0.00  0.00    -0.368 OA
BRANCH   7   8
ATOM      8  C   LIG d   1       1.059  83.669 114.522  0.00  0.00     0.119 C 
BRANCH   8   9
ATOM      9  C   LIG d   1       0.584  84.680 115.583  0.00  0.00     0.028 C 
ATOM     10  C   LIG d   1      -0.654  84.186 116.352  0.00  0.00     0.006 C 
ENDBRANCH   8   9
BRANCH   8  11
ATOM     11  C   LIG d   1       2.551  83.461 114.799  0.00  0.00     0.028 C 
ATOM     12  C   LIG d   1       3.440  84.476 114.064  0.00  0.00     0.006 C 
ENDBRANCH   8  11
ENDBRANCH   7   8
ENDBRANCH   1   7
BRANCH   6  13
ATOM     13  N   LIG d   1       1.959  83.050 110.702  0.00  0.00    -0.311 N 
ATOM     14  C   LIG d   1       3.219  82.669 110.496  0.00  0.00     0.210 C 
ATOM     15  C   LIG d   1       3.988  83.504 109.468  0.00  0.00     0.109 C 
ATOM     16  O   LIG d   1       3.762  81.698 111.045  0.00  0.00    -0.276 OA
ATOM     17  H   LIG d   1       1.590  83.828 110.190  0.00  0.00     0.149 HD
ENDBRANCH   6  13
BRANCH   5  18
ATOM     18  N   LIG d   1       1.092  80.124 110.554  0.00  0.00     0.381 N 
ATOM     19  H   LIG d   1       1.791  79.918 111.239  0.00  0.00    -0.090 HD
ATOM     20  H   LIG d   1       1.553  80.406 109.707  0.00  0.00    -0.090 HD
ATOM     21  H   LIG d   1       0.534  79.317 110.383  0.00  0.00    -0.090 HD
ENDBRANCH   5  18
BRANCH   3  22
ATOM     22  C   LIG d   1      -2.775  81.295 113.126  0.00  0.00     0.382 C 
ATOM     23  O   LIG d   1      -3.440  82.093 113.829  0.00  0.00    -0.241 OA
ATOM     24  O   LIG d   1      -3.245  80.171 112.865  0.00  0.00    -0.241 OA
ENDBRANCH   3  22
TORSDOF 7
ENDMDL
MODEL 3
REMARK VINA RESULT:      -5.2      2.459      4.607
REMARK  7 active torsions:
REMARK  status: ('A' for Active; 'I' for Inactive)
REMARK    1  A    between atoms: C_2  and  C_3 
REMARK    2  A    between atoms: C_3  and  O_6 
REMARK    3  A    between atoms: C_3  and  C_4 
REMARK    4  A    between atoms: C_7  and  O_6 
REMARK    5  A    between atoms: C_9  and  C_10 
REMARK    6  A    between atoms: N_15  and  C_14 
REMARK    7  A    between atoms: N_20  and  C_19 
REMARK       I    between atoms: C_22  and  N_20 
ROOT
ATOM      1  C   LIG d   1      -0.341  80.827 111.598  0.00  0.00     0.161 C 
ATOM      2  C   LIG d   1      -1.145  79.675 111.557  0.00  0.00     0.016 C 
ATOM      3  C   LIG d   1      -2.010  79.292 112.608  0.00  0.00     0.038 C 
ATOM      4  C   LIG d   1      -2.244  80.121 113.715  0.00  0.00     0.028 C 
ATOM      5  C   LIG d   1      -1.077  81.048 114.036  0.00  0.00    -0.047 C 
ATOM      6  C   LIG d   1      -0.667  81.801 112.750  0.00  0.00     0.091 C 
ENDROOT
BRANCH   1   7
ATOM      7  O   LIG d   1      -0.402  81.510 110.331  0.00  0.00    -0.368 OA
BRANCH   7   8
ATOM      8  C   LIG d   1       0.810  81.490 109.537  0.00  0.00     0.119 C 
BRANCH   8   9
ATOM      9  C   LIG d   1       1.837  80.616 110.283  0.00  0.00     0.028 C 
ATOM     10  C   LIG d   1       2.320  79.427 109.436  0.00  0.00     0.006 C 
ENDBRANCH   8   9
BRANCH   8  11
ATOM     11  C   LIG d   1       1.445  82.881 109.454  0.00  0.00     0.028 C 
ATOM     12  C   LIG d   1       2.806  82.958 110.164  0.00  0.00     0.006 C 
ENDBRANCH   8  11
ENDBRANCH   7   8
ENDBRANCH   1   7
BRANCH   6  13
ATOM     13  N   LIG d   1       0.523  82.667 112.956  0.00  0.00    -0.311 N 
ATOM     14  C   LIG d   1       0.445  83.969 113.225  0.00  0.00     0.210 C 
ATOM     15  C   LIG d   1       1.793  84.680 113.381  0.00  0.00     0.109 C 
ATOM     16  O   LIG d   1      -0.614  84.597 113.381  0.00  0.00    -0.276 OA
ATOM     17  H   LIG d   1       1.422  82.233 112.878  0.00  0.00     0.149 HD
ENDBRANCH   6  13
BRANCH   5  18
ATOM     18  N   LIG d   1      -1.508  81.949 115.121  0.00  0.00     0.381 N 
ATOM     19  H   LIG d   1      -0.934  82.768 115.129  0.00  0.00    -0.090 HD
ATOM     20  H   LIG d   1      -1.395  81.476 116.000  0.00  0.00    -0.090 HD
ATOM     21  H   LIG d   1      -2.462  82.204 114.994  0.00  0.00    -0.090 HD
ENDBRANCH   5  18
BRANCH   3  22
ATOM     22  C   LIG d   1      -2.621  78.048 112.575  0.00  0.00     0.382 C 
ATOM     23  O   LIG d   1      -2.335  77.186 113.441  0.00  0.00    -0.241 OA
ATOM     24  O   LIG d   1      -3.422  77.760 111.665  0.00  0.00    -0.241 OA
ENDBRANCH   3  22
TORSDOF 7
ENDMDL
MODEL 4
REMARK VINA RESULT:      -5.2      1.781      4.889
REMARK  7 active torsions:
REMARK  status: ('A' for Active; 'I' for Inactive)
REMARK    1  A    between atoms: C_2  and  C_3 
REMARK    2  A    between atoms: C_3  and  O_6 
REMARK    3  A    between atoms: C_3  and  C_4 
REMARK    4  A    between atoms: C_7  and  O_6 
REMARK    5  A    between atoms: C_9  and  C_10 
REMARK    6  A    between atoms: N_15  and  C_14 
REMARK    7  A    between atoms: N_20  and  C_19 
REMARK       I    between atoms: C_22  and  N_20 
ROOT
ATOM      1  C   LIG d   1       1.035  82.373 112.354  0.00  0.00     0.161 C 
ATOM      2  C   LIG d   1       2.129  82.872 111.629  0.00  0.00     0.016 C 
ATOM      3  C   LIG d   1       2.427  82.482 110.303  0.00  0.00     0.038 C 
ATOM      4  C   LIG d   1       1.558  81.675 109.554  0.00  0.00     0.028 C 
ATOM      5  C   LIG d   1       0.706  80.745 110.412  0.00  0.00    -0.047 C 
ATOM      6  C   LIG d   1       0.013  81.576 111.516  0.00  0.00     0.091 C 
ENDROOT
BRANCH   1   7
ATOM      7  O   LIG d   1       0.379  83.450 113.052  0.00  0.00    -0.368 OA
BRANCH   7   8
ATOM      8  C   LIG d   1       0.514  83.450 114.495  0.00  0.00     0.119 C 
BRANCH   8   9
ATOM      9  C   LIG d   1      -0.874  83.754 115.090  0.00  0.00     0.028 C 
ATOM     10  C   LIG d   1      -0.803  84.148 116.575  0.00  0.00     0.006 C 
ENDBRANCH   8   9
BRANCH   8  11
ATOM     11  C   LIG d   1       1.417  84.593 114.970  0.00  0.00     0.028 C 
ATOM     12  C   LIG d   1       2.903  84.201 115.010  0.00  0.00     0.006 C 
ENDBRANCH   8  11
ENDBRANCH   7   8
ENDBRANCH   1   7
BRANCH   6  13
ATOM     13  N   LIG d   1      -0.774  80.732 112.452  0.00  0.00    -0.311 N 
ATOM     14  C   LIG d   1      -2.023  81.014 112.821  0.00  0.00     0.210 C 
ATOM     15  C   LIG d   1      -2.645  80.022 113.809  0.00  0.00     0.109 C 
ATOM     16  O   LIG d   1      -2.685  81.974 112.399  0.00  0.00    -0.276 OA
ATOM     17  H   LIG d   1      -0.324  79.916 112.818  0.00  0.00     0.149 HD
ENDBRANCH   6  13
BRANCH   5  18
ATOM     18  N   LIG d   1      -0.249  80.063 109.518  0.00  0.00     0.381 N 
ATOM     19  H   LIG d   1       0.231  79.719 108.710  0.00  0.00    -0.090 HD
ATOM     20  H   LIG d   1      -0.941  80.726 109.215  0.00  0.00    -0.090 HD
ATOM     21  H   LIG d   1      -0.688  79.310 109.998  0.00  0.00    -0.090 HD
ENDBRANCH   5  18
BRANCH   3  22
ATOM     22  C   LIG d   1       3.627  82.869 109.725  0.00  0.00     0.382 C 
ATOM     23  O   LIG d   1       3.832  84.077 109.456  0.00  0.00    -0.241 OA
ATOM     24  O   LIG d   1       4.489  82.020 109.430  0.00  0.00    -0.241 OA
ENDBRANCH   3  22
TORSDOF 7
ENDMDL
MODEL 5
REMARK VINA RESULT:      -4.8      2.299      4.937
REMARK  7 active torsions:
REMARK  status: ('A' for Active; 'I' for Inactive)
REMARK    1  A    between atoms: C_2  and  C_3 
REMARK    2  A    between atoms: C_3  and  O_6 
REMARK    3  A    between atoms: C_3  and  C_4 
REMARK    4  A    between atoms: C_7  and  O_6 
REMARK    5  A    between atoms: C_9  and  C_10 
REMARK    6  A    between atoms: N_15  and  C_14 
REMARK    7  A    between atoms: N_20  and  C_19 
REMARK       I    between atoms: C_22  and  N_20 
ROOT
ATOM      1  C   LIG d   1       0.341  81.882 112.992  0.00  0.00     0.161 C 
ATOM      2  C   LIG d   1       1.158  82.819 112.338  0.00  0.00     0.016 C 
ATOM      3  C   LIG d   1       1.430  82.780 110.951  0.00  0.00     0.038 C 
ATOM      4  C   LIG d   1       0.778  81.882 110.092  0.00  0.00     0.028 C 
ATOM      5  C   LIG d   1       0.335  80.597 110.783  0.00  0.00    -0.047 C 
ATOM      6  C   LIG d   1      -0.467  80.961 112.053  0.00  0.00     0.091 C 
ENDROOT
BRANCH   1   7
ATOM      7  O   LIG d   1      -0.539  82.558 113.911  0.00  0.00    -0.368 OA
BRANCH   7   8
ATOM      8  C   LIG d   1       0.049  82.972 115.169  0.00  0.00     0.119 C 
BRANCH   8   9
ATOM      9  C   LIG d   1       0.270  81.704 116.016  0.00  0.00     0.028 C 
ATOM     10  C   LIG d   1      -1.051  81.090 116.509  0.00  0.00     0.006 C 
ENDBRANCH   8   9
BRANCH   8  11
ATOM     11  C   LIG d   1      -0.921  83.837 115.979  0.00  0.00     0.028 C 
ATOM     12  C   LIG d   1      -1.851  84.680 115.092  0.00  0.00     0.006 C 
ENDBRANCH   8  11
ENDBRANCH   7   8
ENDBRANCH   1   7
BRANCH   6  13
ATOM     13  N   LIG d   1      -0.867  79.762 112.834  0.00  0.00    -0.311 N 
ATOM     14  C   LIG d   1      -2.107  79.554 113.276  0.00  0.00     0.210 C 
ATOM     15  C   LIG d   1      -2.299  78.264 114.078  0.00  0.00     0.109 C 
ATOM     16  O   LIG d   1      -3.071  80.301 113.052  0.00  0.00    -0.276 OA
ATOM     17  H   LIG d   1      -0.153  79.089 113.035  0.00  0.00     0.149 HD
ENDBRANCH   6  13
BRANCH   5  18
ATOM     18  N   LIG d   1      -0.450  79.816 109.808  0.00  0.00     0.381 N 
ATOM     19  H   LIG d   1      -0.612  80.363 108.987  0.00  0.00    -0.090 HD
ATOM     20  H   LIG d   1      -1.340  79.587 110.216  0.00  0.00    -0.090 HD
ATOM     21  H   LIG d   1       0.038  78.981 109.569  0.00  0.00    -0.090 HD
ENDBRANCH   5  18
BRANCH   3  22
ATOM     22  C   LIG d   1       2.394  83.621 110.416  0.00  0.00     0.382 C 
ATOM     23  O   LIG d   1       3.611  83.338 110.540  0.00  0.00    -0.241 OA
ATOM     24  O   LIG d   1       2.065  84.680 109.849  0.00  0.00    -0.241 OA
ENDBRANCH   3  22
TORSDOF 7
ENDMDL
MODEL 6
REMARK VINA RESULT:      -4.4      2.269      5.080
REMARK  7 active torsions:
REMARK  status: ('A' for Active; 'I' for Inactive)
REMARK    1  A    between atoms: C_2  and  C_3 
REMARK    2  A    between atoms: C_3  and  O_6 
REMARK    3  A    between atoms: C_3  and  C_4 
REMARK    4  A    between atoms: C_7  and  O_6 
REMARK    5  A    between atoms: C_9  and  C_10 
REMARK    6  A    between atoms: N_15  and  C_14 
REMARK    7  A    between atoms: N_20  and  C_19 
REMARK       I    between atoms: C_22  and  N_20 
ROOT
ATOM      1  C   LIG d   1       0.795  82.192 114.200  0.00  0.00     0.161 C 
ATOM      2  C   LIG d   1       1.747  81.970 113.191  0.00  0.00     0.016 C 
ATOM      3  C   LIG d   1       1.460  81.289 111.986  0.00  0.00     0.038 C 
ATOM      4  C   LIG d   1       0.153  80.913 111.640  0.00  0.00     0.028 C 
ATOM      5  C   LIG d   1      -0.745  80.666 112.847  0.00  0.00    -0.047 C 
ATOM      6  C   LIG d   1      -0.662  81.886 113.793  0.00  0.00     0.091 C 
ENDROOT
BRANCH   1   7
ATOM      7  O   LIG d   1       0.906  83.543 114.689  0.00  0.00    -0.368 OA
BRANCH   7   8
ATOM      8  C   LIG d   1       1.367  83.691 116.054  0.00  0.00     0.119 C 
BRANCH   8   9
ATOM      9  C   LIG d   1       0.418  84.680 116.759  0.00  0.00     0.028 C 
ATOM     10  C   LIG d   1      -0.501  83.986 117.778  0.00  0.00     0.006 C 
ENDBRANCH   8   9
BRANCH   8  11
ATOM     11  C   LIG d   1       2.750  84.349 116.107  0.00  0.00     0.028 C 
ATOM     12  C   LIG d   1       3.213  84.647 117.542  0.00  0.00     0.006 C 
ENDBRANCH   8  11
ENDBRANCH   7   8
ENDBRANCH   1   7
BRANCH   6  13
ATOM     13  N   LIG d   1      -1.446  81.692 115.040  0.00  0.00    -0.311 N 
ATOM     14  C   LIG d   1      -2.707  82.096 115.184  0.00  0.00     0.210 C 
ATOM     15  C   LIG d   1      -3.324  81.814 116.558  0.00  0.00     0.109 C 
ATOM     16  O   LIG d   1      -3.384  82.631 114.293  0.00  0.00    -0.276 OA
ATOM     17  H   LIG d   1      -0.984  81.237 115.803  0.00  0.00     0.149 HD
ENDBRANCH   6  13
BRANCH   5  18
ATOM     18  N   LIG d   1      -2.109  80.417 112.344  0.00  0.00     0.381 N 
ATOM     19  H   LIG d   1      -2.301  79.436 112.357  0.00  0.00    -0.090 HD
ATOM     20  H   LIG d   1      -2.169  80.738 111.394  0.00  0.00    -0.090 HD
ATOM     21  H   LIG d   1      -2.774  80.901 112.907  0.00  0.00    -0.090 HD
ENDBRANCH   5  18
BRANCH   3  22
ATOM     22  C   LIG d   1       2.494  80.942 111.130  0.00  0.00     0.382 C 
ATOM     23  O   LIG d   1       3.626  81.463 111.271  0.00  0.00    -0.241 OA
ATOM     24  O   LIG d   1       2.296  80.149 110.190  0.00  0.00    -0.241 OA
ENDBRANCH   3  22
TORSDOF 7
ENDMDL
MODEL 7
REMARK VINA RESULT:      -4.4      2.876      3.832
REMARK  7 active torsions:
REMARK  status: ('A' for Active; 'I' for Inactive)
REMARK    1  A    between atoms: C_2  and  C_3 
REMARK    2  A    between atoms: C_3  and  O_6 
REMARK    3  A    between atoms: C_3  and  C_4 
REMARK    4  A    between atoms: C_7  and  O_6 
REMARK    5  A    between atoms: C_9  and  C_10 
REMARK    6  A    between atoms: N_15  and  C_14 
REMARK    7  A    between atoms: N_20  and  C_19 
REMARK       I    between atoms: C_22  and  N_20 
ROOT
ATOM      1  C   LIG d   1      -2.268  81.174 114.122  0.00  0.00     0.161 C 
ATOM      2  C   LIG d   1      -2.596  79.944 114.716  0.00  0.00     0.016 C 
ATOM      3  C   LIG d   1      -2.342  78.693 114.107  0.00  0.00     0.038 C 
ATOM      4  C   LIG d   1      -1.601  78.583 112.921  0.00  0.00     0.028 C 
ATOM      5  C   LIG d   1      -1.692  79.820 112.033  0.00  0.00    -0.047 C 
ATOM      6  C   LIG d   1      -1.360  81.070 112.879  0.00  0.00     0.091 C 
ENDROOT
BRANCH   1   7
ATOM      7  O   LIG d   1      -1.677  82.048 115.104  0.00  0.00    -0.368 OA
BRANCH   7   8
ATOM      8  C   LIG d   1      -0.231  82.013 115.200  0.00  0.00     0.119 C 
BRANCH   8   9
ATOM      9  C   LIG d   1       0.127  81.356 116.547  0.00  0.00     0.028 C 
ATOM     10  C   LIG d   1       0.643  82.374 117.578  0.00  0.00     0.006 C 
ENDBRANCH   8   9
BRANCH   8  11
ATOM     11  C   LIG d   1       0.357  83.425 115.269  0.00  0.00     0.028 C 
ATOM     12  C   LIG d   1      -0.670  84.516 114.926  0.00  0.00     0.006 C 
ENDBRANCH   8  11
ENDBRANCH   7   8
ENDBRANCH   1   7
BRANCH   6  13
ATOM     13  N   LIG d   1      -1.507  82.332 112.108  0.00  0.00    -0.311 N 
ATOM     14  C   LIG d   1      -0.485  82.962 111.531  0.00  0.00     0.210 C 
ATOM     15  C   LIG d   1      -0.853  84.258 110.802  0.00  0.00     0.109 C 
ATOM     16  O   LIG d   1       0.686  82.554 111.527  0.00  0.00    -0.276 OA
ATOM     17  H   LIG d   1      -2.428  82.717 112.035  0.00  0.00     0.149 HD
ENDBRANCH   6  13
BRANCH   5  18
ATOM     18  N   LIG d   1      -0.766  79.625 110.901  0.00  0.00     0.381 N 
ATOM     19  H   LIG d   1      -1.072  78.855 110.342  0.00  0.00    -0.090 HD
ATOM     20  H   LIG d   1       0.147  79.410 111.262  0.00  0.00    -0.090 HD
ATOM     21  H   LIG d   1      -0.726  80.452 110.347  0.00  0.00    -0.090 HD
ENDBRANCH   5  18
BRANCH   3  22
ATOM     22  C   LIG d   1      -2.867  77.538 114.665  0.00  0.00     0.382 C 
ATOM     23  O   LIG d   1      -3.375  77.570 115.812  0.00  0.00    -0.241 OA
ATOM     24  O   LIG d   1      -2.798  76.454 114.055  0.00  0.00    -0.241 OA
ENDBRANCH   3  22
TORSDOF 7
ENDMDL
MODEL 8
REMARK VINA RESULT:      -4.3      2.597      5.043
REMARK  7 active torsions:
REMARK  status: ('A' for Active; 'I' for Inactive)
REMARK    1  A    between atoms: C_2  and  C_3 
REMARK    2  A    between atoms: C_3  and  O_6 
REMARK    3  A    between atoms: C_3  and  C_4 
REMARK    4  A    between atoms: C_7  and  O_6 
REMARK    5  A    between atoms: C_9  and  C_10 
REMARK    6  A    between atoms: N_15  and  C_14 
REMARK    7  A    between atoms: N_20  and  C_19 
REMARK       I    between atoms: C_22  and  N_20 
ROOT
ATOM      1  C   LIG d   1      -0.850  82.686 113.540  0.00  0.00     0.161 C 
ATOM      2  C   LIG d   1       0.273  83.346 113.014  0.00  0.00     0.016 C 
ATOM      3  C   LIG d   1       1.009  82.866 111.906  0.00  0.00     0.038 C 
ATOM      4  C   LIG d   1       0.579  81.765 111.151  0.00  0.00     0.028 C 
ATOM      5  C   LIG d   1      -0.263  80.775 111.948  0.00  0.00    -0.047 C 
ATOM      6  C   LIG d   1      -1.400  81.543 112.661  0.00  0.00     0.091 C 
ENDROOT
BRANCH   1   7
ATOM      7  O   LIG d   1      -1.890  83.643 113.826  0.00  0.00    -0.368 OA
BRANCH   7   8
ATOM      8  C   LIG d   1      -2.182  83.867 115.227  0.00  0.00     0.119 C 
BRANCH   8   9
ATOM      9  C   LIG d   1      -1.028  83.255 116.044  0.00  0.00     0.028 C 
ATOM     10  C   LIG d   1      -0.269  84.308 116.869  0.00  0.00     0.006 C 
ENDBRANCH   8   9
BRANCH   8  11
ATOM     11  C   LIG d   1      -3.436  83.105 115.664  0.00  0.00     0.028 C 
ATOM     12  C   LIG d   1      -3.219  82.283 116.944  0.00  0.00     0.006 C 
ENDBRANCH   8  11
ENDBRANCH   7   8
ENDBRANCH   1   7
BRANCH   6  13
ATOM     13  N   LIG d   1      -2.222  80.662 113.531  0.00  0.00    -0.311 N 
ATOM     14  C   LIG d   1      -1.706  79.881 114.479  0.00  0.00     0.210 C 
ATOM     15  C   LIG d   1      -2.728  79.037 115.247  0.00  0.00     0.109 C 
ATOM     16  O   LIG d   1      -0.504  79.832 114.778  0.00  0.00    -0.276 OA
ATOM     17  H   LIG d   1      -3.211  80.663 113.377  0.00  0.00     0.149 HD
ENDBRANCH   6  13
BRANCH   5  18
ATOM     18  N   LIG d   1      -0.758  79.752 111.008  0.00  0.00     0.381 N 
ATOM     19  H   LIG d   1      -0.584  80.044 110.067  0.00  0.00    -0.090 HD
ATOM     20  H   LIG d   1      -1.751  79.652 111.129  0.00  0.00    -0.090 HD
ATOM     21  H   LIG d   1      -0.306  78.881 111.182  0.00  0.00    -0.090 HD
ENDBRANCH   5  18
BRANCH   3  22
ATOM     22  C   LIG d   1       2.213  83.466 111.569  0.00  0.00     0.382 C 
ATOM     23  O   LIG d   1       2.245  84.347 110.676  0.00  0.00    -0.241 OA
ATOM     24  O   LIG d   1       3.273  83.107 112.115  0.00  0.00    -0.241 OA
ENDBRANCH   3  22
TORSDOF 7
ENDMDL
MODEL 9
REMARK VINA RESULT:      -4.3      2.262      4.294
REMARK  7 active torsions:
REMARK  status: ('A' for Active; 'I' for Inactive)
REMARK    1  A    between atoms: C_2  and  C_3 
REMARK    2  A    between atoms: C_3  and  O_6 
REMARK    3  A    between atoms: C_3  and  C_4 
REMARK    4  A    between atoms: C_7  and  O_6 
REMARK    5  A    between atoms: C_9  and  C_10 
REMARK    6  A    between atoms: N_15  and  C_14 
REMARK    7  A    between atoms: N_20  and  C_19 
REMARK       I    between atoms: C_22  and  N_20 
ROOT
ATOM      1  C   LIG d   1       0.909  81.424 113.270  0.00  0.00     0.161 C 
ATOM      2  C   LIG d   1      -0.226  80.611 113.115  0.00  0.00     0.016 C 
ATOM      3  C   LIG d   1      -1.513  80.978 113.571  0.00  0.00     0.038 C 
ATOM      4  C   LIG d   1      -1.783  82.256 114.081  0.00  0.00     0.028 C 
ATOM      5  C   LIG d   1      -0.568  82.922 114.719  0.00  0.00    -0.047 C 
ATOM      6  C   LIG d   1       0.614  82.868 113.724  0.00  0.00     0.091 C 
ENDROOT
BRANCH   1   7
ATOM      7  O   LIG d   1       1.676  81.429 112.050  0.00  0.00    -0.368 OA
BRANCH   7   8
ATOM      8  C   LIG d   1       1.021  80.875 110.882  0.00  0.00     0.119 C 
BRANCH   8   9
ATOM      9  C   LIG d   1       2.114  80.260 109.986  0.00  0.00     0.028 C 
ATOM     10  C   LIG d   1       3.532  80.571 110.494  0.00  0.00     0.006 C 
ENDBRANCH   8   9
BRANCH   8  11
ATOM     11  C   LIG d   1       0.371  81.972 110.034  0.00  0.00     0.028 C 
ATOM     12  C   LIG d   1       1.316  83.154 109.763  0.00  0.00     0.006 C 
ENDBRANCH   8  11
ENDBRANCH   7   8
ENDBRANCH   1   7
BRANCH   6  13
ATOM     13  N   LIG d   1       1.866  83.423 114.301  0.00  0.00    -0.311 N 
ATOM     14  C   LIG d   1       2.681  84.239 113.635  0.00  0.00     0.210 C 
ATOM     15  C   LIG d   1       3.928  84.680 114.409  0.00  0.00     0.109 C 
ATOM     16  O   LIG d   1       2.474  84.666 112.489  0.00  0.00    -0.276 OA
ATOM     17  H   LIG d   1       2.095  83.154 115.238  0.00  0.00     0.149 HD
ENDBRANCH   6  13
BRANCH   5  18
ATOM     18  N   LIG d   1      -0.955  84.298 115.084  0.00  0.00     0.381 N 
ATOM     19  H   LIG d   1      -1.294  84.781 114.275  0.00  0.00    -0.090 HD
ATOM     20  H   LIG d   1      -0.144  84.784 115.424  0.00  0.00    -0.090 HD
ATOM     21  H   LIG d   1      -1.660  84.279 115.787  0.00  0.00    -0.090 HD
ENDBRANCH   5  18
BRANCH   3  22
ATOM     22  C   LIG d   1      -2.539  80.045 113.554  0.00  0.00     0.382 C 
ATOM     23  O   LIG d   1      -3.085  79.694 114.628  0.00  0.00    -0.241 OA
ATOM     24  O   LIG d   1      -2.897  79.518 112.484  0.00  0.00    -0.241 OA
ENDBRANCH   3  22
TORSDOF 7
ENDMDL
