MODEL 1
REMARK VINA RESULT:      -5.6      0.000      0.000
REMARK  7 active torsions:
REMARK  status: ('A' for Active; 'I' for Inactive)
REMARK    1  A    between atoms: C_2  and  C_3 
REMARK    2  A    between atoms: C_3  and  O_6 
REMARK    3  A    between atoms: C_3  and  C_4 
REMARK    4  A    between atoms: C_7  and  O_6 
REMARK    5  A    between atoms: C_9  and  C_10 
REMARK    6  A    between atoms: N_15  and  C_14 
REMARK    7  A    between atoms: N_20  and  C_19 
REMARK       I    between atoms: C_22  and  N_20 
ROOT
ATOM      1  C   LIG d   1       1.094  80.436 111.119  0.00  0.00     0.161 C 
ATOM      2  C   LIG d   1       0.285  79.392 110.638  0.00  0.00     0.016 C 
ATOM      3  C   LIG d   1      -0.724  78.772 111.409  0.00  0.00     0.038 C 
ATOM      4  C   LIG d   1      -1.098  79.258 112.671  0.00  0.00     0.028 C 
ATOM      5  C   LIG d   1       0.029  79.985 113.397  0.00  0.00    -0.047 C 
ATOM      6  C   LIG d   1       0.627  81.053 112.453  0.00  0.00     0.091 C 
ENDROOT
BRANCH   1   7
ATOM      7  O   LIG d   1       1.222  81.458 110.111  0.00  0.00    -0.368 OA
BRANCH   7   8
ATOM      8  C   LIG d   1       2.499  81.526 109.431  0.00  0.00     0.119 C 
BRANCH   8   9
ATOM      9  C   LIG d   1       3.500  80.678 110.239  0.00  0.00     0.028 C 
ATOM     10  C   LIG d   1       4.619  81.527 110.864  0.00  0.00     0.006 C 
ENDBRANCH   8   9
BRANCH   8  11
ATOM     11  C   LIG d   1       3.066  82.949 109.450  0.00  0.00     0.028 C 
ATOM     12  C   LIG d   1       1.970  84.027 109.430  0.00  0.00     0.006 C 
ENDBRANCH   8  11
ENDBRANCH   7   8
ENDBRANCH   1   7
BRANCH   6  13
ATOM     13  N   LIG d   1       1.790  81.755 113.056  0.00  0.00    -0.311 N 
ATOM     14  C   LIG d   1       1.910  83.081 113.089  0.00  0.00     0.210 C 
ATOM     15  C   LIG d   1       3.197  83.598 113.739  0.00  0.00     0.109 C 
ATOM     16  O   LIG d   1       1.057  83.879 112.672  0.00  0.00    -0.276 OA
ATOM     17  H   LIG d   1       2.515  81.184 113.446  0.00  0.00     0.149 HD
ENDBRANCH   6  13
BRANCH   5  18
ATOM     18  N   LIG d   1      -0.535  80.558 114.634  0.00  0.00     0.381 N 
ATOM     19  H   LIG d   1       0.205  80.866 115.233  0.00  0.00    -0.090 HD
ATOM     20  H   LIG d   1      -1.054  79.844 115.116  0.00  0.00    -0.090 HD
ATOM     21  H   LIG d   1      -1.135  81.322 114.414  0.00  0.00    -0.090 HD
ENDBRANCH   5  18
BRANCH   3  22
ATOM     22  C   LIG d   1      -1.345  77.626 110.935  0.00  0.00     0.382 C 
ATOM     23  O   LIG d   1      -2.598  77.551 110.923  0.00  0.00    -0.241 OA
ATOM     24  O   LIG d   1      -0.669  76.650 110.559  0.00  0.00    -0.241 OA
ENDBRANCH   3  22
TORSDOF 7
ENDMDL
MODEL 2
REMARK VINA RESULT:      -4.7      2.164      2.622
REMARK  7 active torsions:
REMARK  status: ('A' for Active; 'I' for Inactive)
REMARK    1  A    between atoms: C_2  and  C_3 
REMARK    2  A    between atoms: C_3  and  O_6 
REMARK    3  A    between atoms: C_3  and  C_4 
REMARK    4  A    between atoms: C_7  and  O_6 
REMARK    5  A    between atoms: C_9  and  C_10 
REMARK    6  A    between atoms: N_15  and  C_14 
REMARK    7  A    between atoms: N_20  and  C_19 
REMARK       I    between atoms: C_22  and  N_20 
ROOT
ATOM      1  C   LIG d   1       0.272  80.344 112.848  0.00  0.00     0.161 C 
ATOM      2  C   LIG d   1      -0.414  79.561 111.905  0.00  0.00     0.016 C 
ATOM      3  C   LIG d   1      -1.217  78.450 112.251  0.00  0.00     0.038 C 
ATOM      4  C   LIG d   1      -1.511  78.135 113.586  0.00  0.00     0.028 C 
ATOM      5  C   LIG d   1      -0.435  78.590 114.567  0.00  0.00    -0.047 C 
ATOM      6  C   LIG d   1      -0.127  80.084 114.316  0.00  0.00     0.091 C 
ENDROOT
BRANCH   1   7
ATOM      7  O   LIG d   1       0.119  81.741 112.528  0.00  0.00    -0.368 OA
BRANCH   7   8
ATOM      8  C   LIG d   1       0.689  82.171 111.267  0.00  0.00     0.119 C 
BRANCH   8   9
ATOM      9  C   LIG d   1       2.148  82.588 111.538  0.00  0.00     0.028 C 
ATOM     10  C   LIG d   1       3.159  81.535 111.053  0.00  0.00     0.006 C 
ENDBRANCH   8   9
BRANCH   8  11
ATOM     11  C   LIG d   1      -0.003  83.434 110.745  0.00  0.00     0.028 C 
ATOM     12  C   LIG d   1       0.851  84.201 109.723  0.00  0.00     0.006 C 
ENDBRANCH   8  11
ENDBRANCH   7   8
ENDBRANCH   1   7
BRANCH   6  13
ATOM     13  N   LIG d   1       0.975  80.587 115.177  0.00  0.00    -0.311 N 
ATOM     14  C   LIG d   1       0.782  81.097 116.392  0.00  0.00     0.210 C 
ATOM     15  C   LIG d   1       2.052  81.576 117.102  0.00  0.00     0.109 C 
ATOM     16  O   LIG d   1      -0.317  81.168 116.962  0.00  0.00    -0.276 OA
ATOM     17  H   LIG d   1       1.903  80.539 114.805  0.00  0.00     0.149 HD
ENDBRANCH   6  13
BRANCH   5  18
ATOM     18  N   LIG d   1      -0.933  78.323 115.930  0.00  0.00     0.381 N 
ATOM     19  H   LIG d   1      -1.775  78.839 116.090  0.00  0.00    -0.090 HD
ATOM     20  H   LIG d   1      -0.244  78.630 116.593  0.00  0.00    -0.090 HD
ATOM     21  H   LIG d   1      -1.105  77.349 116.045  0.00  0.00    -0.090 HD
ENDBRANCH   5  18
BRANCH   3  22
ATOM     22  C   LIG d   1      -1.702  77.615 111.256  0.00  0.00     0.382 C 
ATOM     23  O   LIG d   1      -0.912  76.881 110.613  0.00  0.00    -0.241 OA
ATOM     24  O   LIG d   1      -2.912  77.619 110.962  0.00  0.00    -0.241 OA
ENDBRANCH   3  22
TORSDOF 7
ENDMDL
MODEL 3
REMARK VINA RESULT:      -4.6      1.427      2.143
REMARK  7 active torsions:
REMARK  status: ('A' for Active; 'I' for Inactive)
REMARK    1  A    between atoms: C_2  and  C_3 
REMARK    2  A    between atoms: C_3  and  O_6 
REMARK    3  A    between atoms: C_3  and  C_4 
REMARK    4  A    between atoms: C_7  and  O_6 
REMARK    5  A    between atoms: C_9  and  C_10 
REMARK    6  A    between atoms: N_15  and  C_14 
REMARK    7  A    between atoms: N_20  and  C_19 
REMARK       I    between atoms: C_22  and  N_20 
ROOT
ATOM      1  C   LIG d   1       1.067  80.518 111.329  0.00  0.00     0.161 C 
ATOM      2  C   LIG d   1      -0.115  79.793 111.100  0.00  0.00     0.016 C 
ATOM      3  C   LIG d   1      -1.020  79.437 112.126  0.00  0.00     0.038 C 
ATOM      4  C   LIG d   1      -0.879  79.915 113.438  0.00  0.00     0.028 C 
ATOM      5  C   LIG d   1       0.564  80.228 113.817  0.00  0.00    -0.047 C 
ATOM      6  C   LIG d   1       1.180  81.144 112.735  0.00  0.00     0.091 C 
ENDROOT
BRANCH   1   7
ATOM      7  O   LIG d   1       1.222  81.532 110.316  0.00  0.00    -0.368 OA
BRANCH   7   8
ATOM      8  C   LIG d   1       1.273  82.901 110.786  0.00  0.00     0.119 C 
BRANCH   8   9
ATOM      9  C   LIG d   1      -0.104  83.536 110.513  0.00  0.00     0.028 C 
ATOM     10  C   LIG d   1      -0.483  84.592 111.566  0.00  0.00     0.006 C 
ENDBRANCH   8   9
BRANCH   8  11
ATOM     11  C   LIG d   1       2.272  83.732 109.975  0.00  0.00     0.028 C 
ATOM     12  C   LIG d   1       3.677  83.111 109.945  0.00  0.00     0.006 C 
ENDBRANCH   8  11
ENDBRANCH   7   8
ENDBRANCH   1   7
BRANCH   6  13
ATOM     13  N   LIG d   1       2.617  81.430 112.985  0.00  0.00    -0.311 N 
ATOM     14  C   LIG d   1       3.044  82.481 113.683  0.00  0.00     0.210 C 
ATOM     15  C   LIG d   1       4.566  82.601 113.806  0.00  0.00     0.109 C 
ATOM     16  O   LIG d   1       2.305  83.308 114.240  0.00  0.00    -0.276 OA
ATOM     17  H   LIG d   1       3.283  80.793 112.596  0.00  0.00     0.149 HD
ENDBRANCH   6  13
BRANCH   5  18
ATOM     18  N   LIG d   1       0.549  80.845 115.157  0.00  0.00     0.381 N 
ATOM     19  H   LIG d   1      -0.392  80.904 115.492  0.00  0.00    -0.090 HD
ATOM     20  H   LIG d   1       0.918  81.777 115.089  0.00  0.00    -0.090 HD
ATOM     21  H   LIG d   1       1.100  80.306 115.787  0.00  0.00    -0.090 HD
ENDBRANCH   5  18
BRANCH   3  22
ATOM     22  C   LIG d   1      -2.058  78.559 111.852  0.00  0.00     0.382 C 
ATOM     23  O   LIG d   1      -3.169  78.707 112.417  0.00  0.00    -0.241 OA
ATOM     24  O   LIG d   1      -1.885  77.596 111.082  0.00  0.00    -0.241 OA
ENDBRANCH   3  22
TORSDOF 7
ENDMDL
MODEL 4
REMARK VINA RESULT:      -4.5      2.462      5.028
REMARK  7 active torsions:
REMARK  status: ('A' for Active; 'I' for Inactive)
REMARK    1  A    between atoms: C_2  and  C_3 
REMARK    2  A    between atoms: C_3  and  O_6 
REMARK    3  A    between atoms: C_3  and  C_4 
REMARK    4  A    between atoms: C_7  and  O_6 
REMARK    5  A    between atoms: C_9  and  C_10 
REMARK    6  A    between atoms: N_15  and  C_14 
REMARK    7  A    between atoms: N_20  and  C_19 
REMARK       I    between atoms: C_22  and  N_20 
ROOT
ATOM      1  C   LIG d   1      -0.938  80.540 113.479  0.00  0.00     0.161 C 
ATOM      2  C   LIG d   1      -1.816  79.482 113.190  0.00  0.00     0.016 C 
ATOM      3  C   LIG d   1      -1.664  78.628 112.073  0.00  0.00     0.038 C 
ATOM      4  C   LIG d   1      -0.530  78.680 111.249  0.00  0.00     0.028 C 
ATOM      5  C   LIG d   1       0.125  80.056 111.207  0.00  0.00    -0.047 C 
ATOM      6  C   LIG d   1       0.366  80.543 112.654  0.00  0.00     0.091 C 
ENDROOT
BRANCH   1   7
ATOM      7  O   LIG d   1      -0.639  80.556 114.889  0.00  0.00    -0.368 OA
BRANCH   7   8
ATOM      8  C   LIG d   1      -1.163  79.449 115.663  0.00  0.00     0.119 C 
BRANCH   8   9
ATOM      9  C   LIG d   1      -1.919  80.043 116.867  0.00  0.00     0.028 C 
ATOM     10  C   LIG d   1      -3.440  79.836 116.766  0.00  0.00     0.006 C 
ENDBRANCH   8   9
BRANCH   8  11
ATOM     11  C   LIG d   1      -0.035  78.608 116.268  0.00  0.00     0.028 C 
ATOM     12  C   LIG d   1       0.010  77.179 115.706  0.00  0.00     0.006 C 
ENDBRANCH   8  11
ENDBRANCH   7   8
ENDBRANCH   1   7
BRANCH   6  13
ATOM     13  N   LIG d   1       0.927  81.918 112.704  0.00  0.00    -0.311 N 
ATOM     14  C   LIG d   1       2.233  82.178 112.684  0.00  0.00     0.210 C 
ATOM     15  C   LIG d   1       2.598  83.663 112.765  0.00  0.00     0.109 C 
ATOM     16  O   LIG d   1       3.123  81.321 112.575  0.00  0.00    -0.276 OA
ATOM     17  H   LIG d   1       0.275  82.675 112.762  0.00  0.00     0.149 HD
ENDBRANCH   6  13
BRANCH   5  18
ATOM     18  N   LIG d   1       1.370  79.934 110.424  0.00  0.00     0.381 N 
ATOM     19  H   LIG d   1       1.226  79.310 109.655  0.00  0.00    -0.090 HD
ATOM     20  H   LIG d   1       2.087  79.548 111.012  0.00  0.00    -0.090 HD
ATOM     21  H   LIG d   1       1.651  80.828 110.088  0.00  0.00    -0.090 HD
ENDBRANCH   5  18
BRANCH   3  22
ATOM     22  C   LIG d   1      -2.673  77.735 111.749  0.00  0.00     0.382 C 
ATOM     23  O   LIG d   1      -2.904  77.459 110.547  0.00  0.00    -0.241 OA
ATOM     24  O   LIG d   1      -3.385  77.235 112.641  0.00  0.00    -0.241 OA
ENDBRANCH   3  22
TORSDOF 7
ENDMDL
MODEL 5
REMARK VINA RESULT:      -4.5      3.573      6.222
REMARK  7 active torsions:
REMARK  status: ('A' for Active; 'I' for Inactive)
REMARK    1  A    between atoms: C_2  and  C_3 
REMARK    2  A    between atoms: C_3  and  O_6 
REMARK    3  A    between atoms: C_3  and  C_4 
REMARK    4  A    between atoms: C_7  and  O_6 
REMARK    5  A    between atoms: C_9  and  C_10 
REMARK    6  A    between atoms: N_15  and  C_14 
REMARK    7  A    between atoms: N_20  and  C_19 
REMARK       I    between atoms: C_22  and  N_20 
ROOT
ATOM      1  C   LIG d   1      -2.223  78.824 114.721  0.00  0.00     0.161 C 
ATOM      2  C   LIG d   1      -2.369  78.285 113.432  0.00  0.00     0.016 C 
ATOM      3  C   LIG d   1      -1.485  78.567 112.366  0.00  0.00     0.038 C 
ATOM      4  C   LIG d   1      -0.301  79.294 112.557  0.00  0.00     0.028 C 
ATOM      5  C   LIG d   1      -0.375  80.277 113.720  0.00  0.00    -0.047 C 
ATOM      6  C   LIG d   1      -0.875  79.531 114.977  0.00  0.00     0.091 C 
ENDROOT
BRANCH   1   7
ATOM      7  O   LIG d   1      -2.447  77.799 115.709  0.00  0.00    -0.368 OA
BRANCH   7   8
ATOM      8  C   LIG d   1      -2.353  76.431 115.240  0.00  0.00     0.119 C 
BRANCH   8   9
ATOM      9  C   LIG d   1      -3.437  75.616 115.970  0.00  0.00     0.028 C 
ATOM     10  C   LIG d   1      -2.875  74.830 117.167  0.00  0.00     0.006 C 
ENDBRANCH   8   9
BRANCH   8  11
ATOM     11  C   LIG d   1      -1.022  75.793 115.648  0.00  0.00     0.028 C 
ATOM     12  C   LIG d   1      -0.118  75.477 114.446  0.00  0.00     0.006 C 
ENDBRANCH   8  11
ENDBRANCH   7   8
ENDBRANCH   1   7
BRANCH   6  13
ATOM     13  N   LIG d   1      -1.056  80.438 116.140  0.00  0.00    -0.311 N 
ATOM     14  C   LIG d   1      -0.098  80.690 117.030  0.00  0.00     0.210 C 
ATOM     15  C   LIG d   1      -0.501  81.638 118.163  0.00  0.00     0.109 C 
ATOM     16  O   LIG d   1       1.058  80.244 116.970  0.00  0.00    -0.276 OA
ATOM     17  H   LIG d   1      -1.954  80.867 116.248  0.00  0.00     0.149 HD
ENDBRANCH   6  13
BRANCH   5  18
ATOM     18  N   LIG d   1       0.967  80.866 113.892  0.00  0.00     0.381 N 
ATOM     19  H   LIG d   1       0.887  81.787 114.274  0.00  0.00    -0.090 HD
ATOM     20  H   LIG d   1       1.409  80.935 112.992  0.00  0.00    -0.090 HD
ATOM     21  H   LIG d   1       1.515  80.294 114.496  0.00  0.00    -0.090 HD
ENDBRANCH   5  18
BRANCH   3  22
ATOM     22  C   LIG d   1      -1.804  78.153 111.081  0.00  0.00     0.382 C 
ATOM     23  O   LIG d   1      -2.825  77.451 110.884  0.00  0.00    -0.241 OA
ATOM     24  O   LIG d   1      -1.059  78.435 110.123  0.00  0.00    -0.241 OA
ENDBRANCH   3  22
TORSDOF 7
ENDMDL
MODEL 6
REMARK VINA RESULT:      -4.5      1.986      5.049
REMARK  7 active torsions:
REMARK  status: ('A' for Active; 'I' for Inactive)
REMARK    1  A    between atoms: C_2  and  C_3 
REMARK    2  A    between atoms: C_3  and  O_6 
REMARK    3  A    between atoms: C_3  and  C_4 
REMARK    4  A    between atoms: C_7  and  O_6 
REMARK    5  A    between atoms: C_9  and  C_10 
REMARK    6  A    between atoms: N_15  and  C_14 
REMARK    7  A    between atoms: N_20  and  C_19 
REMARK       I    between atoms: C_22  and  N_20 
ROOT
ATOM      1  C   LIG d   1       0.294  81.477 111.605  0.00  0.00     0.161 C 
ATOM      2  C   LIG d   1       1.259  82.073 110.776  0.00  0.00     0.016 C 
ATOM      3  C   LIG d   1       2.566  82.394 111.210  0.00  0.00     0.038 C 
ATOM      4  C   LIG d   1       3.048  81.999 112.467  0.00  0.00     0.028 C 
ATOM      5  C   LIG d   1       1.951  81.846 113.515  0.00  0.00    -0.047 C 
ATOM      6  C   LIG d   1       0.836  80.939 112.945  0.00  0.00     0.091 C 
ENDROOT
BRANCH   1   7
ATOM      7  O   LIG d   1      -0.390  80.432 110.885  0.00  0.00    -0.368 OA
BRANCH   7   8
ATOM      8  C   LIG d   1       0.323  79.177 110.753  0.00  0.00     0.119 C 
BRANCH   8   9
ATOM      9  C   LIG d   1       1.111  79.230 109.430  0.00  0.00     0.028 C 
ATOM     10  C   LIG d   1       2.623  79.043 109.640  0.00  0.00     0.006 C 
ENDBRANCH   8   9
BRANCH   8  11
ATOM     11  C   LIG d   1      -0.645  78.000 110.602  0.00  0.00     0.028 C 
ATOM     12  C   LIG d   1      -1.945  78.191 111.399  0.00  0.00     0.006 C 
ENDBRANCH   8  11
ENDBRANCH   7   8
ENDBRANCH   1   7
BRANCH   6  13
ATOM     13  N   LIG d   1      -0.315  80.805 113.875  0.00  0.00    -0.311 N 
ATOM     14  C   LIG d   1      -0.680  79.649 114.428  0.00  0.00     0.210 C 
ATOM     15  C   LIG d   1      -1.908  79.729 115.341  0.00  0.00     0.109 C 
ATOM     16  O   LIG d   1      -0.084  78.572 114.275  0.00  0.00    -0.276 OA
ATOM     17  H   LIG d   1      -0.836  81.635 114.079  0.00  0.00     0.149 HD
ENDBRANCH   6  13
BRANCH   5  18
ATOM     18  N   LIG d   1       2.574  81.300 114.735  0.00  0.00     0.381 N 
ATOM     19  H   LIG d   1       2.268  80.358 114.879  0.00  0.00    -0.090 HD
ATOM     20  H   LIG d   1       2.281  81.850 115.524  0.00  0.00    -0.090 HD
ATOM     21  H   LIG d   1       3.566  81.326 114.653  0.00  0.00    -0.090 HD
ENDBRANCH   5  18
BRANCH   3  22
ATOM     22  C   LIG d   1       3.394  83.152 110.395  0.00  0.00     0.382 C 
ATOM     23  O   LIG d   1       3.995  82.612 109.435  0.00  0.00    -0.241 OA
ATOM     24  O   LIG d   1       3.582  84.360 110.635  0.00  0.00    -0.241 OA
ENDBRANCH   3  22
TORSDOF 7
ENDMDL
MODEL 7
REMARK VINA RESULT:      -4.5      1.924      3.743
REMARK  7 active torsions:
REMARK  status: ('A' for Active; 'I' for Inactive)
REMARK    1  A    between atoms: C_2  and  C_3 
REMARK    2  A    between atoms: C_3  and  O_6 
REMARK    3  A    between atoms: C_3  and  C_4 
REMARK    4  A    between atoms: C_7  and  O_6 
REMARK    5  A    between atoms: C_9  and  C_10 
REMARK    6  A    between atoms: N_15  and  C_14 
REMARK    7  A    between atoms: N_20  and  C_19 
REMARK       I    between atoms: C_22  and  N_20 
ROOT
ATOM      1  C   LIG d   1       0.195  81.286 111.804  0.00  0.00     0.161 C 
ATOM      2  C   LIG d   1      -0.914  80.511 112.181  0.00  0.00     0.016 C 
ATOM      3  C   LIG d   1      -1.135  79.192 111.721  0.00  0.00     0.038 C 
ATOM      4  C   LIG d   1      -0.176  78.501 110.966  0.00  0.00     0.028 C 
ATOM      5  C   LIG d   1       0.725  79.417 110.144  0.00  0.00    -0.047 C 
ATOM      6  C   LIG d   1       1.308  80.509 111.070  0.00  0.00     0.091 C 
ENDROOT
BRANCH   1   7
ATOM      7  O   LIG d   1       0.734  81.962 112.958  0.00  0.00    -0.368 OA
BRANCH   7   8
ATOM      8  C   LIG d   1       1.700  81.217 113.740  0.00  0.00     0.119 C 
BRANCH   8   9
ATOM      9  C   LIG d   1       1.156  81.120 115.178  0.00  0.00     0.028 C 
ATOM     10  C   LIG d   1       0.185  79.941 115.360  0.00  0.00     0.006 C 
ENDBRANCH   8   9
BRANCH   8  11
ATOM     11  C   LIG d   1       3.025  81.976 113.858  0.00  0.00     0.028 C 
ATOM     12  C   LIG d   1       2.917  83.439 113.400  0.00  0.00     0.006 C 
ENDBRANCH   8  11
ENDBRANCH   7   8
ENDBRANCH   1   7
BRANCH   6  13
ATOM     13  N   LIG d   1       2.134  81.498 110.330  0.00  0.00    -0.311 N 
ATOM     14  C   LIG d   1       3.458  81.410 110.219  0.00  0.00     0.210 C 
ATOM     15  C   LIG d   1       4.118  82.546 109.430  0.00  0.00     0.109 C 
ATOM     16  O   LIG d   1       4.146  80.483 110.673  0.00  0.00    -0.276 OA
ATOM     17  H   LIG d   1       1.653  82.266 109.904  0.00  0.00     0.149 HD
ENDBRANCH   6  13
BRANCH   5  18
ATOM     18  N   LIG d   1       1.762  78.577 109.517  0.00  0.00     0.381 N 
ATOM     19  H   LIG d   1       1.952  77.784 110.096  0.00  0.00    -0.090 HD
ATOM     20  H   LIG d   1       2.606  79.114 109.429  0.00  0.00    -0.090 HD
ATOM     21  H   LIG d   1       1.457  78.274 108.617  0.00  0.00    -0.090 HD
ENDBRANCH   5  18
BRANCH   3  22
ATOM     22  C   LIG d   1      -2.344  78.567 111.982  0.00  0.00     0.382 C 
ATOM     23  O   LIG d   1      -3.135  79.058 112.823  0.00  0.00    -0.241 OA
ATOM     24  O   LIG d   1      -2.635  77.493 111.421  0.00  0.00    -0.241 OA
ENDBRANCH   3  22
TORSDOF 7
ENDMDL
MODEL 8
REMARK VINA RESULT:      -4.4      4.700      7.680
REMARK  7 active torsions:
REMARK  status: ('A' for Active; 'I' for Inactive)
REMARK    1  A    between atoms: C_2  and  C_3 
REMARK    2  A    between atoms: C_3  and  O_6 
REMARK    3  A    between atoms: C_3  and  C_4 
REMARK    4  A    between atoms: C_7  and  O_6 
REMARK    5  A    between atoms: C_9  and  C_10 
REMARK    6  A    between atoms: N_15  and  C_14 
REMARK    7  A    between atoms: N_20  and  C_19 
REMARK       I    between atoms: C_22  and  N_20 
ROOT
ATOM      1  C   LIG d   1      -1.867  78.886 116.075  0.00  0.00     0.161 C 
ATOM      2  C   LIG d   1      -2.255  79.887 115.169  0.00  0.00     0.016 C 
ATOM      3  C   LIG d   1      -2.041  79.800 113.774  0.00  0.00     0.038 C 
ATOM      4  C   LIG d   1      -1.558  78.630 113.170  0.00  0.00     0.028 C 
ATOM      5  C   LIG d   1      -0.685  77.787 114.094  0.00  0.00    -0.047 C 
ATOM      6  C   LIG d   1      -1.439  77.554 115.422  0.00  0.00     0.091 C 
ENDROOT
BRANCH   1   7
ATOM      7  O   LIG d   1      -2.920  78.659 117.032  0.00  0.00    -0.368 OA
BRANCH   7   8
ATOM      8  C   LIG d   1      -2.646  79.077 118.392  0.00  0.00     0.119 C 
BRANCH   8   9
ATOM      9  C   LIG d   1      -3.438  80.375 118.645  0.00  0.00     0.028 C 
ATOM     10  C   LIG d   1      -2.522  81.567 118.972  0.00  0.00     0.006 C 
ENDBRANCH   8   9
BRANCH   8  11
ATOM     11  C   LIG d   1      -1.174  79.459 118.572  0.00  0.00     0.028 C 
ATOM     12  C   LIG d   1      -0.437  78.540 119.559  0.00  0.00     0.006 C 
ENDBRANCH   8  11
ENDBRANCH   7   8
ENDBRANCH   1   7
BRANCH   6  13
ATOM     13  N   LIG d   1      -0.622  76.809 116.415  0.00  0.00    -0.311 N 
ATOM     14  C   LIG d   1      -0.924  75.584 116.842  0.00  0.00     0.210 C 
ATOM     15  C   LIG d   1       0.040  75.005 117.882  0.00  0.00     0.109 C 
ATOM     16  O   LIG d   1      -1.881  74.909 116.434  0.00  0.00    -0.276 OA
ATOM     17  H   LIG d   1       0.190  77.270 116.775  0.00  0.00     0.149 HD
ENDBRANCH   6  13
BRANCH   5  18
ATOM     18  N   LIG d   1      -0.364  76.535 113.383  0.00  0.00     0.381 N 
ATOM     19  H   LIG d   1      -0.405  76.686 112.395  0.00  0.00    -0.090 HD
ATOM     20  H   LIG d   1      -1.048  75.840 113.625  0.00  0.00    -0.090 HD
ATOM     21  H   LIG d   1       0.545  76.220 113.641  0.00  0.00    -0.090 HD
ENDBRANCH   5  18
BRANCH   3  22
ATOM     22  C   LIG d   1      -2.275  80.907 112.973  0.00  0.00     0.382 C 
ATOM     23  O   LIG d   1      -3.433  81.381 112.880  0.00  0.00    -0.241 OA
ATOM     24  O   LIG d   1      -1.350  81.412 112.307  0.00  0.00    -0.241 OA
ENDBRANCH   3  22
TORSDOF 7
ENDMDL
MODEL 9
REMARK VINA RESULT:      -4.3      4.192      7.029
REMARK  7 active torsions:
REMARK  status: ('A' for Active; 'I' for Inactive)
REMARK    1  A    between atoms: C_2  and  C_3 
REMARK    2  A    between atoms: C_3  and  O_6 
REMARK    3  A    between atoms: C_3  and  C_4 
REMARK    4  A    between atoms: C_7  and  O_6 
REMARK    5  A    between atoms: C_9  and  C_10 
REMARK    6  A    between atoms: N_15  and  C_14 
REMARK    7  A    between atoms: N_20  and  C_19 
REMARK       I    between atoms: C_22  and  N_20 
ROOT
ATOM      1  C   LIG d   1      -0.502  77.999 114.712  0.00  0.00     0.161 C 
ATOM      2  C   LIG d   1      -1.026  78.204 116.000  0.00  0.00     0.016 C 
ATOM      3  C   LIG d   1      -2.032  79.154 116.289  0.00  0.00     0.038 C 
ATOM      4  C   LIG d   1      -2.694  79.863 115.276  0.00  0.00     0.028 C 
ATOM      5  C   LIG d   1      -1.851  80.056 114.020  0.00  0.00    -0.047 C 
ATOM      6  C   LIG d   1      -1.290  78.685 113.577  0.00  0.00     0.091 C 
ENDROOT
BRANCH   1   7
ATOM      7  O   LIG d   1      -0.379  76.586 114.454  0.00  0.00    -0.368 OA
BRANCH   7   8
ATOM      8  C   LIG d   1      -0.805  75.704 115.521  0.00  0.00     0.119 C 
BRANCH   8   9
ATOM      9  C   LIG d   1       0.092  74.452 115.472  0.00  0.00     0.028 C 
ATOM     10  C   LIG d   1       0.712  74.227 114.083  0.00  0.00     0.006 C 
ENDBRANCH   8   9
BRANCH   8  11
ATOM     11  C   LIG d   1      -2.229  75.191 115.285  0.00  0.00     0.028 C 
ATOM     12  C   LIG d   1      -3.041  75.068 116.584  0.00  0.00     0.006 C 
ENDBRANCH   8  11
ENDBRANCH   7   8
ENDBRANCH   1   7
BRANCH   6  13
ATOM     13  N   LIG d   1      -0.385  78.795 112.404  0.00  0.00    -0.311 N 
ATOM     14  C   LIG d   1      -0.779  78.574 111.151  0.00  0.00     0.210 C 
ATOM     15  C   LIG d   1       0.319  78.722 110.092  0.00  0.00     0.109 C 
ATOM     16  O   LIG d   1      -1.940  78.300 110.812  0.00  0.00    -0.276 OA
ATOM     17  H   LIG d   1       0.568  79.043 112.585  0.00  0.00     0.149 HD
ENDBRANCH   6  13
BRANCH   5  18
ATOM     18  N   LIG d   1      -2.709  80.687 112.999  0.00  0.00     0.381 N 
ATOM     19  H   LIG d   1      -3.256  79.988 112.537  0.00  0.00    -0.090 HD
ATOM     20  H   LIG d   1      -2.125  81.134 112.315  0.00  0.00    -0.090 HD
ATOM     21  H   LIG d   1      -3.308  81.359 113.426  0.00  0.00    -0.090 HD
ENDBRANCH   5  18
BRANCH   3  22
ATOM     22  C   LIG d   1      -2.357  79.431 117.608  0.00  0.00     0.382 C 
ATOM     23  O   LIG d   1      -2.345  78.513 118.463  0.00  0.00    -0.241 OA
ATOM     24  O   LIG d   1      -2.705  80.579 117.945  0.00  0.00    -0.241 OA
ENDBRANCH   3  22
TORSDOF 7
ENDMDL
