MODEL 1
REMARK VINA RESULT:      -4.0      0.000      0.000
REMARK  7 active torsions:
REMARK  status: ('A' for Active; 'I' for Inactive)
REMARK    1  A    between atoms: C_2  and  C_3 
REMARK    2  A    between atoms: C_3  and  O_6 
REMARK    3  A    between atoms: C_3  and  C_4 
REMARK    4  A    between atoms: C_7  and  O_6 
REMARK    5  A    between atoms: C_9  and  C_10 
REMARK    6  A    between atoms: N_15  and  C_14 
REMARK    7  A    between atoms: N_20  and  C_19 
REMARK       I    between atoms: C_22  and  N_20 
ROOT
ATOM      1  C   LIG d   1      -0.680  78.274 116.696  0.00  0.00     0.161 C 
ATOM      2  C   LIG d   1      -1.587  78.869 115.803  0.00  0.00     0.016 C 
ATOM      3  C   LIG d   1      -2.109  78.207 114.667  0.00  0.00     0.038 C 
ATOM      4  C   LIG d   1      -1.875  76.844 114.431  0.00  0.00     0.028 C 
ATOM      5  C   LIG d   1      -0.564  76.342 115.027  0.00  0.00    -0.047 C 
ATOM      6  C   LIG d   1      -0.500  76.752 116.516  0.00  0.00     0.091 C 
ENDROOT
BRANCH   1   7
ATOM      7  O   LIG d   1      -1.062  78.576 118.053  0.00  0.00    -0.368 OA
BRANCH   7   8
ATOM      8  C   LIG d   1      -0.129  79.384 118.812  0.00  0.00     0.119 C 
BRANCH   8   9
ATOM      9  C   LIG d   1      -0.903  80.604 119.348  0.00  0.00     0.028 C 
ATOM     10  C   LIG d   1      -2.408  80.324 119.499  0.00  0.00     0.006 C 
ENDBRANCH   8   9
BRANCH   8  11
ATOM     11  C   LIG d   1       0.967  79.963 117.912  0.00  0.00     0.028 C 
ATOM     12  C   LIG d   1       0.959  81.500 117.877  0.00  0.00     0.006 C 
ENDBRANCH   8  11
ENDBRANCH   7   8
ENDBRANCH   1   7
BRANCH   6  13
ATOM     13  N   LIG d   1       0.788  76.373 117.154  0.00  0.00    -0.311 N 
ATOM     14  C   LIG d   1       0.869  75.657 118.274  0.00  0.00     0.210 C 
ATOM     15  C   LIG d   1       2.293  75.395 118.772  0.00  0.00     0.109 C 
ATOM     16  O   LIG d   1      -0.103  75.187 118.884  0.00  0.00    -0.276 OA
ATOM     17  H   LIG d   1       1.627  76.687 116.707  0.00  0.00     0.149 HD
ENDBRANCH   6  13
BRANCH   5  18
ATOM     18  N   LIG d   1      -0.513  74.882 114.826  0.00  0.00     0.381 N 
ATOM     19  H   LIG d   1      -0.014  74.673 113.984  0.00  0.00    -0.090 HD
ATOM     20  H   LIG d   1      -1.451  74.534 114.732  0.00  0.00    -0.090 HD
ATOM     21  H   LIG d   1      -0.066  74.446 115.603  0.00  0.00    -0.090 HD
ENDBRANCH   5  18
BRANCH   3  22
ATOM     22  C   LIG d   1      -2.842  78.921 113.732  0.00  0.00     0.382 C 
ATOM     23  O   LIG d   1      -3.071  80.141 113.914  0.00  0.00    -0.241 OA
ATOM     24  O   LIG d   1      -3.316  78.350 112.732  0.00  0.00    -0.241 OA
ENDBRANCH   3  22
TORSDOF 7
ENDMDL
MODEL 2
REMARK VINA RESULT:      -4.0      0.828      1.701
REMARK  7 active torsions:
REMARK  status: ('A' for Active; 'I' for Inactive)
REMARK    1  A    between atoms: C_2  and  C_3 
REMARK    2  A    between atoms: C_3  and  O_6 
REMARK    3  A    between atoms: C_3  and  C_4 
REMARK    4  A    between atoms: C_7  and  O_6 
REMARK    5  A    between atoms: C_9  and  C_10 
REMARK    6  A    between atoms: N_15  and  C_14 
REMARK    7  A    between atoms: N_20  and  C_19 
REMARK       I    between atoms: C_22  and  N_20 
ROOT
ATOM      1  C   LIG d   1      -0.355  78.253 116.675  0.00  0.00     0.161 C 
ATOM      2  C   LIG d   1      -1.363  78.740 115.826  0.00  0.00     0.016 C 
ATOM      3  C   LIG d   1      -2.094  77.921 114.936  0.00  0.00     0.038 C 
ATOM      4  C   LIG d   1      -1.971  76.524 114.944  0.00  0.00     0.028 C 
ATOM      5  C   LIG d   1      -0.608  76.038 115.426  0.00  0.00    -0.047 C 
ATOM      6  C   LIG d   1      -0.284  76.715 116.777  0.00  0.00     0.091 C 
ENDROOT
BRANCH   1   7
ATOM      7  O   LIG d   1      -0.496  78.836 117.985  0.00  0.00    -0.368 OA
BRANCH   7   8
ATOM      8  C   LIG d   1       0.384  79.947 118.286  0.00  0.00     0.119 C 
BRANCH   8   9
ATOM      9  C   LIG d   1       1.524  79.409 119.172  0.00  0.00     0.028 C 
ATOM     10  C   LIG d   1       2.860  79.314 118.416  0.00  0.00     0.006 C 
ENDBRANCH   8   9
BRANCH   8  11
ATOM     11  C   LIG d   1      -0.326  81.005 119.137  0.00  0.00     0.028 C 
ATOM     12  C   LIG d   1       0.145  82.434 118.824  0.00  0.00     0.006 C 
ENDBRANCH   8  11
ENDBRANCH   7   8
ENDBRANCH   1   7
BRANCH   6  13
ATOM     13  N   LIG d   1       1.069  76.359 117.278  0.00  0.00    -0.311 N 
ATOM     14  C   LIG d   1       1.281  75.720 118.428  0.00  0.00     0.210 C 
ATOM     15  C   LIG d   1       2.754  75.470 118.766  0.00  0.00     0.109 C 
ATOM     16  O   LIG d   1       0.388  75.309 119.183  0.00  0.00    -0.276 OA
ATOM     17  H   LIG d   1       1.850  76.628 116.712  0.00  0.00     0.149 HD
ENDBRANCH   6  13
BRANCH   5  18
ATOM     18  N   LIG d   1      -0.665  74.567 115.515  0.00  0.00     0.381 N 
ATOM     19  H   LIG d   1      -0.008  74.243 116.196  0.00  0.00    -0.090 HD
ATOM     20  H   LIG d   1      -0.414  74.177 114.623  0.00  0.00    -0.090 HD
ATOM     21  H   LIG d   1      -1.585  74.276 115.765  0.00  0.00    -0.090 HD
ENDBRANCH   5  18
BRANCH   3  22
ATOM     22  C   LIG d   1      -2.933  78.503 113.997  0.00  0.00     0.382 C 
ATOM     23  O   LIG d   1      -3.437  77.802 113.087  0.00  0.00    -0.241 OA
ATOM     24  O   LIG d   1      -3.155  79.728 114.023  0.00  0.00    -0.241 OA
ENDBRANCH   3  22
TORSDOF 7
ENDMDL
MODEL 3
REMARK VINA RESULT:      -3.8      1.619      2.394
REMARK  7 active torsions:
REMARK  status: ('A' for Active; 'I' for Inactive)
REMARK    1  A    between atoms: C_2  and  C_3 
REMARK    2  A    between atoms: C_3  and  O_6 
REMARK    3  A    between atoms: C_3  and  C_4 
REMARK    4  A    between atoms: C_7  and  O_6 
REMARK    5  A    between atoms: C_9  and  C_10 
REMARK    6  A    between atoms: N_15  and  C_14 
REMARK    7  A    between atoms: N_20  and  C_19 
REMARK       I    between atoms: C_22  and  N_20 
ROOT
ATOM      1  C   LIG d   1      -1.939  78.065 116.088  0.00  0.00     0.161 C 
ATOM      2  C   LIG d   1      -2.420  78.776 114.976  0.00  0.00     0.016 C 
ATOM      3  C   LIG d   1      -2.242  78.344 113.641  0.00  0.00     0.038 C 
ATOM      4  C   LIG d   1      -1.700  77.088 113.334  0.00  0.00     0.028 C 
ATOM      5  C   LIG d   1      -0.745  76.563 114.401  0.00  0.00    -0.047 C 
ATOM      6  C   LIG d   1      -1.442  76.637 115.779  0.00  0.00     0.091 C 
ENDROOT
BRANCH   1   7
ATOM      7  O   LIG d   1      -2.945  78.033 117.120  0.00  0.00    -0.368 OA
BRANCH   7   8
ATOM      8  C   LIG d   1      -2.761  78.960 118.218  0.00  0.00     0.119 C 
BRANCH   8   9
ATOM      9  C   LIG d   1      -1.305  79.460 118.164  0.00  0.00     0.028 C 
ATOM     10  C   LIG d   1      -0.460  78.935 119.336  0.00  0.00     0.006 C 
ENDBRANCH   8   9
BRANCH   8  11
ATOM     11  C   LIG d   1      -2.897  78.255 119.571  0.00  0.00     0.028 C 
ATOM     12  C   LIG d   1      -3.439  76.822 119.444  0.00  0.00     0.006 C 
ENDBRANCH   8  11
ENDBRANCH   7   8
ENDBRANCH   1   7
BRANCH   6  13
ATOM     13  N   LIG d   1      -0.548  76.221 116.890  0.00  0.00    -0.311 N 
ATOM     14  C   LIG d   1      -0.788  75.169 117.671  0.00  0.00     0.210 C 
ATOM     15  C   LIG d   1       0.251  74.928 118.770  0.00  0.00     0.109 C 
ATOM     16  O   LIG d   1      -1.747  74.394 117.537  0.00  0.00    -0.276 OA
ATOM     17  H   LIG d   1       0.270  76.777 117.049  0.00  0.00     0.149 HD
ENDBRANCH   6  13
BRANCH   5  18
ATOM     18  N   LIG d   1      -0.363  75.190 114.020  0.00  0.00     0.381 N 
ATOM     19  H   LIG d   1       0.145  74.760 114.768  0.00  0.00    -0.090 HD
ATOM     20  H   LIG d   1       0.237  75.231 113.215  0.00  0.00    -0.090 HD
ATOM     21  H   LIG d   1      -1.177  74.655 113.811  0.00  0.00    -0.090 HD
ENDBRANCH   5  18
BRANCH   3  22
ATOM     22  C   LIG d   1      -2.574  79.192 112.595  0.00  0.00     0.382 C 
ATOM     23  O   LIG d   1      -3.379  80.135 112.784  0.00  0.00    -0.241 OA
ATOM     24  O   LIG d   1      -2.112  78.999 111.455  0.00  0.00    -0.241 OA
ENDBRANCH   3  22
TORSDOF 7
ENDMDL
MODEL 4
REMARK VINA RESULT:      -3.8      1.945      4.578
REMARK  7 active torsions:
REMARK  status: ('A' for Active; 'I' for Inactive)
REMARK    1  A    between atoms: C_2  and  C_3 
REMARK    2  A    between atoms: C_3  and  O_6 
REMARK    3  A    between atoms: C_3  and  C_4 
REMARK    4  A    between atoms: C_7  and  O_6 
REMARK    5  A    between atoms: C_9  and  C_10 
REMARK    6  A    between atoms: N_15  and  C_14 
REMARK    7  A    between atoms: N_20  and  C_19 
REMARK       I    between atoms: C_22  and  N_20 
ROOT
ATOM      1  C   LIG d   1      -2.569  78.163 116.638  0.00  0.00     0.161 C 
ATOM      2  C   LIG d   1      -2.263  77.099 117.502  0.00  0.00     0.016 C 
ATOM      3  C   LIG d   1      -1.561  75.942 117.093  0.00  0.00     0.038 C 
ATOM      4  C   LIG d   1      -0.981  75.838 115.820  0.00  0.00     0.028 C 
ATOM      5  C   LIG d   1      -1.695  76.668 114.759  0.00  0.00    -0.047 C 
ATOM      6  C   LIG d   1      -1.848  78.117 115.274  0.00  0.00     0.091 C 
ENDROOT
BRANCH   1   7
ATOM      7  O   LIG d   1      -2.312  79.418 117.298  0.00  0.00    -0.368 OA
BRANCH   7   8
ATOM      8  C   LIG d   1      -1.265  79.409 118.300  0.00  0.00     0.119 C 
BRANCH   8   9
ATOM      9  C   LIG d   1      -1.728  80.309 119.462  0.00  0.00     0.028 C 
ATOM     10  C   LIG d   1      -3.260  80.411 119.551  0.00  0.00     0.006 C 
ENDBRANCH   8   9
BRANCH   8  11
ATOM     11  C   LIG d   1       0.018  80.056 117.771  0.00  0.00     0.028 C 
ATOM     12  C   LIG d   1       1.118  79.029 117.459  0.00  0.00     0.006 C 
ENDBRANCH   8  11
ENDBRANCH   7   8
ENDBRANCH   1   7
BRANCH   6  13
ATOM     13  N   LIG d   1      -2.612  78.976 114.332  0.00  0.00    -0.311 N 
ATOM     14  C   LIG d   1      -2.036  79.746 113.410  0.00  0.00     0.210 C 
ATOM     15  C   LIG d   1      -3.006  80.567 112.555  0.00  0.00     0.109 C 
ATOM     16  O   LIG d   1      -0.815  79.802 113.198  0.00  0.00    -0.276 OA
ATOM     17  H   LIG d   1      -3.610  78.968 114.414  0.00  0.00     0.149 HD
ENDBRANCH   6  13
BRANCH   5  18
ATOM     18  N   LIG d   1      -0.907  76.577 113.515  0.00  0.00     0.381 N 
ATOM     19  H   LIG d   1      -1.155  77.326 112.901  0.00  0.00    -0.090 HD
ATOM     20  H   LIG d   1      -1.123  75.709 113.057  0.00  0.00    -0.090 HD
ATOM     21  H   LIG d   1       0.066  76.617 113.725  0.00  0.00    -0.090 HD
ENDBRANCH   5  18
BRANCH   3  22
ATOM     22  C   LIG d   1      -1.467  74.856 117.950  0.00  0.00     0.382 C 
ATOM     23  O   LIG d   1      -2.489  74.180 118.219  0.00  0.00    -0.241 OA
ATOM     24  O   LIG d   1      -0.382  74.571 118.492  0.00  0.00    -0.241 OA
ENDBRANCH   3  22
TORSDOF 7
ENDMDL
MODEL 5
REMARK VINA RESULT:      -3.7      3.420      6.010
REMARK  7 active torsions:
REMARK  status: ('A' for Active; 'I' for Inactive)
REMARK    1  A    between atoms: C_2  and  C_3 
REMARK    2  A    between atoms: C_3  and  O_6 
REMARK    3  A    between atoms: C_3  and  C_4 
REMARK    4  A    between atoms: C_7  and  O_6 
REMARK    5  A    between atoms: C_9  and  C_10 
REMARK    6  A    between atoms: N_15  and  C_14 
REMARK    7  A    between atoms: N_20  and  C_19 
REMARK       I    between atoms: C_22  and  N_20 
ROOT
ATOM      1  C   LIG d   1       2.452  78.592 118.511  0.00  0.00     0.161 C 
ATOM      2  C   LIG d   1       2.073  77.256 118.723  0.00  0.00     0.016 C 
ATOM      3  C   LIG d   1       0.965  76.651 118.085  0.00  0.00     0.038 C 
ATOM      4  C   LIG d   1       0.248  77.301 117.070  0.00  0.00     0.028 C 
ATOM      5  C   LIG d   1       0.281  78.822 117.184  0.00  0.00    -0.047 C 
ATOM      6  C   LIG d   1       1.749  79.283 117.324  0.00  0.00     0.091 C 
ENDROOT
BRANCH   1   7
ATOM      7  O   LIG d   1       3.884  78.675 118.363  0.00  0.00    -0.368 OA
BRANCH   7   8
ATOM      8  C   LIG d   1       4.498  77.667 117.523  0.00  0.00     0.119 C 
BRANCH   8   9
ATOM      9  C   LIG d   1       5.783  77.195 118.231  0.00  0.00     0.028 C 
ATOM     10  C   LIG d   1       5.489  76.280 119.431  0.00  0.00     0.006 C 
ENDBRANCH   8   9
BRANCH   8  11
ATOM     11  C   LIG d   1       4.963  78.260 116.190  0.00  0.00     0.028 C 
ATOM     12  C   LIG d   1       6.419  77.899 115.853  0.00  0.00     0.006 C 
ENDBRANCH   8  11
ENDBRANCH   7   8
ENDBRANCH   1   7
BRANCH   6  13
ATOM     13  N   LIG d   1       1.865  80.751 117.525  0.00  0.00    -0.311 N 
ATOM     14  C   LIG d   1       2.495  81.560 116.675  0.00  0.00     0.210 C 
ATOM     15  C   LIG d   1       2.515  83.037 117.083  0.00  0.00     0.109 C 
ATOM     16  O   LIG d   1       3.011  81.200 115.607  0.00  0.00    -0.276 OA
ATOM     17  H   LIG d   1       1.448  81.132 118.352  0.00  0.00     0.149 HD
ENDBRANCH   6  13
BRANCH   5  18
ATOM     18  N   LIG d   1      -0.387  79.373 115.990  0.00  0.00     0.381 N 
ATOM     19  H   LIG d   1      -1.294  78.962 115.889  0.00  0.00    -0.090 HD
ATOM     20  H   LIG d   1       0.156  79.141 115.177  0.00  0.00    -0.090 HD
ATOM     21  H   LIG d   1      -0.470  80.362 116.072  0.00  0.00    -0.090 HD
ENDBRANCH   5  18
BRANCH   3  22
ATOM     22  C   LIG d   1       0.541  75.395 118.490  0.00  0.00     0.382 C 
ATOM     23  O   LIG d   1       1.023  74.874 119.524  0.00  0.00    -0.241 OA
ATOM     24  O   LIG d   1      -0.285  74.757 117.809  0.00  0.00    -0.241 OA
ENDBRANCH   3  22
TORSDOF 7
ENDMDL
MODEL 6
REMARK VINA RESULT:      -3.6      1.639      2.205
REMARK  7 active torsions:
REMARK  status: ('A' for Active; 'I' for Inactive)
REMARK    1  A    between atoms: C_2  and  C_3 
REMARK    2  A    between atoms: C_3  and  O_6 
REMARK    3  A    between atoms: C_3  and  C_4 
REMARK    4  A    between atoms: C_7  and  O_6 
REMARK    5  A    between atoms: C_9  and  C_10 
REMARK    6  A    between atoms: N_15  and  C_14 
REMARK    7  A    between atoms: N_20  and  C_19 
REMARK       I    between atoms: C_22  and  N_20 
ROOT
ATOM      1  C   LIG d   1      -1.178  78.113 116.512  0.00  0.00     0.161 C 
ATOM      2  C   LIG d   1      -1.577  78.962 115.466  0.00  0.00     0.016 C 
ATOM      3  C   LIG d   1      -2.521  78.592 114.481  0.00  0.00     0.038 C 
ATOM      4  C   LIG d   1      -3.248  77.395 114.563  0.00  0.00     0.028 C 
ATOM      5  C   LIG d   1      -2.515  76.292 115.319  0.00  0.00    -0.047 C 
ATOM      6  C   LIG d   1      -2.042  76.846 116.682  0.00  0.00     0.091 C 
ENDROOT
BRANCH   1   7
ATOM      7  O   LIG d   1      -1.125  78.853 117.748  0.00  0.00    -0.368 OA
BRANCH   7   8
ATOM      8  C   LIG d   1       0.197  79.104 118.285  0.00  0.00     0.119 C 
BRANCH   8   9
ATOM      9  C   LIG d   1       0.534  80.583 118.013  0.00  0.00     0.028 C 
ATOM     10  C   LIG d   1       1.640  80.748 116.957  0.00  0.00     0.006 C 
ENDBRANCH   8   9
BRANCH   8  11
ATOM     11  C   LIG d   1       1.264  78.300 117.536  0.00  0.00     0.028 C 
ATOM     12  C   LIG d   1       1.989  77.288 118.436  0.00  0.00     0.006 C 
ENDBRANCH   8  11
ENDBRANCH   7   8
ENDBRANCH   1   7
BRANCH   6  13
ATOM     13  N   LIG d   1      -1.243  75.856 117.450  0.00  0.00    -0.311 N 
ATOM     14  C   LIG d   1      -1.595  75.404 118.652  0.00  0.00     0.210 C 
ATOM     15  C   LIG d   1      -0.619  74.403 119.278  0.00  0.00     0.109 C 
ATOM     16  O   LIG d   1      -2.639  75.712 119.246  0.00  0.00    -0.276 OA
ATOM     17  H   LIG d   1      -0.396  75.529 117.029  0.00  0.00     0.149 HD
ENDBRANCH   6  13
BRANCH   5  18
ATOM     18  N   LIG d   1      -3.440  75.150 115.448  0.00  0.00     0.381 N 
ATOM     19  H   LIG d   1      -3.826  74.924 114.554  0.00  0.00    -0.090 HD
ATOM     20  H   LIG d   1      -4.193  75.409 116.061  0.00  0.00    -0.090 HD
ATOM     21  H   LIG d   1      -2.958  74.361 115.819  0.00  0.00    -0.090 HD
ENDBRANCH   5  18
BRANCH   3  22
ATOM     22  C   LIG d   1      -2.717  79.407 113.377  0.00  0.00     0.382 C 
ATOM     23  O   LIG d   1      -3.135  80.581 113.530  0.00  0.00    -0.241 OA
ATOM     24  O   LIG d   1      -2.525  78.970 112.227  0.00  0.00    -0.241 OA
ENDBRANCH   3  22
TORSDOF 7
ENDMDL
MODEL 7
REMARK VINA RESULT:      -3.6      2.190      4.565
REMARK  7 active torsions:
REMARK  status: ('A' for Active; 'I' for Inactive)
REMARK    1  A    between atoms: C_2  and  C_3 
REMARK    2  A    between atoms: C_3  and  O_6 
REMARK    3  A    between atoms: C_3  and  C_4 
REMARK    4  A    between atoms: C_7  and  O_6 
REMARK    5  A    between atoms: C_9  and  C_10 
REMARK    6  A    between atoms: N_15  and  C_14 
REMARK    7  A    between atoms: N_20  and  C_19 
REMARK       I    between atoms: C_22  and  N_20 
ROOT
ATOM      1  C   LIG d   1      -0.532  78.618 117.484  0.00  0.00     0.161 C 
ATOM      2  C   LIG d   1       0.124  79.787 117.061  0.00  0.00     0.016 C 
ATOM      3  C   LIG d   1       1.523  79.871 116.880  0.00  0.00     0.038 C 
ATOM      4  C   LIG d   1       2.351  78.742 116.964  0.00  0.00     0.028 C 
ATOM      5  C   LIG d   1       1.800  77.654 117.880  0.00  0.00    -0.047 C 
ATOM      6  C   LIG d   1       0.341  77.346 117.473  0.00  0.00     0.091 C 
ENDROOT
BRANCH   1   7
ATOM      7  O   LIG d   1      -1.723  78.415 116.697  0.00  0.00    -0.368 OA
BRANCH   7   8
ATOM      8  C   LIG d   1      -1.568  78.537 115.262  0.00  0.00     0.119 C 
BRANCH   8   9
ATOM      9  C   LIG d   1      -2.751  79.372 114.738  0.00  0.00     0.028 C 
ATOM     10  C   LIG d   1      -2.589  79.755 113.257  0.00  0.00     0.006 C 
ENDBRANCH   8   9
BRANCH   8  11
ATOM     11  C   LIG d   1      -1.693  77.176 114.571  0.00  0.00     0.028 C 
ATOM     12  C   LIG d   1      -2.905  76.368 115.061  0.00  0.00     0.006 C 
ENDBRANCH   8  11
ENDBRANCH   7   8
ENDBRANCH   1   7
BRANCH   6  13
ATOM     13  N   LIG d   1      -0.301  76.352 118.372  0.00  0.00    -0.311 N 
ATOM     14  C   LIG d   1      -0.693  75.145 117.969  0.00  0.00     0.210 C 
ATOM     15  C   LIG d   1      -1.351  74.284 119.052  0.00  0.00     0.109 C 
ATOM     16  O   LIG d   1      -0.530  74.693 116.826  0.00  0.00    -0.276 OA
ATOM     17  H   LIG d   1      -0.443  76.625 119.325  0.00  0.00     0.149 HD
ENDBRANCH   6  13
BRANCH   5  18
ATOM     18  N   LIG d   1       2.691  76.483 117.767  0.00  0.00     0.381 N 
ATOM     19  H   LIG d   1       2.195  75.719 117.354  0.00  0.00    -0.090 HD
ATOM     20  H   LIG d   1       2.984  76.208 118.688  0.00  0.00    -0.090 HD
ATOM     21  H   LIG d   1       3.486  76.712 117.212  0.00  0.00    -0.090 HD
ENDBRANCH   5  18
BRANCH   3  22
ATOM     22  C   LIG d   1       2.113  81.104 116.650  0.00  0.00     0.382 C 
ATOM     23  O   LIG d   1       3.264  81.166 116.155  0.00  0.00    -0.241 OA
ATOM     24  O   LIG d   1       1.527  82.155 116.973  0.00  0.00    -0.241 OA
ENDBRANCH   3  22
TORSDOF 7
ENDMDL
MODEL 8
REMARK VINA RESULT:      -3.4      3.269      5.062
REMARK  7 active torsions:
REMARK  status: ('A' for Active; 'I' for Inactive)
REMARK    1  A    between atoms: C_2  and  C_3 
REMARK    2  A    between atoms: C_3  and  O_6 
REMARK    3  A    between atoms: C_3  and  C_4 
REMARK    4  A    between atoms: C_7  and  O_6 
REMARK    5  A    between atoms: C_9  and  C_10 
REMARK    6  A    between atoms: N_15  and  C_14 
REMARK    7  A    between atoms: N_20  and  C_19 
REMARK       I    between atoms: C_22  and  N_20 
ROOT
ATOM      1  C   LIG d   1       2.135  78.113 117.518  0.00  0.00     0.161 C 
ATOM      2  C   LIG d   1       2.574  79.422 117.260  0.00  0.00     0.016 C 
ATOM      3  C   LIG d   1       1.709  80.540 117.222  0.00  0.00     0.038 C 
ATOM      4  C   LIG d   1       0.358  80.445 117.591  0.00  0.00     0.028 C 
ATOM      5  C   LIG d   1      -0.235  79.058 117.369  0.00  0.00    -0.047 C 
ATOM      6  C   LIG d   1       0.684  78.007 118.033  0.00  0.00     0.091 C 
ENDROOT
BRANCH   1   7
ATOM      7  O   LIG d   1       3.040  77.466 118.434  0.00  0.00    -0.368 OA
BRANCH   7   8
ATOM      8  C   LIG d   1       3.991  76.544 117.847  0.00  0.00     0.119 C 
BRANCH   8   9
ATOM      9  C   LIG d   1       3.993  75.268 118.710  0.00  0.00     0.028 C 
ATOM     10  C   LIG d   1       2.939  75.315 119.830  0.00  0.00     0.006 C 
ENDBRANCH   8   9
BRANCH   8  11
ATOM     11  C   LIG d   1       5.419  77.090 117.928  0.00  0.00     0.028 C 
ATOM     12  C   LIG d   1       5.887  77.732 116.612  0.00  0.00     0.006 C 
ENDBRANCH   8  11
ENDBRANCH   7   8
ENDBRANCH   1   7
BRANCH   6  13
ATOM     13  N   LIG d   1       0.221  76.616 117.790  0.00  0.00    -0.311 N 
ATOM     14  C   LIG d   1      -0.556  75.943 118.637  0.00  0.00     0.210 C 
ATOM     15  C   LIG d   1      -0.900  74.515 118.204  0.00  0.00     0.109 C 
ATOM     16  O   LIG d   1      -1.019  76.405 119.691  0.00  0.00    -0.276 OA
ATOM     17  H   LIG d   1       0.525  76.175 116.944  0.00  0.00     0.149 HD
ENDBRANCH   6  13
BRANCH   5  18
ATOM     18  N   LIG d   1      -1.602  79.064 117.922  0.00  0.00     0.381 N 
ATOM     19  H   LIG d   1      -1.645  78.464 118.722  0.00  0.00    -0.090 HD
ATOM     20  H   LIG d   1      -2.235  78.709 117.228  0.00  0.00    -0.090 HD
ATOM     21  H   LIG d   1      -1.862  79.991 118.178  0.00  0.00    -0.090 HD
ENDBRANCH   5  18
BRANCH   3  22
ATOM     22  C   LIG d   1       2.184  81.762 116.772  0.00  0.00     0.382 C 
ATOM     23  O   LIG d   1       1.516  82.806 116.970  0.00  0.00    -0.241 OA
ATOM     24  O   LIG d   1       3.251  81.828 116.133  0.00  0.00    -0.241 OA
ENDBRANCH   3  22
TORSDOF 7
ENDMDL
MODEL 9
REMARK VINA RESULT:      -3.4      2.733      4.709
REMARK  7 active torsions:
REMARK  status: ('A' for Active; 'I' for Inactive)
REMARK    1  A    between atoms: C_2  and  C_3 
REMARK    2  A    between atoms: C_3  and  O_6 
REMARK    3  A    between atoms: C_3  and  C_4 
REMARK    4  A    between atoms: C_7  and  O_6 
REMARK    5  A    between atoms: C_9  and  C_10 
REMARK    6  A    between atoms: N_15  and  C_14 
REMARK    7  A    between atoms: N_20  and  C_19 
REMARK       I    between atoms: C_22  and  N_20 
ROOT
ATOM      1  C   LIG d   1      -1.767  78.926 115.179  0.00  0.00     0.161 C 
ATOM      2  C   LIG d   1      -2.048  77.688 115.781  0.00  0.00     0.016 C 
ATOM      3  C   LIG d   1      -2.143  76.476 115.059  0.00  0.00     0.038 C 
ATOM      4  C   LIG d   1      -1.810  76.395 113.699  0.00  0.00     0.028 C 
ATOM      5  C   LIG d   1      -2.011  77.707 112.947  0.00  0.00    -0.047 C 
ATOM      6  C   LIG d   1      -1.292  78.840 113.714  0.00  0.00     0.091 C 
ENDROOT
BRANCH   1   7
ATOM      7  O   LIG d   1      -0.807  79.649 115.975  0.00  0.00    -0.368 OA
BRANCH   7   8
ATOM      8  C   LIG d   1      -0.321  78.970 117.160  0.00  0.00     0.119 C 
BRANCH   8   9
ATOM      9  C   LIG d   1      -0.669  79.853 118.374  0.00  0.00     0.028 C 
ATOM     10  C   LIG d   1      -1.966  79.408 119.070  0.00  0.00     0.006 C 
ENDBRANCH   8   9
BRANCH   8  11
ATOM     11  C   LIG d   1       1.207  78.869 117.157  0.00  0.00     0.028 C 
ATOM     12  C   LIG d   1       1.713  77.481 117.577  0.00  0.00     0.006 C 
ENDBRANCH   8  11
ENDBRANCH   7   8
ENDBRANCH   1   7
BRANCH   6  13
ATOM     13  N   LIG d   1      -1.509  80.172 113.091  0.00  0.00    -0.311 N 
ATOM     14  C   LIG d   1      -0.759  80.648 112.099  0.00  0.00     0.210 C 
ATOM     15  C   LIG d   1      -1.140  82.051 111.617  0.00  0.00     0.109 C 
ATOM     16  O   LIG d   1       0.166  80.029 111.551  0.00  0.00    -0.276 OA
ATOM     17  H   LIG d   1      -2.258  80.728 113.454  0.00  0.00     0.149 HD
ENDBRANCH   6  13
BRANCH   5  18
ATOM     18  N   LIG d   1      -1.498  77.519 111.577  0.00  0.00     0.381 N 
ATOM     19  H   LIG d   1      -2.237  77.655 110.917  0.00  0.00    -0.090 HD
ATOM     20  H   LIG d   1      -1.161  76.577 111.483  0.00  0.00    -0.090 HD
ATOM     21  H   LIG d   1      -0.760  78.163 111.398  0.00  0.00    -0.090 HD
ENDBRANCH   5  18
BRANCH   3  22
ATOM     22  C   LIG d   1      -2.613  75.335 115.691  0.00  0.00     0.382 C 
ATOM     23  O   LIG d   1      -3.440  74.592 115.110  0.00  0.00    -0.241 OA
ATOM     24  O   LIG d   1      -2.253  75.063 116.853  0.00  0.00    -0.241 OA
ENDBRANCH   3  22
TORSDOF 7
ENDMDL
