MODEL 1
REMARK VINA RESULT:      -5.4      0.000      0.000
REMARK  7 active torsions:
REMARK  status: ('A' for Active; 'I' for Inactive)
REMARK    1  A    between atoms: C_2  and  C_3 
REMARK    2  A    between atoms: C_3  and  O_6 
REMARK    3  A    between atoms: C_3  and  C_4 
REMARK    4  A    between atoms: C_7  and  O_6 
REMARK    5  A    between atoms: C_9  and  C_10 
REMARK    6  A    between atoms: N_15  and  C_14 
REMARK    7  A    between atoms: N_20  and  C_19 
REMARK       I    between atoms: C_22  and  N_20 
ROOT
ATOM      1  C   LIG d   1       0.148  82.861 112.814  0.00  0.00     0.161 C 
ATOM      2  C   LIG d   1       1.143  83.648 112.210  0.00  0.00     0.016 C 
ATOM      3  C   LIG d   1       1.809  83.280 111.017  0.00  0.00     0.038 C 
ATOM      4  C   LIG d   1       1.415  82.166 110.262  0.00  0.00     0.028 C 
ATOM      5  C   LIG d   1       0.757  81.071 111.095  0.00  0.00    -0.047 C 
ATOM      6  C   LIG d   1      -0.372  81.697 111.944  0.00  0.00     0.091 C 
ENDROOT
BRANCH   1   7
ATOM      7  O   LIG d   1      -0.946  83.698 113.238  0.00  0.00    -0.368 OA
BRANCH   7   8
ATOM      8  C   LIG d   1      -1.008  83.997 114.654  0.00  0.00     0.119 C 
BRANCH   8   9
ATOM      9  C   LIG d   1      -0.011  83.064 115.368  0.00  0.00     0.028 C 
ATOM     10  C   LIG d   1       1.059  83.839 116.154  0.00  0.00     0.006 C 
ENDBRANCH   8   9
BRANCH   8  11
ATOM     11  C   LIG d   1      -2.380  83.648 115.238  0.00  0.00     0.028 C 
ATOM     12  C   LIG d   1      -2.325  82.478 116.232  0.00  0.00     0.006 C 
ENDBRANCH   8  11
ENDBRANCH   7   8
ENDBRANCH   1   7
BRANCH   6  13
ATOM     13  N   LIG d   1      -1.013  80.709 112.852  0.00  0.00    -0.311 N 
ATOM     14  C   LIG d   1      -2.329  80.632 113.039  0.00  0.00     0.210 C 
ATOM     15  C   LIG d   1      -2.779  79.555 114.032  0.00  0.00     0.109 C 
ATOM     16  O   LIG d   1      -3.169  81.330 112.452  0.00  0.00    -0.276 OA
ATOM     17  H   LIG d   1      -0.407  80.083 113.344  0.00  0.00     0.149 HD
ENDBRANCH   6  13
BRANCH   5  18
ATOM     18  N   LIG d   1       0.274  80.033 110.164  0.00  0.00     0.381 N 
ATOM     19  H   LIG d   1      -0.132  80.464 109.358  0.00  0.00    -0.090 HD
ATOM     20  H   LIG d   1      -0.436  79.491 110.624  0.00  0.00    -0.090 HD
ATOM     21  H   LIG d   1       1.028  79.443 109.890  0.00  0.00    -0.090 HD
ENDBRANCH   5  18
BRANCH   3  22
ATOM     22  C   LIG d   1       2.908  84.011 110.591  0.00  0.00     0.382 C 
ATOM     23  O   LIG d   1       2.933  84.486 109.430  0.00  0.00    -0.241 OA
ATOM     24  O   LIG d   1       3.893  84.163 111.337  0.00  0.00    -0.241 OA
ENDBRANCH   3  22
TORSDOF 7
ENDMDL
MODEL 2
REMARK VINA RESULT:      -5.2      2.007      4.763
REMARK  7 active torsions:
REMARK  status: ('A' for Active; 'I' for Inactive)
REMARK    1  A    between atoms: C_2  and  C_3 
REMARK    2  A    between atoms: C_3  and  O_6 
REMARK    3  A    between atoms: C_3  and  C_4 
REMARK    4  A    between atoms: C_7  and  O_6 
REMARK    5  A    between atoms: C_9  and  C_10 
REMARK    6  A    between atoms: N_15  and  C_14 
REMARK    7  A    between atoms: N_20  and  C_19 
REMARK       I    between atoms: C_22  and  N_20 
ROOT
ATOM      1  C   LIG d   1       0.647  83.215 112.548  0.00  0.00     0.161 C 
ATOM      2  C   LIG d   1      -0.565  82.791 113.117  0.00  0.00     0.016 C 
ATOM      3  C   LIG d   1      -1.198  81.572 112.782  0.00  0.00     0.038 C 
ATOM      4  C   LIG d   1      -0.579  80.617 111.962  0.00  0.00     0.028 C 
ATOM      5  C   LIG d   1       0.409  81.220 110.970  0.00  0.00    -0.047 C 
ATOM      6  C   LIG d   1       1.392  82.136 111.734  0.00  0.00     0.091 C 
ENDROOT
BRANCH   1   7
ATOM      7  O   LIG d   1       1.507  83.752 113.573  0.00  0.00    -0.368 OA
BRANCH   7   8
ATOM      8  C   LIG d   1       1.128  83.459 114.940  0.00  0.00     0.119 C 
BRANCH   8   9
ATOM      9  C   LIG d   1       1.512  84.680 115.798  0.00  0.00     0.028 C 
ATOM     10  C   LIG d   1       2.843  84.479 116.542  0.00  0.00     0.006 C 
ENDBRANCH   8   9
BRANCH   8  11
ATOM     11  C   LIG d   1       1.943  82.293 115.506  0.00  0.00     0.028 C 
ATOM     12  C   LIG d   1       1.067  81.224 116.178  0.00  0.00     0.006 C 
ENDBRANCH   8  11
ENDBRANCH   7   8
ENDBRANCH   1   7
BRANCH   6  13
ATOM     13  N   LIG d   1       2.341  82.832 110.827  0.00  0.00    -0.311 N 
ATOM     14  C   LIG d   1       3.521  82.326 110.473  0.00  0.00     0.210 C 
ATOM     15  C   LIG d   1       4.354  83.216 109.545  0.00  0.00     0.109 C 
ATOM     16  O   LIG d   1       3.944  81.211 110.814  0.00  0.00    -0.276 OA
ATOM     17  H   LIG d   1       2.064  83.729 110.478  0.00  0.00     0.149 HD
ENDBRANCH   6  13
BRANCH   5  18
ATOM     18  N   LIG d   1       1.080  80.104 110.275  0.00  0.00     0.381 N 
ATOM     19  H   LIG d   1       1.353  80.392 109.357  0.00  0.00    -0.090 HD
ATOM     20  H   LIG d   1       0.434  79.340 110.188  0.00  0.00    -0.090 HD
ATOM     21  H   LIG d   1       1.881  79.814 110.792  0.00  0.00    -0.090 HD
ENDBRANCH   5  18
BRANCH   3  22
ATOM     22  C   LIG d   1      -2.481  81.316 113.240  0.00  0.00     0.382 C 
ATOM     23  O   LIG d   1      -3.440  81.283 112.431  0.00  0.00    -0.241 OA
ATOM     24  O   LIG d   1      -2.699  81.160 114.456  0.00  0.00    -0.241 OA
ENDBRANCH   3  22
TORSDOF 7
ENDMDL
MODEL 3
REMARK VINA RESULT:      -4.7      2.169      5.256
REMARK  7 active torsions:
REMARK  status: ('A' for Active; 'I' for Inactive)
REMARK    1  A    between atoms: C_2  and  C_3 
REMARK    2  A    between atoms: C_3  and  O_6 
REMARK    3  A    between atoms: C_3  and  C_4 
REMARK    4  A    between atoms: C_7  and  O_6 
REMARK    5  A    between atoms: C_9  and  C_10 
REMARK    6  A    between atoms: N_15  and  C_14 
REMARK    7  A    between atoms: N_20  and  C_19 
REMARK       I    between atoms: C_22  and  N_20 
ROOT
ATOM      1  C   LIG d   1      -2.287  81.374 113.875  0.00  0.00     0.161 C 
ATOM      2  C   LIG d   1      -2.652  80.149 114.456  0.00  0.00     0.016 C 
ATOM      3  C   LIG d   1      -2.260  78.893 113.937  0.00  0.00     0.038 C 
ATOM      4  C   LIG d   1      -1.344  78.782 112.880  0.00  0.00     0.028 C 
ATOM      5  C   LIG d   1      -1.347  79.987 111.946  0.00  0.00    -0.047 C 
ATOM      6  C   LIG d   1      -1.197  81.275 112.787  0.00  0.00     0.091 C 
ENDROOT
BRANCH   1   7
ATOM      7  O   LIG d   1      -1.886  82.302 114.902  0.00  0.00    -0.368 OA
BRANCH   7   8
ATOM      8  C   LIG d   1      -0.520  82.183 115.371  0.00  0.00     0.119 C 
BRANCH   8   9
ATOM      9  C   LIG d   1      -0.573  81.672 116.824  0.00  0.00     0.028 C 
ATOM     10  C   LIG d   1      -1.899  82.018 117.521  0.00  0.00     0.006 C 
ENDBRANCH   8   9
BRANCH   8  11
ATOM     11  C   LIG d   1       0.164  83.551 115.447  0.00  0.00     0.028 C 
ATOM     12  C   LIG d   1      -0.674  84.673 114.815  0.00  0.00     0.006 C 
ENDBRANCH   8  11
ENDBRANCH   7   8
ENDBRANCH   1   7
BRANCH   6  13
ATOM     13  N   LIG d   1      -1.275  82.506 111.958  0.00  0.00    -0.311 N 
ATOM     14  C   LIG d   1      -0.206  83.120 111.455  0.00  0.00     0.210 C 
ATOM     15  C   LIG d   1      -0.508  84.385 110.646  0.00  0.00     0.109 C 
ATOM     16  O   LIG d   1       0.962  82.719 111.574  0.00  0.00    -0.276 OA
ATOM     17  H   LIG d   1      -2.186  82.882 111.785  0.00  0.00     0.149 HD
ENDBRANCH   6  13
BRANCH   5  18
ATOM     18  N   LIG d   1      -0.253  79.800 110.974  0.00  0.00     0.381 N 
ATOM     19  H   LIG d   1       0.034  80.688 110.612  0.00  0.00    -0.090 HD
ATOM     20  H   LIG d   1      -0.590  79.243 110.209  0.00  0.00    -0.090 HD
ATOM     21  H   LIG d   1       0.518  79.346 111.411  0.00  0.00    -0.090 HD
ENDBRANCH   5  18
BRANCH   3  22
ATOM     22  C   LIG d   1      -2.817  77.732 114.451  0.00  0.00     0.382 C 
ATOM     23  O   LIG d   1      -2.881  76.700 113.741  0.00  0.00    -0.241 OA
ATOM     24  O   LIG d   1      -3.297  77.717 115.600  0.00  0.00    -0.241 OA
ENDBRANCH   3  22
TORSDOF 7
ENDMDL
MODEL 4
REMARK VINA RESULT:      -4.5      3.898      5.816
REMARK  7 active torsions:
REMARK  status: ('A' for Active; 'I' for Inactive)
REMARK    1  A    between atoms: C_2  and  C_3 
REMARK    2  A    between atoms: C_3  and  O_6 
REMARK    3  A    between atoms: C_3  and  C_4 
REMARK    4  A    between atoms: C_7  and  O_6 
REMARK    5  A    between atoms: C_9  and  C_10 
REMARK    6  A    between atoms: N_15  and  C_14 
REMARK    7  A    between atoms: N_20  and  C_19 
REMARK       I    between atoms: C_22  and  N_20 
ROOT
ATOM      1  C   LIG d   1      -1.282  79.425 115.942  0.00  0.00     0.161 C 
ATOM      2  C   LIG d   1      -1.755  80.747 115.894  0.00  0.00     0.016 C 
ATOM      3  C   LIG d   1      -2.042  81.427 114.688  0.00  0.00     0.038 C 
ATOM      4  C   LIG d   1      -2.019  80.776 113.446  0.00  0.00     0.028 C 
ATOM      5  C   LIG d   1      -1.062  79.589 113.402  0.00  0.00    -0.047 C 
ATOM      6  C   LIG d   1      -1.356  78.662 114.603  0.00  0.00     0.091 C 
ENDROOT
BRANCH   1   7
ATOM      7  O   LIG d   1      -1.975  78.695 116.974  0.00  0.00    -0.368 OA
BRANCH   7   8
ATOM      8  C   LIG d   1      -1.196  78.357 118.148  0.00  0.00     0.119 C 
BRANCH   8   9
ATOM      9  C   LIG d   1      -1.112  76.820 118.221  0.00  0.00     0.028 C 
ATOM     10  C   LIG d   1      -0.203  76.335 119.362  0.00  0.00     0.006 C 
ENDBRANCH   8   9
BRANCH   8  11
ATOM     11  C   LIG d   1      -1.911  78.785 119.433  0.00  0.00     0.028 C 
ATOM     12  C   LIG d   1      -3.381  78.339 119.475  0.00  0.00     0.006 C 
ENDBRANCH   8  11
ENDBRANCH   7   8
ENDBRANCH   1   7
BRANCH   6  13
ATOM     13  N   LIG d   1      -0.409  77.520 114.683  0.00  0.00    -0.311 N 
ATOM     14  C   LIG d   1      -0.782  76.248 114.551  0.00  0.00     0.210 C 
ATOM     15  C   LIG d   1       0.350  75.225 114.687  0.00  0.00     0.109 C 
ATOM     16  O   LIG d   1      -1.937  75.871 114.303  0.00  0.00    -0.276 OA
ATOM     17  H   LIG d   1       0.554  77.736 114.851  0.00  0.00     0.149 HD
ENDBRANCH   6  13
BRANCH   5  18
ATOM     18  N   LIG d   1      -1.240  78.921 112.099  0.00  0.00     0.381 N 
ATOM     19  H   LIG d   1      -0.931  77.972 112.159  0.00  0.00    -0.090 HD
ATOM     20  H   LIG d   1      -0.678  79.393 111.412  0.00  0.00    -0.090 HD
ATOM     21  H   LIG d   1      -2.199  78.949 111.830  0.00  0.00    -0.090 HD
ENDBRANCH   5  18
BRANCH   3  22
ATOM     22  C   LIG d   1      -2.319  82.786 114.715  0.00  0.00     0.382 C 
ATOM     23  O   LIG d   1      -1.422  83.613 114.423  0.00  0.00    -0.241 OA
ATOM     24  O   LIG d   1      -3.440  83.195 115.070  0.00  0.00    -0.241 OA
ENDBRANCH   3  22
TORSDOF 7
ENDMDL
MODEL 5
REMARK VINA RESULT:      -4.5      4.090      6.783
REMARK  7 active torsions:
REMARK  status: ('A' for Active; 'I' for Inactive)
REMARK    1  A    between atoms: C_2  and  C_3 
REMARK    2  A    between atoms: C_3  and  O_6 
REMARK    3  A    between atoms: C_3  and  C_4 
REMARK    4  A    between atoms: C_7  and  O_6 
REMARK    5  A    between atoms: C_9  and  C_10 
REMARK    6  A    between atoms: N_15  and  C_14 
REMARK    7  A    between atoms: N_20  and  C_19 
REMARK       I    between atoms: C_22  and  N_20 
ROOT
ATOM      1  C   LIG d   1      -1.480  78.623 115.173  0.00  0.00     0.161 C 
ATOM      2  C   LIG d   1      -1.766  79.352 114.006  0.00  0.00     0.016 C 
ATOM      3  C   LIG d   1      -1.818  80.765 113.965  0.00  0.00     0.038 C 
ATOM      4  C   LIG d   1      -1.436  81.553 115.061  0.00  0.00     0.028 C 
ATOM      5  C   LIG d   1      -1.628  80.857 116.404  0.00  0.00    -0.047 C 
ATOM      6  C   LIG d   1      -0.952  79.468 116.351  0.00  0.00     0.091 C 
ENDROOT
BRANCH   1   7
ATOM      7  O   LIG d   1      -0.559  77.557 114.868  0.00  0.00    -0.368 OA
BRANCH   7   8
ATOM      8  C   LIG d   1      -1.153  76.288 114.497  0.00  0.00     0.119 C 
BRANCH   8   9
ATOM      9  C   LIG d   1      -2.063  75.845 115.659  0.00  0.00     0.028 C 
ATOM     10  C   LIG d   1      -3.421  75.315 115.171  0.00  0.00     0.006 C 
ENDBRANCH   8   9
BRANCH   8  11
ATOM     11  C   LIG d   1      -0.091  75.192 114.372  0.00  0.00     0.028 C 
ATOM     12  C   LIG d   1       1.120  75.427 115.289  0.00  0.00     0.006 C 
ENDBRANCH   8  11
ENDBRANCH   7   8
ENDBRANCH   1   7
BRANCH   6  13
ATOM     13  N   LIG d   1      -1.165  78.686 117.596  0.00  0.00    -0.311 N 
ATOM     14  C   LIG d   1      -0.201  77.993 118.201  0.00  0.00     0.210 C 
ATOM     15  C   LIG d   1      -0.638  77.241 119.461  0.00  0.00     0.109 C 
ATOM     16  O   LIG d   1       0.982  77.957 117.830  0.00  0.00    -0.276 OA
ATOM     17  H   LIG d   1      -2.088  78.686 117.983  0.00  0.00     0.149 HD
ENDBRANCH   6  13
BRANCH   5  18
ATOM     18  N   LIG d   1      -1.064  81.736 117.446  0.00  0.00     0.381 N 
ATOM     19  H   LIG d   1      -0.558  82.486 117.018  0.00  0.00    -0.090 HD
ATOM     20  H   LIG d   1      -0.423  81.203 118.008  0.00  0.00    -0.090 HD
ATOM     21  H   LIG d   1      -1.794  82.101 118.016  0.00  0.00    -0.090 HD
ENDBRANCH   5  18
BRANCH   3  22
ATOM     22  C   LIG d   1      -2.295  81.402 112.829  0.00  0.00     0.382 C 
ATOM     23  O   LIG d   1      -1.588  82.261 112.249  0.00  0.00    -0.241 OA
ATOM     24  O   LIG d   1      -3.440  81.160 112.403  0.00  0.00    -0.241 OA
ENDBRANCH   3  22
TORSDOF 7
ENDMDL
MODEL 6
REMARK VINA RESULT:      -4.4      2.083      2.805
REMARK  7 active torsions:
REMARK  status: ('A' for Active; 'I' for Inactive)
REMARK    1  A    between atoms: C_2  and  C_3 
REMARK    2  A    between atoms: C_3  and  O_6 
REMARK    3  A    between atoms: C_3  and  C_4 
REMARK    4  A    between atoms: C_7  and  O_6 
REMARK    5  A    between atoms: C_9  and  C_10 
REMARK    6  A    between atoms: N_15  and  C_14 
REMARK    7  A    between atoms: N_20  and  C_19 
REMARK       I    between atoms: C_22  and  N_20 
ROOT
ATOM      1  C   LIG d   1       0.948  82.454 113.845  0.00  0.00     0.161 C 
ATOM      2  C   LIG d   1       1.842  82.241 112.783  0.00  0.00     0.016 C 
ATOM      3  C   LIG d   1       1.530  81.458 111.648  0.00  0.00     0.038 C 
ATOM      4  C   LIG d   1       0.239  80.955 111.426  0.00  0.00     0.028 C 
ATOM      5  C   LIG d   1      -0.548  80.720 112.711  0.00  0.00    -0.047 C 
ATOM      6  C   LIG d   1      -0.503  82.005 113.569  0.00  0.00     0.091 C 
ENDROOT
BRANCH   1   7
ATOM      7  O   LIG d   1       0.977  83.840 114.238  0.00  0.00    -0.368 OA
BRANCH   7   8
ATOM      8  C   LIG d   1       1.634  84.132 115.497  0.00  0.00     0.119 C 
BRANCH   8   9
ATOM      9  C   LIG d   1       3.048  84.649 115.172  0.00  0.00     0.028 C 
ATOM     10  C   LIG d   1       4.131  83.977 116.033  0.00  0.00     0.006 C 
ENDBRANCH   8   9
BRANCH   8  11
ATOM     11  C   LIG d   1       1.847  82.860 116.322  0.00  0.00     0.028 C 
ATOM     12  C   LIG d   1       0.975  82.817 117.587  0.00  0.00     0.006 C 
ENDBRANCH   8  11
ENDBRANCH   7   8
ENDBRANCH   1   7
BRANCH   6  13
ATOM     13  N   LIG d   1      -1.178  81.834 114.882  0.00  0.00    -0.311 N 
ATOM     14  C   LIG d   1      -2.435  82.207 115.114  0.00  0.00     0.210 C 
ATOM     15  C   LIG d   1      -2.931  81.959 116.542  0.00  0.00     0.109 C 
ATOM     16  O   LIG d   1      -3.198  82.691 114.263  0.00  0.00    -0.276 OA
ATOM     17  H   LIG d   1      -0.642  81.421 115.620  0.00  0.00     0.149 HD
ENDBRANCH   6  13
BRANCH   5  18
ATOM     18  N   LIG d   1      -1.918  80.329 112.329  0.00  0.00     0.381 N 
ATOM     19  H   LIG d   1      -1.893  79.478 111.803  0.00  0.00    -0.090 HD
ATOM     20  H   LIG d   1      -2.311  81.047 111.747  0.00  0.00    -0.090 HD
ATOM     21  H   LIG d   1      -2.478  80.208 113.144  0.00  0.00    -0.090 HD
ENDBRANCH   5  18
BRANCH   3  22
ATOM     22  C   LIG d   1       2.527  81.137 110.739  0.00  0.00     0.382 C 
ATOM     23  O   LIG d   1       2.227  80.610 109.640  0.00  0.00    -0.241 OA
ATOM     24  O   LIG d   1       3.725  81.327 111.022  0.00  0.00    -0.241 OA
ENDBRANCH   3  22
TORSDOF 7
ENDMDL
MODEL 7
REMARK VINA RESULT:      -4.3      2.705      4.894
REMARK  7 active torsions:
REMARK  status: ('A' for Active; 'I' for Inactive)
REMARK    1  A    between atoms: C_2  and  C_3 
REMARK    2  A    between atoms: C_3  and  O_6 
REMARK    3  A    between atoms: C_3  and  C_4 
REMARK    4  A    between atoms: C_7  and  O_6 
REMARK    5  A    between atoms: C_9  and  C_10 
REMARK    6  A    between atoms: N_15  and  C_14 
REMARK    7  A    between atoms: N_20  and  C_19 
REMARK       I    between atoms: C_22  and  N_20 
ROOT
ATOM      1  C   LIG d   1      -2.475  81.473 114.281  0.00  0.00     0.161 C 
ATOM      2  C   LIG d   1      -1.910  81.726 113.019  0.00  0.00     0.016 C 
ATOM      3  C   LIG d   1      -0.700  82.433 112.837  0.00  0.00     0.038 C 
ATOM      4  C   LIG d   1       0.111  82.807 113.919  0.00  0.00     0.028 C 
ATOM      5  C   LIG d   1      -0.666  83.017 115.214  0.00  0.00    -0.047 C 
ATOM      6  C   LIG d   1      -1.549  81.776 115.477  0.00  0.00     0.091 C 
ENDROOT
BRANCH   1   7
ATOM      7  O   LIG d   1      -2.944  80.112 114.342  0.00  0.00    -0.368 OA
BRANCH   7   8
ATOM      8  C   LIG d   1      -2.036  79.151 114.935  0.00  0.00     0.119 C 
BRANCH   8   9
ATOM      9  C   LIG d   1      -1.558  78.211 113.812  0.00  0.00     0.028 C 
ATOM     10  C   LIG d   1      -2.659  77.929 112.775  0.00  0.00     0.006 C 
ENDBRANCH   8   9
BRANCH   8  11
ATOM     11  C   LIG d   1      -2.757  78.249 115.940  0.00  0.00     0.028 C 
ATOM     12  C   LIG d   1      -1.814  77.673 117.008  0.00  0.00     0.006 C 
ENDBRANCH   8  11
ENDBRANCH   7   8
ENDBRANCH   1   7
BRANCH   6  13
ATOM     13  N   LIG d   1      -2.406  81.935 116.680  0.00  0.00    -0.311 N 
ATOM     14  C   LIG d   1      -2.059  81.498 117.890  0.00  0.00     0.210 C 
ATOM     15  C   LIG d   1      -3.097  81.746 118.989  0.00  0.00     0.109 C 
ATOM     16  O   LIG d   1      -0.976  80.958 118.163  0.00  0.00    -0.276 OA
ATOM     17  H   LIG d   1      -3.288  82.390 116.555  0.00  0.00     0.149 HD
ENDBRANCH   6  13
BRANCH   5  18
ATOM     18  N   LIG d   1       0.315  83.267 116.286  0.00  0.00     0.381 N 
ATOM     19  H   LIG d   1       0.466  82.428 116.810  0.00  0.00    -0.090 HD
ATOM     20  H   LIG d   1      -0.054  83.964 116.909  0.00  0.00    -0.090 HD
ATOM     21  H   LIG d   1       1.176  83.582 115.895  0.00  0.00    -0.090 HD
ENDBRANCH   5  18
BRANCH   3  22
ATOM     22  C   LIG d   1      -0.309  82.809 111.560  0.00  0.00     0.382 C 
ATOM     23  O   LIG d   1       0.886  82.669 111.204  0.00  0.00    -0.241 OA
ATOM     24  O   LIG d   1      -1.127  83.326 110.776  0.00  0.00    -0.241 OA
ENDBRANCH   3  22
TORSDOF 7
ENDMDL
MODEL 8
REMARK VINA RESULT:      -4.0      1.896      5.239
REMARK  7 active torsions:
REMARK  status: ('A' for Active; 'I' for Inactive)
REMARK    1  A    between atoms: C_2  and  C_3 
REMARK    2  A    between atoms: C_3  and  O_6 
REMARK    3  A    between atoms: C_3  and  C_4 
REMARK    4  A    between atoms: C_7  and  O_6 
REMARK    5  A    between atoms: C_9  and  C_10 
REMARK    6  A    between atoms: N_15  and  C_14 
REMARK    7  A    between atoms: N_20  and  C_19 
REMARK       I    between atoms: C_22  and  N_20 
ROOT
ATOM      1  C   LIG d   1      -0.154  81.877 113.871  0.00  0.00     0.161 C 
ATOM      2  C   LIG d   1      -1.072  81.037 114.523  0.00  0.00     0.016 C 
ATOM      3  C   LIG d   1      -1.655  79.901 113.915  0.00  0.00     0.038 C 
ATOM      4  C   LIG d   1      -1.242  79.439 112.657  0.00  0.00     0.028 C 
ATOM      5  C   LIG d   1      -0.689  80.541 111.759  0.00  0.00    -0.047 C 
ATOM      6  C   LIG d   1       0.392  81.326 112.537  0.00  0.00     0.091 C 
ENDROOT
BRANCH   1   7
ATOM      7  O   LIG d   1       0.932  82.200 114.762  0.00  0.00    -0.368 OA
BRANCH   7   8
ATOM      8  C   LIG d   1       0.767  83.399 115.559  0.00  0.00     0.119 C 
BRANCH   8   9
ATOM      9  C   LIG d   1       0.251  84.509 114.624  0.00  0.00     0.028 C 
ATOM     10  C   LIG d   1      -1.276  84.679 114.702  0.00  0.00     0.006 C 
ENDBRANCH   8   9
BRANCH   8  11
ATOM     11  C   LIG d   1       2.112  83.906 116.087  0.00  0.00     0.028 C 
ATOM     12  C   LIG d   1       2.941  84.627 115.012  0.00  0.00     0.006 C 
ENDBRANCH   8  11
ENDBRANCH   7   8
ENDBRANCH   1   7
BRANCH   6  13
ATOM     13  N   LIG d   1       0.926  82.476 111.761  0.00  0.00    -0.311 N 
ATOM     14  C   LIG d   1       2.221  82.645 111.498  0.00  0.00     0.210 C 
ATOM     15  C   LIG d   1       2.559  83.908 110.699  0.00  0.00     0.109 C 
ATOM     16  O   LIG d   1       3.118  81.852 111.822  0.00  0.00    -0.276 OA
ATOM     17  H   LIG d   1       0.264  83.151 111.432  0.00  0.00     0.149 HD
ENDBRANCH   6  13
BRANCH   5  18
ATOM     18  N   LIG d   1      -0.170  79.900 110.536  0.00  0.00     0.381 N 
ATOM     19  H   LIG d   1      -0.932  79.605 109.959  0.00  0.00    -0.090 HD
ATOM     20  H   LIG d   1       0.363  79.089 110.795  0.00  0.00    -0.090 HD
ATOM     21  H   LIG d   1       0.407  80.539 110.035  0.00  0.00    -0.090 HD
ENDBRANCH   5  18
BRANCH   3  22
ATOM     22  C   LIG d   1      -2.692  79.237 114.553  0.00  0.00     0.382 C 
ATOM     23  O   LIG d   1      -3.176  79.701 115.613  0.00  0.00    -0.241 OA
ATOM     24  O   LIG d   1      -3.120  78.157 114.105  0.00  0.00    -0.241 OA
ENDBRANCH   3  22
TORSDOF 7
ENDMDL
MODEL 9
REMARK VINA RESULT:      -4.0      3.765      6.307
REMARK  7 active torsions:
REMARK  status: ('A' for Active; 'I' for Inactive)
REMARK    1  A    between atoms: C_2  and  C_3 
REMARK    2  A    between atoms: C_3  and  O_6 
REMARK    3  A    between atoms: C_3  and  C_4 
REMARK    4  A    between atoms: C_7  and  O_6 
REMARK    5  A    between atoms: C_9  and  C_10 
REMARK    6  A    between atoms: N_15  and  C_14 
REMARK    7  A    between atoms: N_20  and  C_19 
REMARK       I    between atoms: C_22  and  N_20 
ROOT
ATOM      1  C   LIG d   1      -2.484  79.710 116.118  0.00  0.00     0.161 C 
ATOM      2  C   LIG d   1      -2.669  80.456 114.943  0.00  0.00     0.016 C 
ATOM      3  C   LIG d   1      -1.619  81.120 114.269  0.00  0.00     0.038 C 
ATOM      4  C   LIG d   1      -0.277  80.958 114.644  0.00  0.00     0.028 C 
ATOM      5  C   LIG d   1      -0.098  80.624 116.121  0.00  0.00    -0.047 C 
ATOM      6  C   LIG d   1      -1.010  79.429 116.481  0.00  0.00     0.091 C 
ENDROOT
BRANCH   1   7
ATOM      7  O   LIG d   1      -3.223  78.475 116.036  0.00  0.00    -0.368 OA
BRANCH   7   8
ATOM      8  C   LIG d   1      -2.531  77.357 115.427  0.00  0.00     0.119 C 
BRANCH   8   9
ATOM      9  C   LIG d   1      -3.198  77.086 114.065  0.00  0.00     0.028 C 
ATOM     10  C   LIG d   1      -2.369  77.626 112.887  0.00  0.00     0.006 C 
ENDBRANCH   8   9
BRANCH   8  11
ATOM     11  C   LIG d   1      -2.726  76.073 116.238  0.00  0.00     0.028 C 
ATOM     12  C   LIG d   1      -1.623  75.034 115.983  0.00  0.00     0.006 C 
ENDBRANCH   8  11
ENDBRANCH   7   8
ENDBRANCH   1   7
BRANCH   6  13
ATOM     13  N   LIG d   1      -0.959  79.092 117.927  0.00  0.00    -0.311 N 
ATOM     14  C   LIG d   1      -0.306  78.036 118.411  0.00  0.00     0.210 C 
ATOM     15  C   LIG d   1      -0.397  77.860 119.930  0.00  0.00     0.109 C 
ATOM     16  O   LIG d   1       0.366  77.248 117.730  0.00  0.00    -0.276 OA
ATOM     17  H   LIG d   1      -1.452  79.697 118.554  0.00  0.00     0.149 HD
ENDBRANCH   6  13
BRANCH   5  18
ATOM     18  N   LIG d   1       1.334  80.346 116.345  0.00  0.00     0.381 N 
ATOM     19  H   LIG d   1       1.437  79.668 117.073  0.00  0.00    -0.090 HD
ATOM     20  H   LIG d   1       1.788  81.194 116.637  0.00  0.00    -0.090 HD
ATOM     21  H   LIG d   1       1.751  80.010 115.505  0.00  0.00    -0.090 HD
ENDBRANCH   5  18
BRANCH   3  22
ATOM     22  C   LIG d   1      -1.911  81.990 113.230  0.00  0.00     0.382 C 
ATOM     23  O   LIG d   1      -2.691  81.634 112.314  0.00  0.00    -0.241 OA
ATOM     24  O   LIG d   1      -1.370  83.111 113.173  0.00  0.00    -0.241 OA
ENDBRANCH   3  22
TORSDOF 7
ENDMDL
