MODEL 1
REMARK VINA RESULT:      -5.7      0.000      0.000
REMARK  7 active torsions:
REMARK  status: ('A' for Active; 'I' for Inactive)
REMARK    1  A    between atoms: C_2  and  C_3 
REMARK    2  A    between atoms: C_3  and  O_6 
REMARK    3  A    between atoms: C_3  and  C_4 
REMARK    4  A    between atoms: C_7  and  O_6 
REMARK    5  A    between atoms: C_9  and  C_10 
REMARK    6  A    between atoms: N_15  and  C_14 
REMARK    7  A    between atoms: N_20  and  C_19 
REMARK       I    between atoms: C_22  and  N_20 
ROOT
ATOM      1  C   LIG d   1       0.210  80.238 111.188  0.00  0.00     0.161 C 
ATOM      2  C   LIG d   1      -0.557  79.197 110.639  0.00  0.00     0.016 C 
ATOM      3  C   LIG d   1      -1.503  78.452 111.380  0.00  0.00     0.038 C 
ATOM      4  C   LIG d   1      -1.858  78.801 112.692  0.00  0.00     0.028 C 
ATOM      5  C   LIG d   1      -0.749  79.525 113.447  0.00  0.00    -0.047 C 
ATOM      6  C   LIG d   1      -0.243  80.706 112.587  0.00  0.00     0.091 C 
ENDROOT
BRANCH   1   7
ATOM      7  O   LIG d   1       0.246  81.352 110.275  0.00  0.00    -0.368 OA
BRANCH   7   8
ATOM      8  C   LIG d   1       1.490  81.548 109.557  0.00  0.00     0.119 C 
BRANCH   8   9
ATOM      9  C   LIG d   1       2.592  80.797 110.329  0.00  0.00     0.028 C 
ATOM     10  C   LIG d   1       3.388  79.837 109.430  0.00  0.00     0.006 C 
ENDBRANCH   8   9
BRANCH   8  11
ATOM     11  C   LIG d   1       1.915  83.019 109.570  0.00  0.00     0.028 C 
ATOM     12  C   LIG d   1       3.291  83.236 110.220  0.00  0.00     0.006 C 
ENDBRANCH   8  11
ENDBRANCH   7   8
ENDBRANCH   1   7
BRANCH   6  13
ATOM     13  N   LIG d   1       0.900  81.417 113.216  0.00  0.00    -0.311 N 
ATOM     14  C   LIG d   1       1.006  82.744 113.257  0.00  0.00     0.210 C 
ATOM     15  C   LIG d   1       2.274  83.271 113.934  0.00  0.00     0.109 C 
ATOM     16  O   LIG d   1       0.154  83.535 112.824  0.00  0.00    -0.276 OA
ATOM     17  H   LIG d   1       1.622  80.852 113.619  0.00  0.00     0.149 HD
ENDBRANCH   6  13
BRANCH   5  18
ATOM     18  N   LIG d   1      -1.300  79.951 114.748  0.00  0.00     0.381 N 
ATOM     19  H   LIG d   1      -2.285  79.778 114.771  0.00  0.00    -0.090 HD
ATOM     20  H   LIG d   1      -1.150  80.939 114.856  0.00  0.00    -0.090 HD
ATOM     21  H   LIG d   1      -0.850  79.457 115.487  0.00  0.00    -0.090 HD
ENDBRANCH   5  18
BRANCH   3  22
ATOM     22  C   LIG d   1      -2.076  77.320 110.822  0.00  0.00     0.382 C 
ATOM     23  O   LIG d   1      -3.306  77.297 110.575  0.00  0.00    -0.241 OA
ATOM     24  O   LIG d   1      -1.387  76.306 110.603  0.00  0.00    -0.241 OA
ENDBRANCH   3  22
TORSDOF 7
ENDMDL
MODEL 2
REMARK VINA RESULT:      -5.1      2.604      5.319
REMARK  7 active torsions:
REMARK  status: ('A' for Active; 'I' for Inactive)
REMARK    1  A    between atoms: C_2  and  C_3 
REMARK    2  A    between atoms: C_3  and  O_6 
REMARK    3  A    between atoms: C_3  and  C_4 
REMARK    4  A    between atoms: C_7  and  O_6 
REMARK    5  A    between atoms: C_9  and  C_10 
REMARK    6  A    between atoms: N_15  and  C_14 
REMARK    7  A    between atoms: N_20  and  C_19 
REMARK       I    between atoms: C_22  and  N_20 
ROOT
ATOM      1  C   LIG d   1       1.332  81.483 112.619  0.00  0.00     0.161 C 
ATOM      2  C   LIG d   1       2.478  81.804 111.872  0.00  0.00     0.016 C 
ATOM      3  C   LIG d   1       2.593  81.565 110.483  0.00  0.00     0.038 C 
ATOM      4  C   LIG d   1       1.506  81.125 109.714  0.00  0.00     0.028 C 
ATOM      5  C   LIG d   1       0.490  80.312 110.510  0.00  0.00    -0.047 C 
ATOM      6  C   LIG d   1       0.096  81.105 111.777  0.00  0.00     0.091 C 
ENDROOT
BRANCH   1   7
ATOM      7  O   LIG d   1       1.015  82.566 113.516  0.00  0.00    -0.368 OA
BRANCH   7   8
ATOM      8  C   LIG d   1       2.113  83.076 114.313  0.00  0.00     0.119 C 
BRANCH   8   9
ATOM      9  C   LIG d   1       2.148  82.267 115.624  0.00  0.00     0.028 C 
ATOM     10  C   LIG d   1       3.530  81.648 115.894  0.00  0.00     0.006 C 
ENDBRANCH   8   9
BRANCH   8  11
ATOM     11  C   LIG d   1       1.866  84.526 114.738  0.00  0.00     0.028 C 
ATOM     12  C   LIG d   1       1.670  84.678 116.255  0.00  0.00     0.006 C 
ENDBRANCH   8  11
ENDBRANCH   7   8
ENDBRANCH   1   7
BRANCH   6  13
ATOM     13  N   LIG d   1      -0.831  80.345 112.655  0.00  0.00    -0.311 N 
ATOM     14  C   LIG d   1      -2.007  80.818 113.064  0.00  0.00     0.210 C 
ATOM     15  C   LIG d   1      -2.798  79.880 113.981  0.00  0.00     0.109 C 
ATOM     16  O   LIG d   1      -2.484  81.913 112.729  0.00  0.00    -0.276 OA
ATOM     17  H   LIG d   1      -0.537  79.434 112.950  0.00  0.00     0.149 HD
ENDBRANCH   6  13
BRANCH   5  18
ATOM     18  N   LIG d   1      -0.654  80.036 109.621  0.00  0.00     0.381 N 
ATOM     19  H   LIG d   1      -0.926  80.874 109.147  0.00  0.00    -0.090 HD
ATOM     20  H   LIG d   1      -1.430  79.723 110.178  0.00  0.00    -0.090 HD
ATOM     21  H   LIG d   1      -0.409  79.335 108.957  0.00  0.00    -0.090 HD
ENDBRANCH   5  18
BRANCH   3  22
ATOM     22  C   LIG d   1       3.819  81.730 109.857  0.00  0.00     0.382 C 
ATOM     23  O   LIG d   1       4.445  80.729 109.431  0.00  0.00    -0.241 OA
ATOM     24  O   LIG d   1       4.329  82.862 109.753  0.00  0.00    -0.241 OA
ENDBRANCH   3  22
TORSDOF 7
ENDMDL
MODEL 3
REMARK VINA RESULT:      -5.0      2.378      4.892
REMARK  7 active torsions:
REMARK  status: ('A' for Active; 'I' for Inactive)
REMARK    1  A    between atoms: C_2  and  C_3 
REMARK    2  A    between atoms: C_3  and  O_6 
REMARK    3  A    between atoms: C_3  and  C_4 
REMARK    4  A    between atoms: C_7  and  O_6 
REMARK    5  A    between atoms: C_9  and  C_10 
REMARK    6  A    between atoms: N_15  and  C_14 
REMARK    7  A    between atoms: N_20  and  C_19 
REMARK       I    between atoms: C_22  and  N_20 
ROOT
ATOM      1  C   LIG d   1      -1.185  79.978 113.589  0.00  0.00     0.161 C 
ATOM      2  C   LIG d   1      -1.961  78.877 113.188  0.00  0.00     0.016 C 
ATOM      3  C   LIG d   1      -1.909  78.321 111.889  0.00  0.00     0.038 C 
ATOM      4  C   LIG d   1      -0.960  78.737 110.942  0.00  0.00     0.028 C 
ATOM      5  C   LIG d   1      -0.503  80.178 111.135  0.00  0.00    -0.047 C 
ATOM      6  C   LIG d   1      -0.065  80.373 112.605  0.00  0.00     0.091 C 
ENDROOT
BRANCH   1   7
ATOM      7  O   LIG d   1      -0.638  79.737 114.901  0.00  0.00    -0.368 OA
BRANCH   7   8
ATOM      8  C   LIG d   1      -1.218  78.635 115.641  0.00  0.00     0.119 C 
BRANCH   8   9
ATOM      9  C   LIG d   1      -1.867  79.221 116.910  0.00  0.00     0.028 C 
ATOM     10  C   LIG d   1      -3.352  78.842 117.038  0.00  0.00     0.006 C 
ENDBRANCH   8   9
BRANCH   8  11
ATOM     11  C   LIG d   1      -0.138  77.673 116.145  0.00  0.00     0.028 C 
ATOM     12  C   LIG d   1      -0.046  76.388 115.306  0.00  0.00     0.006 C 
ENDBRANCH   8  11
ENDBRANCH   7   8
ENDBRANCH   1   7
BRANCH   6  13
ATOM     13  N   LIG d   1       0.318  81.779 112.900  0.00  0.00    -0.311 N 
ATOM     14  C   LIG d   1       1.568  82.230 112.818  0.00  0.00     0.210 C 
ATOM     15  C   LIG d   1       1.748  83.707 113.185  0.00  0.00     0.109 C 
ATOM     16  O   LIG d   1       2.541  81.557 112.444  0.00  0.00    -0.276 OA
ATOM     17  H   LIG d   1      -0.414  82.402 113.181  0.00  0.00     0.149 HD
ENDBRANCH   6  13
BRANCH   5  18
ATOM     18  N   LIG d   1       0.583  80.435 110.170  0.00  0.00     0.381 N 
ATOM     19  H   LIG d   1       0.369  81.249 109.628  0.00  0.00    -0.090 HD
ATOM     20  H   LIG d   1       0.654  79.651 109.545  0.00  0.00    -0.090 HD
ATOM     21  H   LIG d   1       1.445  80.564 110.652  0.00  0.00    -0.090 HD
ENDBRANCH   5  18
BRANCH   3  22
ATOM     22  C   LIG d   1      -2.840  77.365 111.513  0.00  0.00     0.382 C 
ATOM     23  O   LIG d   1      -3.316  77.376 110.352  0.00  0.00    -0.241 OA
ATOM     24  O   LIG d   1      -3.242  76.518 112.333  0.00  0.00    -0.241 OA
ENDBRANCH   3  22
TORSDOF 7
ENDMDL
MODEL 4
REMARK VINA RESULT:      -4.9      2.082      5.124
REMARK  7 active torsions:
REMARK  status: ('A' for Active; 'I' for Inactive)
REMARK    1  A    between atoms: C_2  and  C_3 
REMARK    2  A    between atoms: C_3  and  O_6 
REMARK    3  A    between atoms: C_3  and  C_4 
REMARK    4  A    between atoms: C_7  and  O_6 
REMARK    5  A    between atoms: C_9  and  C_10 
REMARK    6  A    between atoms: N_15  and  C_14 
REMARK    7  A    between atoms: N_20  and  C_19 
REMARK       I    between atoms: C_22  and  N_20 
ROOT
ATOM      1  C   LIG d   1      -0.054  81.590 110.901  0.00  0.00     0.161 C 
ATOM      2  C   LIG d   1       1.025  82.300 110.350  0.00  0.00     0.016 C 
ATOM      3  C   LIG d   1       2.166  82.682 111.092  0.00  0.00     0.038 C 
ATOM      4  C   LIG d   1       2.375  82.246 112.408  0.00  0.00     0.028 C 
ATOM      5  C   LIG d   1       1.082  81.953 113.162  0.00  0.00    -0.047 C 
ATOM      6  C   LIG d   1       0.206  81.008 112.307  0.00  0.00     0.091 C 
ENDROOT
BRANCH   1   7
ATOM      7  O   LIG d   1      -0.466  80.546 109.996  0.00  0.00    -0.368 OA
BRANCH   7   8
ATOM      8  C   LIG d   1      -0.139  79.192 110.393  0.00  0.00     0.119 C 
BRANCH   8   9
ATOM      9  C   LIG d   1       0.948  78.677 109.430  0.00  0.00     0.028 C 
ATOM     10  C   LIG d   1       2.300  79.379 109.642  0.00  0.00     0.006 C 
ENDBRANCH   8   9
BRANCH   8  11
ATOM     11  C   LIG d   1      -1.331  78.251 110.199  0.00  0.00     0.028 C 
ATOM     12  C   LIG d   1      -1.560  77.322 111.402  0.00  0.00     0.006 C 
ENDBRANCH   8  11
ENDBRANCH   7   8
ENDBRANCH   1   7
BRANCH   6  13
ATOM     13  N   LIG d   1      -1.115  80.739 112.933  0.00  0.00    -0.311 N 
ATOM     14  C   LIG d   1      -1.323  79.760 113.812  0.00  0.00     0.210 C 
ATOM     15  C   LIG d   1      -2.764  79.643 114.320  0.00  0.00     0.109 C 
ATOM     16  O   LIG d   1      -0.445  78.998 114.243  0.00  0.00    -0.276 OA
ATOM     17  H   LIG d   1      -1.877  81.330 112.663  0.00  0.00     0.149 HD
ENDBRANCH   6  13
BRANCH   5  18
ATOM     18  N   LIG d   1       1.448  81.377 114.469  0.00  0.00     0.381 N 
ATOM     19  H   LIG d   1       1.308  80.387 114.454  0.00  0.00    -0.090 HD
ATOM     20  H   LIG d   1       0.851  81.769 115.176  0.00  0.00    -0.090 HD
ATOM     21  H   LIG d   1       2.400  81.582 114.677  0.00  0.00    -0.090 HD
ENDBRANCH   5  18
BRANCH   3  22
ATOM     22  C   LIG d   1       3.095  83.544 110.529  0.00  0.00     0.382 C 
ATOM     23  O   LIG d   1       2.713  84.602 109.972  0.00  0.00    -0.241 OA
ATOM     24  O   LIG d   1       4.307  83.256 110.531  0.00  0.00    -0.241 OA
ENDBRANCH   3  22
TORSDOF 7
ENDMDL
MODEL 5
REMARK VINA RESULT:      -4.9      2.443      3.135
REMARK  7 active torsions:
REMARK  status: ('A' for Active; 'I' for Inactive)
REMARK    1  A    between atoms: C_2  and  C_3 
REMARK    2  A    between atoms: C_3  and  O_6 
REMARK    3  A    between atoms: C_3  and  C_4 
REMARK    4  A    between atoms: C_7  and  O_6 
REMARK    5  A    between atoms: C_9  and  C_10 
REMARK    6  A    between atoms: N_15  and  C_14 
REMARK    7  A    between atoms: N_20  and  C_19 
REMARK       I    between atoms: C_22  and  N_20 
ROOT
ATOM      1  C   LIG d   1      -0.565  79.818 113.234  0.00  0.00     0.161 C 
ATOM      2  C   LIG d   1      -1.147  79.126 112.159  0.00  0.00     0.016 C 
ATOM      3  C   LIG d   1      -1.775  77.866 112.294  0.00  0.00     0.038 C 
ATOM      4  C   LIG d   1      -1.997  77.279 113.548  0.00  0.00     0.028 C 
ATOM      5  C   LIG d   1      -0.980  77.702 114.604  0.00  0.00    -0.047 C 
ATOM      6  C   LIG d   1      -0.895  79.245 114.628  0.00  0.00     0.091 C 
ENDROOT
BRANCH   1   7
ATOM      7  O   LIG d   1      -0.923  81.213 113.168  0.00  0.00    -0.368 OA
BRANCH   7   8
ATOM      8  C   LIG d   1      -0.307  81.979 112.104  0.00  0.00     0.119 C 
BRANCH   8   9
ATOM      9  C   LIG d   1       1.165  82.213 112.493  0.00  0.00     0.028 C 
ATOM     10  C   LIG d   1       2.143  81.475 111.563  0.00  0.00     0.006 C 
ENDBRANCH   8   9
BRANCH   8  11
ATOM     11  C   LIG d   1      -0.924  83.377 111.995  0.00  0.00     0.028 C 
ATOM     12  C   LIG d   1      -0.253  84.242 110.917  0.00  0.00     0.006 C 
ENDBRANCH   8  11
ENDBRANCH   7   8
ENDBRANCH   1   7
BRANCH   6  13
ATOM     13  N   LIG d   1       0.138  79.740 115.574  0.00  0.00    -0.311 N 
ATOM     14  C   LIG d   1      -0.116  80.036 116.848  0.00  0.00     0.210 C 
ATOM     15  C   LIG d   1       1.087  80.550 117.645  0.00  0.00     0.109 C 
ATOM     16  O   LIG d   1      -1.216  79.890 117.402  0.00  0.00    -0.276 OA
ATOM     17  H   LIG d   1       1.066  79.858 115.216  0.00  0.00     0.149 HD
ENDBRANCH   6  13
BRANCH   5  18
ATOM     18  N   LIG d   1      -1.410  77.126 115.892  0.00  0.00     0.381 N 
ATOM     19  H   LIG d   1      -2.405  77.191 115.977  0.00  0.00    -0.090 HD
ATOM     20  H   LIG d   1      -0.994  77.654 116.639  0.00  0.00    -0.090 HD
ATOM     21  H   LIG d   1      -1.126  76.173 115.951  0.00  0.00    -0.090 HD
ENDBRANCH   5  18
BRANCH   3  22
ATOM     22  C   LIG d   1      -2.153  77.162 111.161  0.00  0.00     0.382 C 
ATOM     23  O   LIG d   1      -1.366  76.328 110.650  0.00  0.00    -0.241 OA
ATOM     24  O   LIG d   1      -3.252  77.381 110.617  0.00  0.00    -0.241 OA
ENDBRANCH   3  22
TORSDOF 7
ENDMDL
MODEL 6
REMARK VINA RESULT:      -4.6      3.579      6.275
REMARK  7 active torsions:
REMARK  status: ('A' for Active; 'I' for Inactive)
REMARK    1  A    between atoms: C_2  and  C_3 
REMARK    2  A    between atoms: C_3  and  O_6 
REMARK    3  A    between atoms: C_3  and  C_4 
REMARK    4  A    between atoms: C_7  and  O_6 
REMARK    5  A    between atoms: C_9  and  C_10 
REMARK    6  A    between atoms: N_15  and  C_14 
REMARK    7  A    between atoms: N_20  and  C_19 
REMARK       I    between atoms: C_22  and  N_20 
ROOT
ATOM      1  C   LIG d   1      -1.979  78.029 114.576  0.00  0.00     0.161 C 
ATOM      2  C   LIG d   1      -2.276  77.649 113.256  0.00  0.00     0.016 C 
ATOM      3  C   LIG d   1      -1.744  78.302 112.120  0.00  0.00     0.038 C 
ATOM      4  C   LIG d   1      -0.753  79.289 112.229  0.00  0.00     0.028 C 
ATOM      5  C   LIG d   1      -0.798  80.049 113.550  0.00  0.00    -0.047 C 
ATOM      6  C   LIG d   1      -0.815  79.032 114.714  0.00  0.00     0.091 C 
ENDROOT
BRANCH   1   7
ATOM      7  O   LIG d   1      -1.729  76.857 115.377  0.00  0.00    -0.368 OA
BRANCH   7   8
ATOM      8  C   LIG d   1      -2.890  76.062 115.722  0.00  0.00     0.119 C 
BRANCH   8   9
ATOM      9  C   LIG d   1      -3.369  76.521 117.112  0.00  0.00     0.028 C 
ATOM     10  C   LIG d   1      -2.240  76.506 118.157  0.00  0.00     0.006 C 
ENDBRANCH   8   9
BRANCH   8  11
ATOM     11  C   LIG d   1      -2.523  74.584 115.886  0.00  0.00     0.028 C 
ATOM     12  C   LIG d   1      -1.120  74.255 115.353  0.00  0.00     0.006 C 
ENDBRANCH   8  11
ENDBRANCH   7   8
ENDBRANCH   1   7
BRANCH   6  13
ATOM     13  N   LIG d   1      -0.943  79.690 116.040  0.00  0.00    -0.311 N 
ATOM     14  C   LIG d   1      -0.140  79.427 117.069  0.00  0.00     0.210 C 
ATOM     15  C   LIG d   1      -0.458  80.202 118.352  0.00  0.00     0.109 C 
ATOM     16  O   LIG d   1       0.826  78.650 117.033  0.00  0.00    -0.276 OA
ATOM     17  H   LIG d   1      -1.681  80.358 116.148  0.00  0.00     0.149 HD
ENDBRANCH   6  13
BRANCH   5  18
ATOM     18  N   LIG d   1       0.371  80.949 113.586  0.00  0.00     0.381 N 
ATOM     19  H   LIG d   1       0.712  81.024 114.523  0.00  0.00    -0.090 HD
ATOM     20  H   LIG d   1       0.087  81.863 113.279  0.00  0.00    -0.090 HD
ATOM     21  H   LIG d   1       1.089  80.599 112.990  0.00  0.00    -0.090 HD
ENDBRANCH   5  18
BRANCH   3  22
ATOM     22  C   LIG d   1      -2.232  77.995 110.859  0.00  0.00     0.382 C 
ATOM     23  O   LIG d   1      -3.221  77.232 110.739  0.00  0.00    -0.241 OA
ATOM     24  O   LIG d   1      -1.670  78.435 109.839  0.00  0.00    -0.241 OA
ENDBRANCH   3  22
TORSDOF 7
ENDMDL
MODEL 7
REMARK VINA RESULT:      -4.3      3.509      5.741
REMARK  7 active torsions:
REMARK  status: ('A' for Active; 'I' for Inactive)
REMARK    1  A    between atoms: C_2  and  C_3 
REMARK    2  A    between atoms: C_3  and  O_6 
REMARK    3  A    between atoms: C_3  and  C_4 
REMARK    4  A    between atoms: C_7  and  O_6 
REMARK    5  A    between atoms: C_9  and  C_10 
REMARK    6  A    between atoms: N_15  and  C_14 
REMARK    7  A    between atoms: N_20  and  C_19 
REMARK       I    between atoms: C_22  and  N_20 
ROOT
ATOM      1  C   LIG d   1      -1.933  79.162 114.805  0.00  0.00     0.161 C 
ATOM      2  C   LIG d   1      -2.242  77.845 115.185  0.00  0.00     0.016 C 
ATOM      3  C   LIG d   1      -2.122  76.737 114.315  0.00  0.00     0.038 C 
ATOM      4  C   LIG d   1      -1.538  76.851 113.045  0.00  0.00     0.028 C 
ATOM      5  C   LIG d   1      -1.680  78.241 112.435  0.00  0.00    -0.047 C 
ATOM      6  C   LIG d   1      -1.190  79.290 113.459  0.00  0.00     0.091 C 
ENDROOT
BRANCH   1   7
ATOM      7  O   LIG d   1      -1.186  79.811 115.854  0.00  0.00    -0.368 OA
BRANCH   7   8
ATOM      8  C   LIG d   1      -0.937  79.019 117.042  0.00  0.00     0.119 C 
BRANCH   8   9
ATOM      9  C   LIG d   1      -1.420  79.839 118.254  0.00  0.00     0.028 C 
ATOM     10  C   LIG d   1      -2.877  79.524 118.633  0.00  0.00     0.006 C 
ENDBRANCH   8   9
BRANCH   8  11
ATOM     11  C   LIG d   1       0.563  78.809 117.266  0.00  0.00     0.028 C 
ATOM     12  C   LIG d   1       0.943  77.325 117.398  0.00  0.00     0.006 C 
ENDBRANCH   8  11
ENDBRANCH   7   8
ENDBRANCH   1   7
BRANCH   6  13
ATOM     13  N   LIG d   1      -1.372  80.684 112.975  0.00  0.00    -0.311 N 
ATOM     14  C   LIG d   1      -0.428  81.365 112.329  0.00  0.00     0.210 C 
ATOM     15  C   LIG d   1      -0.816  82.794 111.935  0.00  0.00     0.109 C 
ATOM     16  O   LIG d   1       0.682  80.910 112.015  0.00  0.00    -0.276 OA
ATOM     17  H   LIG d   1      -2.255  81.119 113.160  0.00  0.00     0.149 HD
ENDBRANCH   6  13
BRANCH   5  18
ATOM     18  N   LIG d   1      -0.910  78.258 111.177  0.00  0.00     0.381 N 
ATOM     19  H   LIG d   1      -0.264  79.021 111.185  0.00  0.00    -0.090 HD
ATOM     20  H   LIG d   1      -1.545  78.389 110.409  0.00  0.00    -0.090 HD
ATOM     21  H   LIG d   1      -0.418  77.398 111.068  0.00  0.00    -0.090 HD
ENDBRANCH   5  18
BRANCH   3  22
ATOM     22  C   LIG d   1      -2.627  75.504 114.700  0.00  0.00     0.382 C 
ATOM     23  O   LIG d   1      -3.440  74.901 113.959  0.00  0.00    -0.241 OA
ATOM     24  O   LIG d   1      -2.314  75.008 115.799  0.00  0.00    -0.241 OA
ENDBRANCH   3  22
TORSDOF 7
ENDMDL
MODEL 8
REMARK VINA RESULT:      -4.2      4.610      6.601
REMARK  7 active torsions:
REMARK  status: ('A' for Active; 'I' for Inactive)
REMARK    1  A    between atoms: C_2  and  C_3 
REMARK    2  A    between atoms: C_3  and  O_6 
REMARK    3  A    between atoms: C_3  and  C_4 
REMARK    4  A    between atoms: C_7  and  O_6 
REMARK    5  A    between atoms: C_9  and  C_10 
REMARK    6  A    between atoms: N_15  and  C_14 
REMARK    7  A    between atoms: N_20  and  C_19 
REMARK       I    between atoms: C_22  and  N_20 
ROOT
ATOM      1  C   LIG d   1      -1.399  77.677 116.756  0.00  0.00     0.161 C 
ATOM      2  C   LIG d   1      -2.014  76.784 115.863  0.00  0.00     0.016 C 
ATOM      3  C   LIG d   1      -2.035  76.975 114.463  0.00  0.00     0.038 C 
ATOM      4  C   LIG d   1      -1.306  78.001 113.843  0.00  0.00     0.028 C 
ATOM      5  C   LIG d   1      -1.088  79.215 114.740  0.00  0.00    -0.047 C 
ATOM      6  C   LIG d   1      -0.504  78.743 116.091  0.00  0.00     0.091 C 
ENDROOT
BRANCH   1   7
ATOM      7  O   LIG d   1      -0.652  76.942 117.746  0.00  0.00    -0.368 OA
BRANCH   7   8
ATOM      8  C   LIG d   1       0.519  76.237 117.265  0.00  0.00     0.119 C 
BRANCH   8   9
ATOM      9  C   LIG d   1       0.295  74.735 117.529  0.00  0.00     0.028 C 
ATOM     10  C   LIG d   1      -0.705  74.482 118.670  0.00  0.00     0.006 C 
ENDBRANCH   8   9
BRANCH   8  11
ATOM     11  C   LIG d   1       1.765  76.609 118.075  0.00  0.00     0.028 C 
ATOM     12  C   LIG d   1       2.811  75.484 118.110  0.00  0.00     0.006 C 
ENDBRANCH   8  11
ENDBRANCH   7   8
ENDBRANCH   1   7
BRANCH   6  13
ATOM     13  N   LIG d   1      -0.339  79.860 117.058  0.00  0.00    -0.311 N 
ATOM     14  C   LIG d   1       0.847  80.314 117.458  0.00  0.00     0.210 C 
ATOM     15  C   LIG d   1       0.792  81.458 118.475  0.00  0.00     0.109 C 
ATOM     16  O   LIG d   1       1.940  79.899 117.043  0.00  0.00    -0.276 OA
ATOM     17  H   LIG d   1      -1.175  80.275 117.421  0.00  0.00     0.149 HD
ENDBRANCH   6  13
BRANCH   5  18
ATOM     18  N   LIG d   1      -0.200  80.147 114.020  0.00  0.00     0.381 N 
ATOM     19  H   LIG d   1       0.254  80.754 114.672  0.00  0.00    -0.090 HD
ATOM     20  H   LIG d   1      -0.755  80.710 113.399  0.00  0.00    -0.090 HD
ATOM     21  H   LIG d   1       0.480  79.637 113.500  0.00  0.00    -0.090 HD
ENDBRANCH   5  18
BRANCH   3  22
ATOM     22  C   LIG d   1      -2.824  76.156 113.669  0.00  0.00     0.382 C 
ATOM     23  O   LIG d   1      -3.267  75.076 114.129  0.00  0.00    -0.241 OA
ATOM     24  O   LIG d   1      -3.060  76.461 112.485  0.00  0.00    -0.241 OA
ENDBRANCH   3  22
TORSDOF 7
ENDMDL
MODEL 9
REMARK VINA RESULT:      -4.1      2.646      3.929
REMARK  7 active torsions:
REMARK  status: ('A' for Active; 'I' for Inactive)
REMARK    1  A    between atoms: C_2  and  C_3 
REMARK    2  A    between atoms: C_3  and  O_6 
REMARK    3  A    between atoms: C_3  and  C_4 
REMARK    4  A    between atoms: C_7  and  O_6 
REMARK    5  A    between atoms: C_9  and  C_10 
REMARK    6  A    between atoms: N_15  and  C_14 
REMARK    7  A    between atoms: N_20  and  C_19 
REMARK       I    between atoms: C_22  and  N_20 
ROOT
ATOM      1  C   LIG d   1      -1.474  77.901 112.842  0.00  0.00     0.161 C 
ATOM      2  C   LIG d   1      -2.233  76.848 113.381  0.00  0.00     0.016 C 
ATOM      3  C   LIG d   1      -2.574  76.756 114.750  0.00  0.00     0.038 C 
ATOM      4  C   LIG d   1      -2.307  77.796 115.652  0.00  0.00     0.028 C 
ATOM      5  C   LIG d   1      -1.103  78.645 115.259  0.00  0.00    -0.047 C 
ATOM      6  C   LIG d   1      -1.269  79.101 113.791  0.00  0.00     0.091 C 
ENDROOT
BRANCH   1   7
ATOM      7  O   LIG d   1      -2.060  78.339 111.600  0.00  0.00    -0.368 OA
BRANCH   7   8
ATOM      8  C   LIG d   1      -1.392  77.900 110.391  0.00  0.00     0.119 C 
BRANCH   8   9
ATOM      9  C   LIG d   1      -0.126  77.131 110.815  0.00  0.00     0.028 C 
ATOM     10  C   LIG d   1      -0.222  75.627 110.506  0.00  0.00     0.006 C 
ENDBRANCH   8   9
BRANCH   8  11
ATOM     11  C   LIG d   1      -0.888  79.090 109.570  0.00  0.00     0.028 C 
ATOM     12  C   LIG d   1       0.643  79.112 109.431  0.00  0.00     0.006 C 
ENDBRANCH   8  11
ENDBRANCH   7   8
ENDBRANCH   1   7
BRANCH   6  13
ATOM     13  N   LIG d   1      -0.094  79.867 113.299  0.00  0.00    -0.311 N 
ATOM     14  C   LIG d   1      -0.195  81.023 112.645  0.00  0.00     0.210 C 
ATOM     15  C   LIG d   1       1.139  81.637 112.209  0.00  0.00     0.109 C 
ATOM     16  O   LIG d   1      -1.260  81.615 112.414  0.00  0.00    -0.276 OA
ATOM     17  H   LIG d   1       0.811  79.475 113.471  0.00  0.00     0.149 HD
ENDBRANCH   6  13
BRANCH   5  18
ATOM     18  N   LIG d   1      -1.022  79.771 116.208  0.00  0.00     0.381 N 
ATOM     19  H   LIG d   1      -1.072  80.638 115.711  0.00  0.00    -0.090 HD
ATOM     20  H   LIG d   1      -0.139  79.731 116.685  0.00  0.00    -0.090 HD
ATOM     21  H   LIG d   1      -1.767  79.715 116.867  0.00  0.00    -0.090 HD
ENDBRANCH   5  18
BRANCH   3  22
ATOM     22  C   LIG d   1      -3.155  75.595 115.236  0.00  0.00     0.382 C 
ATOM     23  O   LIG d   1      -3.439  74.659 114.450  0.00  0.00    -0.241 OA
ATOM     24  O   LIG d   1      -3.440  75.489 116.444  0.00  0.00    -0.241 OA
ENDBRANCH   3  22
TORSDOF 7
ENDMDL
