MODEL 1
REMARK VINA RESULT:      -4.4      0.000      0.000
REMARK  7 active torsions:
REMARK  status: ('A' for Active; 'I' for Inactive)
REMARK    1  A    between atoms: C_2  and  C_3 
REMARK    2  A    between atoms: C_3  and  O_6 
REMARK    3  A    between atoms: C_3  and  C_4 
REMARK    4  A    between atoms: C_7  and  O_6 
REMARK    5  A    between atoms: C_9  and  C_10 
REMARK    6  A    between atoms: N_15  and  C_14 
REMARK    7  A    between atoms: N_20  and  C_19 
REMARK       I    between atoms: C_22  and  N_20 
ROOT
ATOM      1  C   LIG d   1      -0.651  77.991 116.704  0.00  0.00     0.161 C 
ATOM      2  C   LIG d   1      -1.491  78.376 115.646  0.00  0.00     0.016 C 
ATOM      3  C   LIG d   1      -2.161  77.455 114.809  0.00  0.00     0.038 C 
ATOM      4  C   LIG d   1      -2.156  76.076 115.071  0.00  0.00     0.028 C 
ATOM      5  C   LIG d   1      -0.916  75.607 115.823  0.00  0.00    -0.047 C 
ATOM      6  C   LIG d   1      -0.722  76.494 117.074  0.00  0.00     0.091 C 
ENDROOT
BRANCH   1   7
ATOM      7  O   LIG d   1      -0.919  78.806 117.862  0.00  0.00    -0.368 OA
BRANCH   7   8
ATOM      8  C   LIG d   1      -1.617  80.052 117.617  0.00  0.00     0.119 C 
BRANCH   8   9
ATOM      9  C   LIG d   1      -0.779  81.183 118.243  0.00  0.00     0.028 C 
ATOM     10  C   LIG d   1      -1.606  82.071 119.189  0.00  0.00     0.006 C 
ENDBRANCH   8   9
BRANCH   8  11
ATOM     11  C   LIG d   1      -2.962  80.090 118.349  0.00  0.00     0.028 C 
ATOM     12  C   LIG d   1      -3.288  78.770 119.065  0.00  0.00     0.006 C 
ENDBRANCH   8  11
ENDBRANCH   7   8
ENDBRANCH   1   7
BRANCH   6  13
ATOM     13  N   LIG d   1       0.517  76.157 117.822  0.00  0.00    -0.311 N 
ATOM     14  C   LIG d   1       0.550  75.289 118.831  0.00  0.00     0.210 C 
ATOM     15  C   LIG d   1       1.927  75.101 119.478  0.00  0.00     0.109 C 
ATOM     16  O   LIG d   1      -0.422  74.632 119.232  0.00  0.00    -0.276 OA
ATOM     17  H   LIG d   1       1.359  76.621 117.543  0.00  0.00     0.149 HD
ENDBRANCH   6  13
BRANCH   5  18
ATOM     18  N   LIG d   1      -1.106  74.181 116.150  0.00  0.00     0.381 N 
ATOM     19  H   LIG d   1      -0.289  73.826 116.606  0.00  0.00    -0.090 HD
ATOM     20  H   LIG d   1      -1.239  73.667 115.297  0.00  0.00    -0.090 HD
ATOM     21  H   LIG d   1      -1.900  74.069 116.741  0.00  0.00    -0.090 HD
ENDBRANCH   5  18
BRANCH   3  22
ATOM     22  C   LIG d   1      -2.814  77.907 113.673  0.00  0.00     0.382 C 
ATOM     23  O   LIG d   1      -3.052  77.115 112.729  0.00  0.00    -0.241 OA
ATOM     24  O   LIG d   1      -3.128  79.107 113.560  0.00  0.00    -0.241 OA
ENDBRANCH   3  22
TORSDOF 7
ENDMDL
MODEL 2
REMARK VINA RESULT:      -4.4      3.364      5.336
REMARK  7 active torsions:
REMARK  status: ('A' for Active; 'I' for Inactive)
REMARK    1  A    between atoms: C_2  and  C_3 
REMARK    2  A    between atoms: C_3  and  O_6 
REMARK    3  A    between atoms: C_3  and  C_4 
REMARK    4  A    between atoms: C_7  and  O_6 
REMARK    5  A    between atoms: C_9  and  C_10 
REMARK    6  A    between atoms: N_15  and  C_14 
REMARK    7  A    between atoms: N_20  and  C_19 
REMARK       I    between atoms: C_22  and  N_20 
ROOT
ATOM      1  C   LIG d   1      -1.703  79.733 115.026  0.00  0.00     0.161 C 
ATOM      2  C   LIG d   1      -2.160  78.511 115.547  0.00  0.00     0.016 C 
ATOM      3  C   LIG d   1      -2.561  77.422 114.739  0.00  0.00     0.038 C 
ATOM      4  C   LIG d   1      -2.387  77.428 113.347  0.00  0.00     0.028 C 
ATOM      5  C   LIG d   1      -2.401  78.828 112.741  0.00  0.00    -0.047 C 
ATOM      6  C   LIG d   1      -1.401  79.719 113.513  0.00  0.00     0.091 C 
ENDROOT
BRANCH   1   7
ATOM      7  O   LIG d   1      -0.546  80.176 115.764  0.00  0.00    -0.368 OA
BRANCH   7   8
ATOM      8  C   LIG d   1      -0.455  79.725 117.137  0.00  0.00     0.119 C 
BRANCH   8   9
ATOM      9  C   LIG d   1      -0.854  80.908 118.040  0.00  0.00     0.028 C 
ATOM     10  C   LIG d   1      -2.229  80.707 118.698  0.00  0.00     0.006 C 
ENDBRANCH   8   9
BRANCH   8  11
ATOM     11  C   LIG d   1       0.991  79.392 117.520  0.00  0.00     0.028 C 
ATOM     12  C   LIG d   1       1.945  80.582 117.334  0.00  0.00     0.006 C 
ENDBRANCH   8  11
ENDBRANCH   7   8
ENDBRANCH   1   7
BRANCH   6  13
ATOM     13  N   LIG d   1      -1.414  81.127 113.039  0.00  0.00    -0.311 N 
ATOM     14  C   LIG d   1      -0.623  81.581 112.069  0.00  0.00     0.210 C 
ATOM     15  C   LIG d   1      -0.783  83.071 111.748  0.00  0.00     0.109 C 
ATOM     16  O   LIG d   1       0.174  80.885 111.422  0.00  0.00    -0.276 OA
ATOM     17  H   LIG d   1      -2.053  81.754 113.488  0.00  0.00     0.149 HD
ENDBRANCH   6  13
BRANCH   5  18
ATOM     18  N   LIG d   1      -2.072  78.697 111.309  0.00  0.00     0.381 N 
ATOM     19  H   LIG d   1      -2.057  79.601 110.881  0.00  0.00    -0.090 HD
ATOM     20  H   LIG d   1      -2.785  78.148 110.861  0.00  0.00    -0.090 HD
ATOM     21  H   LIG d   1      -1.186  78.255 111.202  0.00  0.00    -0.090 HD
ENDBRANCH   5  18
BRANCH   3  22
ATOM     22  C   LIG d   1      -3.179  76.326 115.320  0.00  0.00     0.382 C 
ATOM     23  O   LIG d   1      -3.440  76.331 116.548  0.00  0.00    -0.241 OA
ATOM     24  O   LIG d   1      -3.440  75.314 114.642  0.00  0.00    -0.241 OA
ENDBRANCH   3  22
TORSDOF 7
ENDMDL
MODEL 3
REMARK VINA RESULT:      -4.2      2.565      4.998
REMARK  7 active torsions:
REMARK  status: ('A' for Active; 'I' for Inactive)
REMARK    1  A    between atoms: C_2  and  C_3 
REMARK    2  A    between atoms: C_3  and  O_6 
REMARK    3  A    between atoms: C_3  and  C_4 
REMARK    4  A    between atoms: C_7  and  O_6 
REMARK    5  A    between atoms: C_9  and  C_10 
REMARK    6  A    between atoms: N_15  and  C_14 
REMARK    7  A    between atoms: N_20  and  C_19 
REMARK       I    between atoms: C_22  and  N_20 
ROOT
ATOM      1  C   LIG d   1      -0.944  79.043 115.752  0.00  0.00     0.161 C 
ATOM      2  C   LIG d   1      -1.171  77.719 115.343  0.00  0.00     0.016 C 
ATOM      3  C   LIG d   1      -1.554  76.686 116.229  0.00  0.00     0.038 C 
ATOM      4  C   LIG d   1      -1.885  76.942 117.568  0.00  0.00     0.028 C 
ATOM      5  C   LIG d   1      -1.185  78.169 118.141  0.00  0.00    -0.047 C 
ATOM      6  C   LIG d   1      -1.408  79.366 117.188  0.00  0.00     0.091 C 
ENDROOT
BRANCH   1   7
ATOM      7  O   LIG d   1      -1.549  79.955 114.814  0.00  0.00    -0.368 OA
BRANCH   7   8
ATOM      8  C   LIG d   1      -1.385  79.628 113.412  0.00  0.00     0.119 C 
BRANCH   8   9
ATOM      9  C   LIG d   1      -0.519  80.734 112.777  0.00  0.00     0.028 C 
ATOM     10  C   LIG d   1      -0.172  80.438 111.308  0.00  0.00     0.006 C 
ENDBRANCH   8   9
BRANCH   8  11
ATOM     11  C   LIG d   1      -2.722  79.682 112.667  0.00  0.00     0.028 C 
ATOM     12  C   LIG d   1      -3.157  78.311 112.124  0.00  0.00     0.006 C 
ENDBRANCH   8  11
ENDBRANCH   7   8
ENDBRANCH   1   7
BRANCH   6  13
ATOM     13  N   LIG d   1      -0.685  80.586 117.631  0.00  0.00    -0.311 N 
ATOM     14  C   LIG d   1      -1.205  81.482 118.468  0.00  0.00     0.210 C 
ATOM     15  C   LIG d   1      -0.299  82.678 118.779  0.00  0.00     0.109 C 
ATOM     16  O   LIG d   1      -2.317  81.385 119.008  0.00  0.00    -0.276 OA
ATOM     17  H   LIG d   1       0.236  80.728 117.266  0.00  0.00     0.149 HD
ENDBRANCH   6  13
BRANCH   5  18
ATOM     18  N   LIG d   1      -1.725  78.399 119.494  0.00  0.00     0.381 N 
ATOM     19  H   LIG d   1      -1.147  79.054 119.983  0.00  0.00    -0.090 HD
ATOM     20  H   LIG d   1      -1.715  77.531 120.000  0.00  0.00    -0.090 HD
ATOM     21  H   LIG d   1      -2.656  78.747 119.435  0.00  0.00    -0.090 HD
ENDBRANCH   5  18
BRANCH   3  22
ATOM     22  C   LIG d   1      -1.570  75.372 115.787  0.00  0.00     0.382 C 
ATOM     23  O   LIG d   1      -1.143  75.091 114.641  0.00  0.00    -0.241 OA
ATOM     24  O   LIG d   1      -2.047  74.470 116.502  0.00  0.00    -0.241 OA
ENDBRANCH   3  22
TORSDOF 7
ENDMDL
MODEL 4
REMARK VINA RESULT:      -4.1      2.520      4.736
REMARK  7 active torsions:
REMARK  status: ('A' for Active; 'I' for Inactive)
REMARK    1  A    between atoms: C_2  and  C_3 
REMARK    2  A    between atoms: C_3  and  O_6 
REMARK    3  A    between atoms: C_3  and  C_4 
REMARK    4  A    between atoms: C_7  and  O_6 
REMARK    5  A    between atoms: C_9  and  C_10 
REMARK    6  A    between atoms: N_15  and  C_14 
REMARK    7  A    between atoms: N_20  and  C_19 
REMARK       I    between atoms: C_22  and  N_20 
ROOT
ATOM      1  C   LIG d   1      -1.105  78.211 117.699  0.00  0.00     0.161 C 
ATOM      2  C   LIG d   1      -1.815  77.109 117.194  0.00  0.00     0.016 C 
ATOM      3  C   LIG d   1      -2.110  76.935 115.823  0.00  0.00     0.038 C 
ATOM      4  C   LIG d   1      -1.580  77.782 114.837  0.00  0.00     0.028 C 
ATOM      5  C   LIG d   1      -1.280  79.188 115.345  0.00  0.00    -0.047 C 
ATOM      6  C   LIG d   1      -0.424  79.087 116.627  0.00  0.00     0.091 C 
ENDROOT
BRANCH   1   7
ATOM      7  O   LIG d   1      -0.139  77.766 118.671  0.00  0.00    -0.368 OA
BRANCH   7   8
ATOM      8  C   LIG d   1       0.597  76.564 118.335  0.00  0.00     0.119 C 
BRANCH   8   9
ATOM      9  C   LIG d   1       0.489  75.604 119.535  0.00  0.00     0.028 C 
ATOM     10  C   LIG d   1      -0.468  74.431 119.264  0.00  0.00     0.006 C 
ENDBRANCH   8   9
BRANCH   8  11
ATOM     11  C   LIG d   1       2.093  76.852 118.179  0.00  0.00     0.028 C 
ATOM     12  C   LIG d   1       2.977  75.787 118.848  0.00  0.00     0.006 C 
ENDBRANCH   8  11
ENDBRANCH   7   8
ENDBRANCH   1   7
BRANCH   6  13
ATOM     13  N   LIG d   1      -0.156  80.416 117.237  0.00  0.00    -0.311 N 
ATOM     14  C   LIG d   1       1.069  80.880 117.476  0.00  0.00     0.210 C 
ATOM     15  C   LIG d   1       1.121  82.265 118.128  0.00  0.00     0.109 C 
ATOM     16  O   LIG d   1       2.119  80.289 117.181  0.00  0.00    -0.276 OA
ATOM     17  H   LIG d   1      -0.951  80.975 117.479  0.00  0.00     0.149 HD
ENDBRANCH   6  13
BRANCH   5  18
ATOM     18  N   LIG d   1      -0.607  79.921 114.256  0.00  0.00     0.381 N 
ATOM     19  H   LIG d   1       0.048  80.573 114.640  0.00  0.00    -0.090 HD
ATOM     20  H   LIG d   1      -1.296  80.435 113.735  0.00  0.00    -0.090 HD
ATOM     21  H   LIG d   1      -0.136  79.281 113.655  0.00  0.00    -0.090 HD
ENDBRANCH   5  18
BRANCH   3  22
ATOM     22  C   LIG d   1      -2.976  75.927 115.428  0.00  0.00     0.382 C 
ATOM     23  O   LIG d   1      -3.263  75.000 116.223  0.00  0.00    -0.241 OA
ATOM     24  O   LIG d   1      -3.440  75.909 114.272  0.00  0.00    -0.241 OA
ENDBRANCH   3  22
TORSDOF 7
ENDMDL
MODEL 5
REMARK VINA RESULT:      -4.0      1.869      2.574
REMARK  7 active torsions:
REMARK  status: ('A' for Active; 'I' for Inactive)
REMARK    1  A    between atoms: C_2  and  C_3 
REMARK    2  A    between atoms: C_3  and  O_6 
REMARK    3  A    between atoms: C_3  and  C_4 
REMARK    4  A    between atoms: C_7  and  O_6 
REMARK    5  A    between atoms: C_9  and  C_10 
REMARK    6  A    between atoms: N_15  and  C_14 
REMARK    7  A    between atoms: N_20  and  C_19 
REMARK       I    between atoms: C_22  and  N_20 
ROOT
ATOM      1  C   LIG d   1      -0.806  78.989 115.918  0.00  0.00     0.161 C 
ATOM      2  C   LIG d   1      -1.319  79.735 114.844  0.00  0.00     0.016 C 
ATOM      3  C   LIG d   1      -2.268  79.227 113.927  0.00  0.00     0.038 C 
ATOM      4  C   LIG d   1      -2.886  77.981 114.113  0.00  0.00     0.028 C 
ATOM      5  C   LIG d   1      -2.030  76.992 114.897  0.00  0.00    -0.047 C 
ATOM      6  C   LIG d   1      -1.550  77.668 116.202  0.00  0.00     0.091 C 
ENDROOT
BRANCH   1   7
ATOM      7  O   LIG d   1      -0.765  79.806 117.104  0.00  0.00    -0.368 OA
BRANCH   7   8
ATOM      8  C   LIG d   1       0.551  80.220 117.548  0.00  0.00     0.119 C 
BRANCH   8   9
ATOM      9  C   LIG d   1       0.907  79.378 118.789  0.00  0.00     0.028 C 
ATOM     10  C   LIG d   1       2.173  78.530 118.578  0.00  0.00     0.006 C 
ENDBRANCH   8   9
BRANCH   8  11
ATOM     11  C   LIG d   1       0.544  81.673 118.033  0.00  0.00     0.028 C 
ATOM     12  C   LIG d   1      -0.768  82.062 118.731  0.00  0.00     0.006 C 
ENDBRANCH   8  11
ENDBRANCH   7   8
ENDBRANCH   1   7
BRANCH   6  13
ATOM     13  N   LIG d   1      -0.637  76.797 116.988  0.00  0.00    -0.311 N 
ATOM     14  C   LIG d   1      -1.045  76.031 117.999  0.00  0.00     0.210 C 
ATOM     15  C   LIG d   1       0.062  75.227 118.688  0.00  0.00     0.109 C 
ATOM     16  O   LIG d   1      -2.223  75.916 118.369  0.00  0.00    -0.276 OA
ATOM     17  H   LIG d   1       0.331  76.805 116.735  0.00  0.00     0.149 HD
ENDBRANCH   6  13
BRANCH   5  18
ATOM     18  N   LIG d   1      -2.848  75.788 115.136  0.00  0.00     0.381 N 
ATOM     19  H   LIG d   1      -2.487  75.022 114.603  0.00  0.00    -0.090 HD
ATOM     20  H   LIG d   1      -3.789  75.968 114.834  0.00  0.00    -0.090 HD
ATOM     21  H   LIG d   1      -2.841  75.558 116.106  0.00  0.00    -0.090 HD
ENDBRANCH   5  18
BRANCH   3  22
ATOM     22  C   LIG d   1      -2.579  79.953 112.787  0.00  0.00     0.382 C 
ATOM     23  O   LIG d   1      -1.962  79.735 111.717  0.00  0.00    -0.241 OA
ATOM     24  O   LIG d   1      -3.439  80.853 112.827  0.00  0.00    -0.241 OA
ENDBRANCH   3  22
TORSDOF 7
ENDMDL
MODEL 6
REMARK VINA RESULT:      -4.0      2.042      2.643
REMARK  7 active torsions:
REMARK  status: ('A' for Active; 'I' for Inactive)
REMARK    1  A    between atoms: C_2  and  C_3 
REMARK    2  A    between atoms: C_3  and  O_6 
REMARK    3  A    between atoms: C_3  and  C_4 
REMARK    4  A    between atoms: C_7  and  O_6 
REMARK    5  A    between atoms: C_9  and  C_10 
REMARK    6  A    between atoms: N_15  and  C_14 
REMARK    7  A    between atoms: N_20  and  C_19 
REMARK       I    between atoms: C_22  and  N_20 
ROOT
ATOM      1  C   LIG d   1      -1.507  79.140 116.230  0.00  0.00     0.161 C 
ATOM      2  C   LIG d   1      -1.805  79.907 115.091  0.00  0.00     0.016 C 
ATOM      3  C   LIG d   1      -2.541  79.412 113.990  0.00  0.00     0.038 C 
ATOM      4  C   LIG d   1      -3.164  78.155 114.019  0.00  0.00     0.028 C 
ATOM      5  C   LIG d   1      -2.468  77.156 114.938  0.00  0.00    -0.047 C 
ATOM      6  C   LIG d   1      -2.273  77.803 116.328  0.00  0.00     0.091 C 
ENDROOT
BRANCH   1   7
ATOM      7  O   LIG d   1      -1.720  79.927 117.418  0.00  0.00    -0.368 OA
BRANCH   7   8
ATOM      8  C   LIG d   1      -0.557  80.144 118.255  0.00  0.00     0.119 C 
BRANCH   8   9
ATOM      9  C   LIG d   1      -0.423  81.664 118.475  0.00  0.00     0.028 C 
ATOM     10  C   LIG d   1      -1.628  82.257 119.224  0.00  0.00     0.006 C 
ENDBRANCH   8   9
BRANCH   8  11
ATOM     11  C   LIG d   1       0.730  79.723 117.541  0.00  0.00     0.028 C 
ATOM     12  C   LIG d   1       1.535  78.679 118.331  0.00  0.00     0.006 C 
ENDBRANCH   8  11
ENDBRANCH   7   8
ENDBRANCH   1   7
BRANCH   6  13
ATOM     13  N   LIG d   1      -1.524  76.923 117.262  0.00  0.00    -0.311 N 
ATOM     14  C   LIG d   1      -1.919  76.674 118.510  0.00  0.00     0.210 C 
ATOM     15  C   LIG d   1      -0.991  75.756 119.311  0.00  0.00     0.109 C 
ATOM     16  O   LIG d   1      -2.967  77.101 119.018  0.00  0.00    -0.276 OA
ATOM     17  H   LIG d   1      -0.678  76.510 116.921  0.00  0.00     0.149 HD
ENDBRANCH   6  13
BRANCH   5  18
ATOM     18  N   LIG d   1      -3.298  75.937 114.979  0.00  0.00     0.381 N 
ATOM     19  H   LIG d   1      -4.135  76.114 115.499  0.00  0.00    -0.090 HD
ATOM     20  H   LIG d   1      -2.785  75.210 115.446  0.00  0.00    -0.090 HD
ATOM     21  H   LIG d   1      -3.528  75.649 114.054  0.00  0.00    -0.090 HD
ENDBRANCH   5  18
BRANCH   3  22
ATOM     22  C   LIG d   1      -2.627  80.163 112.828  0.00  0.00     0.382 C 
ATOM     23  O   LIG d   1      -3.439  81.117 112.756  0.00  0.00    -0.241 OA
ATOM     24  O   LIG d   1      -1.934  79.870 111.834  0.00  0.00    -0.241 OA
ENDBRANCH   3  22
TORSDOF 7
ENDMDL
MODEL 7
REMARK VINA RESULT:      -3.9      2.720      5.233
REMARK  7 active torsions:
REMARK  status: ('A' for Active; 'I' for Inactive)
REMARK    1  A    between atoms: C_2  and  C_3 
REMARK    2  A    between atoms: C_3  and  O_6 
REMARK    3  A    between atoms: C_3  and  C_4 
REMARK    4  A    between atoms: C_7  and  O_6 
REMARK    5  A    between atoms: C_9  and  C_10 
REMARK    6  A    between atoms: N_15  and  C_14 
REMARK    7  A    between atoms: N_20  and  C_19 
REMARK       I    between atoms: C_22  and  N_20 
ROOT
ATOM      1  C   LIG d   1      -0.089  77.747 118.294  0.00  0.00     0.161 C 
ATOM      2  C   LIG d   1      -0.584  76.539 117.776  0.00  0.00     0.016 C 
ATOM      3  C   LIG d   1      -1.056  76.396 116.452  0.00  0.00     0.038 C 
ATOM      4  C   LIG d   1      -0.925  77.420 115.503  0.00  0.00     0.028 C 
ATOM      5  C   LIG d   1      -0.895  78.815 116.118  0.00  0.00    -0.047 C 
ATOM      6  C   LIG d   1       0.166  78.846 117.242  0.00  0.00     0.091 C 
ENDROOT
BRANCH   1   7
ATOM      7  O   LIG d   1       1.108  77.498 119.058  0.00  0.00    -0.368 OA
BRANCH   7   8
ATOM      8  C   LIG d   1       2.259  77.038 118.307  0.00  0.00     0.119 C 
BRANCH   8   9
ATOM      9  C   LIG d   1       2.581  75.608 118.784  0.00  0.00     0.028 C 
ATOM     10  C   LIG d   1       4.087  75.299 118.736  0.00  0.00     0.006 C 
ENDBRANCH   8   9
BRANCH   8  11
ATOM     11  C   LIG d   1       3.505  77.865 118.635  0.00  0.00     0.028 C 
ATOM     12  C   LIG d   1       4.042  78.640 117.421  0.00  0.00     0.006 C 
ENDBRANCH   8  11
ENDBRANCH   7   8
ENDBRANCH   1   7
BRANCH   6  13
ATOM     13  N   LIG d   1       0.201  80.151 117.953  0.00  0.00    -0.311 N 
ATOM     14  C   LIG d   1       1.011  81.151 117.610  0.00  0.00     0.210 C 
ATOM     15  C   LIG d   1       0.900  82.402 118.488  0.00  0.00     0.109 C 
ATOM     16  O   LIG d   1       1.787  81.133 116.643  0.00  0.00    -0.276 OA
ATOM     17  H   LIG d   1      -0.419  80.263 118.731  0.00  0.00     0.149 HD
ENDBRANCH   6  13
BRANCH   5  18
ATOM     18  N   LIG d   1      -0.616  79.775 115.033  0.00  0.00     0.381 N 
ATOM     19  H   LIG d   1      -0.016  79.353 114.353  0.00  0.00    -0.090 HD
ATOM     20  H   LIG d   1      -0.143  80.573 115.419  0.00  0.00    -0.090 HD
ATOM     21  H   LIG d   1      -1.468  80.061 114.603  0.00  0.00    -0.090 HD
ENDBRANCH   5  18
BRANCH   3  22
ATOM     22  C   LIG d   1      -1.705  75.229 116.076  0.00  0.00     0.382 C 
ATOM     23  O   LIG d   1      -2.492  75.237 115.099  0.00  0.00    -0.241 OA
ATOM     24  O   LIG d   1      -1.547  74.180 116.728  0.00  0.00    -0.241 OA
ENDBRANCH   3  22
TORSDOF 7
ENDMDL
MODEL 8
REMARK VINA RESULT:      -3.9      2.721      5.669
REMARK  7 active torsions:
REMARK  status: ('A' for Active; 'I' for Inactive)
REMARK    1  A    between atoms: C_2  and  C_3 
REMARK    2  A    between atoms: C_3  and  O_6 
REMARK    3  A    between atoms: C_3  and  C_4 
REMARK    4  A    between atoms: C_7  and  O_6 
REMARK    5  A    between atoms: C_9  and  C_10 
REMARK    6  A    between atoms: N_15  and  C_14 
REMARK    7  A    between atoms: N_20  and  C_19 
REMARK       I    between atoms: C_22  and  N_20 
ROOT
ATOM      1  C   LIG d   1       0.794  77.386 117.785  0.00  0.00     0.161 C 
ATOM      2  C   LIG d   1       1.742  78.420 117.859  0.00  0.00     0.016 C 
ATOM      3  C   LIG d   1       1.493  79.738 117.412  0.00  0.00     0.038 C 
ATOM      4  C   LIG d   1       0.218  80.152 116.996  0.00  0.00     0.028 C 
ATOM      5  C   LIG d   1      -0.632  79.019 116.431  0.00  0.00    -0.047 C 
ATOM      6  C   LIG d   1      -0.638  77.845 117.438  0.00  0.00     0.091 C 
ENDROOT
BRANCH   1   7
ATOM      7  O   LIG d   1       0.795  76.634 119.014  0.00  0.00    -0.368 OA
BRANCH   7   8
ATOM      8  C   LIG d   1       1.456  75.346 118.973  0.00  0.00     0.119 C 
BRANCH   8   9
ATOM      9  C   LIG d   1       0.690  74.401 119.918  0.00  0.00     0.028 C 
ATOM     10  C   LIG d   1      -0.780  74.222 119.503  0.00  0.00     0.006 C 
ENDBRANCH   8   9
BRANCH   8  11
ATOM     11  C   LIG d   1       2.875  75.429 119.545  0.00  0.00     0.028 C 
ATOM     12  C   LIG d   1       3.951  75.547 118.455  0.00  0.00     0.006 C 
ENDBRANCH   8  11
ENDBRANCH   7   8
ENDBRANCH   1   7
BRANCH   6  13
ATOM     13  N   LIG d   1      -1.377  76.663 116.925  0.00  0.00    -0.311 N 
ATOM     14  C   LIG d   1      -2.667  76.440 117.174  0.00  0.00     0.210 C 
ATOM     15  C   LIG d   1      -3.229  75.151 116.567  0.00  0.00     0.109 C 
ATOM     16  O   LIG d   1      -3.406  77.204 117.813  0.00  0.00    -0.276 OA
ATOM     17  H   LIG d   1      -0.862  76.007 116.372  0.00  0.00     0.149 HD
ENDBRANCH   6  13
BRANCH   5  18
ATOM     18  N   LIG d   1      -1.978  79.560 116.167  0.00  0.00     0.381 N 
ATOM     19  H   LIG d   1      -2.664  78.846 116.308  0.00  0.00    -0.090 HD
ATOM     20  H   LIG d   1      -2.026  79.859 115.208  0.00  0.00    -0.090 HD
ATOM     21  H   LIG d   1      -2.160  80.331 116.772  0.00  0.00    -0.090 HD
ENDBRANCH   5  18
BRANCH   3  22
ATOM     22  C   LIG d   1       2.536  80.649 117.340  0.00  0.00     0.382 C 
ATOM     23  O   LIG d   1       2.572  81.489 116.409  0.00  0.00    -0.241 OA
ATOM     24  O   LIG d   1       3.466  80.611 118.168  0.00  0.00    -0.241 OA
ENDBRANCH   3  22
TORSDOF 7
ENDMDL
MODEL 9
REMARK VINA RESULT:      -3.8      3.610      6.935
REMARK  7 active torsions:
REMARK  status: ('A' for Active; 'I' for Inactive)
REMARK    1  A    between atoms: C_2  and  C_3 
REMARK    2  A    between atoms: C_3  and  O_6 
REMARK    3  A    between atoms: C_3  and  C_4 
REMARK    4  A    between atoms: C_7  and  O_6 
REMARK    5  A    between atoms: C_9  and  C_10 
REMARK    6  A    between atoms: N_15  and  C_14 
REMARK    7  A    between atoms: N_20  and  C_19 
REMARK       I    between atoms: C_22  and  N_20 
ROOT
ATOM      1  C   LIG d   1      -1.723  78.273 112.954  0.00  0.00     0.161 C 
ATOM      2  C   LIG d   1      -1.920  77.016 113.549  0.00  0.00     0.016 C 
ATOM      3  C   LIG d   1      -2.177  76.840 114.928  0.00  0.00     0.038 C 
ATOM      4  C   LIG d   1      -2.405  77.927 115.785  0.00  0.00     0.028 C 
ATOM      5  C   LIG d   1      -1.718  79.210 115.331  0.00  0.00    -0.047 C 
ATOM      6  C   LIG d   1      -2.078  79.476 113.851  0.00  0.00     0.091 C 
ENDROOT
BRANCH   1   7
ATOM      7  O   LIG d   1      -2.448  78.344 111.710  0.00  0.00    -0.368 OA
BRANCH   7   8
ATOM      8  C   LIG d   1      -1.653  78.261 110.502  0.00  0.00     0.119 C 
BRANCH   8   9
ATOM      9  C   LIG d   1      -1.173  76.803 110.364  0.00  0.00     0.028 C 
ATOM     10  C   LIG d   1       0.340  76.705 110.104  0.00  0.00     0.006 C 
ENDBRANCH   8   9
BRANCH   8  11
ATOM     11  C   LIG d   1      -0.376  79.099 110.618  0.00  0.00     0.028 C 
ATOM     12  C   LIG d   1      -0.184  80.058 109.432  0.00  0.00     0.006 C 
ENDBRANCH   8  11
ENDBRANCH   7   8
ENDBRANCH   1   7
BRANCH   6  13
ATOM     13  N   LIG d   1      -1.380  80.668 113.303  0.00  0.00    -0.311 N 
ATOM     14  C   LIG d   1      -2.006  81.659 112.670  0.00  0.00     0.210 C 
ATOM     15  C   LIG d   1      -1.095  82.783 112.167  0.00  0.00     0.109 C 
ATOM     16  O   LIG d   1      -3.234  81.728 112.506  0.00  0.00    -0.276 OA
ATOM     17  H   LIG d   1      -0.386  80.708 113.420  0.00  0.00     0.149 HD
ENDBRANCH   6  13
BRANCH   5  18
ATOM     18  N   LIG d   1      -2.151  80.292 116.235  0.00  0.00     0.381 N 
ATOM     19  H   LIG d   1      -1.881  80.077 117.174  0.00  0.00    -0.090 HD
ATOM     20  H   LIG d   1      -3.153  80.361 116.203  0.00  0.00    -0.090 HD
ATOM     21  H   LIG d   1      -1.742  81.156 115.954  0.00  0.00    -0.090 HD
ENDBRANCH   5  18
BRANCH   3  22
ATOM     22  C   LIG d   1      -2.167  75.564 115.471  0.00  0.00     0.382 C 
ATOM     23  O   LIG d   1      -1.439  74.674 114.969  0.00  0.00    -0.241 OA
ATOM     24  O   LIG d   1      -2.911  75.280 116.429  0.00  0.00    -0.241 OA
ENDBRANCH   3  22
TORSDOF 7
ENDMDL
