MODEL 1
REMARK VINA RESULT:      -4.7      0.000      0.000
REMARK  7 active torsions:
REMARK  status: ('A' for Active; 'I' for Inactive)
REMARK    1  A    between atoms: C_2  and  C_3 
REMARK    2  A    between atoms: C_3  and  O_6 
REMARK    3  A    between atoms: C_3  and  C_4 
REMARK    4  A    between atoms: C_7  and  O_6 
REMARK    5  A    between atoms: C_9  and  C_10 
REMARK    6  A    between atoms: N_15  and  C_14 
REMARK    7  A    between atoms: N_20  and  C_19 
REMARK       I    between atoms: C_22  and  N_20 
ROOT
ATOM      1  C   LIG d   1       1.072  82.026 112.237  0.00  0.00     0.161 C 
ATOM      2  C   LIG d   1      -0.263  81.758 112.582  0.00  0.00     0.016 C 
ATOM      3  C   LIG d   1      -1.024  80.718 111.999  0.00  0.00     0.038 C 
ATOM      4  C   LIG d   1      -0.450  79.774 111.135  0.00  0.00     0.028 C 
ATOM      5  C   LIG d   1       0.758  80.307 110.372  0.00  0.00    -0.047 C 
ATOM      6  C   LIG d   1       1.749  80.937 111.378  0.00  0.00     0.091 C 
ENDROOT
BRANCH   1   7
ATOM      7  O   LIG d   1       1.844  82.276 113.428  0.00  0.00    -0.368 OA
BRANCH   7   8
ATOM      8  C   LIG d   1       1.385  83.363 114.268  0.00  0.00     0.119 C 
BRANCH   8   9
ATOM      9  C   LIG d   1       1.851  84.680 113.617  0.00  0.00     0.028 C 
ATOM     10  C   LIG d   1       3.325  84.630 113.184  0.00  0.00     0.006 C 
ENDBRANCH   8   9
BRANCH   8  11
ATOM     11  C   LIG d   1       2.060  83.329 115.642  0.00  0.00     0.028 C 
ATOM     12  C   LIG d   1       2.013  81.938 116.295  0.00  0.00     0.006 C 
ENDBRANCH   8  11
ENDBRANCH   7   8
ENDBRANCH   1   7
BRANCH   6  13
ATOM     13  N   LIG d   1       2.920  81.558 110.706  0.00  0.00    -0.311 N 
ATOM     14  C   LIG d   1       2.866  82.728 110.071  0.00  0.00     0.210 C 
ATOM     15  C   LIG d   1       4.183  83.177 109.431  0.00  0.00     0.109 C 
ATOM     16  O   LIG d   1       1.861  83.452 110.006  0.00  0.00    -0.276 OA
ATOM     17  H   LIG d   1       3.784  81.054 110.737  0.00  0.00     0.149 HD
ENDBRANCH   6  13
BRANCH   5  18
ATOM     18  N   LIG d   1       1.340  79.182 109.616  0.00  0.00     0.381 N 
ATOM     19  H   LIG d   1       0.952  79.157 108.694  0.00  0.00    -0.090 HD
ATOM     20  H   LIG d   1       1.105  78.322 110.080  0.00  0.00    -0.090 HD
ATOM     21  H   LIG d   1       2.330  79.281 109.565  0.00  0.00    -0.090 HD
ENDBRANCH   5  18
BRANCH   3  22
ATOM     22  C   LIG d   1      -2.386  80.639 112.249  0.00  0.00     0.382 C 
ATOM     23  O   LIG d   1      -3.055  81.688 112.411  0.00  0.00    -0.241 OA
ATOM     24  O   LIG d   1      -2.945  79.532 112.359  0.00  0.00    -0.241 OA
ENDBRANCH   3  22
TORSDOF 7
ENDMDL
MODEL 2
REMARK VINA RESULT:      -4.4      5.479      6.575
REMARK  7 active torsions:
REMARK  status: ('A' for Active; 'I' for Inactive)
REMARK    1  A    between atoms: C_2  and  C_3 
REMARK    2  A    between atoms: C_3  and  O_6 
REMARK    3  A    between atoms: C_3  and  C_4 
REMARK    4  A    between atoms: C_7  and  O_6 
REMARK    5  A    between atoms: C_9  and  C_10 
REMARK    6  A    between atoms: N_15  and  C_14 
REMARK    7  A    between atoms: N_20  and  C_19 
REMARK       I    between atoms: C_22  and  N_20 
ROOT
ATOM      1  C   LIG d   1      -0.227  78.187 116.068  0.00  0.00     0.161 C 
ATOM      2  C   LIG d   1      -1.261  78.541 115.186  0.00  0.00     0.016 C 
ATOM      3  C   LIG d   1      -1.894  77.620 114.319  0.00  0.00     0.038 C 
ATOM      4  C   LIG d   1      -1.636  76.243 114.385  0.00  0.00     0.028 C 
ATOM      5  C   LIG d   1      -0.241  75.912 114.905  0.00  0.00    -0.047 C 
ATOM      6  C   LIG d   1      -0.009  76.668 116.233  0.00  0.00     0.091 C 
ENDROOT
BRANCH   1   7
ATOM      7  O   LIG d   1      -0.447  78.804 117.352  0.00  0.00    -0.368 OA
BRANCH   7   8
ATOM      8  C   LIG d   1       0.205  80.080 117.566  0.00  0.00     0.119 C 
BRANCH   8   9
ATOM      9  C   LIG d   1       1.477  79.815 118.395  0.00  0.00     0.028 C 
ATOM     10  C   LIG d   1       2.753  79.850 117.537  0.00  0.00     0.006 C 
ENDBRANCH   8   9
BRANCH   8  11
ATOM     11  C   LIG d   1      -0.656  81.007 118.430  0.00  0.00     0.028 C 
ATOM     12  C   LIG d   1      -0.106  82.441 118.495  0.00  0.00     0.006 C 
ENDBRANCH   8  11
ENDBRANCH   7   8
ENDBRANCH   1   7
BRANCH   6  13
ATOM     13  N   LIG d   1       1.363  76.467 116.767  0.00  0.00    -0.311 N 
ATOM     14  C   LIG d   1       1.619  76.193 118.046  0.00  0.00     0.210 C 
ATOM     15  C   LIG d   1       3.104  76.042 118.390  0.00  0.00     0.109 C 
ATOM     16  O   LIG d   1       0.755  76.028 118.920  0.00  0.00    -0.276 OA
ATOM     17  H   LIG d   1       2.122  76.551 116.120  0.00  0.00     0.149 HD
ENDBRANCH   6  13
BRANCH   5  18
ATOM     18  N   LIG d   1      -0.157  74.446 115.052  0.00  0.00     0.381 N 
ATOM     19  H   LIG d   1      -1.060  74.075 115.270  0.00  0.00    -0.090 HD
ATOM     20  H   LIG d   1       0.464  74.231 115.813  0.00  0.00    -0.090 HD
ATOM     21  H   LIG d   1       0.184  74.038 114.210  0.00  0.00    -0.090 HD
ENDBRANCH   5  18
BRANCH   3  22
ATOM     22  C   LIG d   1      -2.767  78.081 113.346  0.00  0.00     0.382 C 
ATOM     23  O   LIG d   1      -3.093  79.292 113.319  0.00  0.00    -0.241 OA
ATOM     24  O   LIG d   1      -3.268  77.293 112.522  0.00  0.00    -0.241 OA
ENDBRANCH   3  22
TORSDOF 7
ENDMDL
MODEL 3
REMARK VINA RESULT:      -4.3      5.836      7.325
REMARK  7 active torsions:
REMARK  status: ('A' for Active; 'I' for Inactive)
REMARK    1  A    between atoms: C_2  and  C_3 
REMARK    2  A    between atoms: C_3  and  O_6 
REMARK    3  A    between atoms: C_3  and  C_4 
REMARK    4  A    between atoms: C_7  and  O_6 
REMARK    5  A    between atoms: C_9  and  C_10 
REMARK    6  A    between atoms: N_15  and  C_14 
REMARK    7  A    between atoms: N_20  and  C_19 
REMARK       I    between atoms: C_22  and  N_20 
ROOT
ATOM      1  C   LIG d   1       0.460  77.397 117.031  0.00  0.00     0.161 C 
ATOM      2  C   LIG d   1       0.524  76.341 116.106  0.00  0.00     0.016 C 
ATOM      3  C   LIG d   1      -0.264  76.286 114.934  0.00  0.00     0.038 C 
ATOM      4  C   LIG d   1      -1.066  77.363 114.528  0.00  0.00     0.028 C 
ATOM      5  C   LIG d   1      -1.545  78.232 115.686  0.00  0.00    -0.047 C 
ATOM      6  C   LIG d   1      -0.327  78.633 116.549  0.00  0.00     0.091 C 
ENDROOT
BRANCH   1   7
ATOM      7  O   LIG d   1       1.791  77.776 117.433  0.00  0.00    -0.368 OA
BRANCH   7   8
ATOM      8  C   LIG d   1       2.825  76.781 117.232  0.00  0.00     0.119 C 
BRANCH   8   9
ATOM      9  C   LIG d   1       3.180  76.196 118.613  0.00  0.00     0.028 C 
ATOM     10  C   LIG d   1       4.492  75.395 118.591  0.00  0.00     0.006 C 
ENDBRANCH   8   9
BRANCH   8  11
ATOM     11  C   LIG d   1       4.119  77.418 116.717  0.00  0.00     0.028 C 
ATOM     12  C   LIG d   1       4.198  78.926 117.007  0.00  0.00     0.006 C 
ENDBRANCH   8  11
ENDBRANCH   7   8
ENDBRANCH   1   7
BRANCH   6  13
ATOM     13  N   LIG d   1      -0.718  79.415 117.751  0.00  0.00    -0.311 N 
ATOM     14  C   LIG d   1      -0.317  80.665 117.975  0.00  0.00     0.210 C 
ATOM     15  C   LIG d   1      -0.818  81.280 119.285  0.00  0.00     0.109 C 
ATOM     16  O   LIG d   1       0.380  81.334 117.197  0.00  0.00    -0.276 OA
ATOM     17  H   LIG d   1      -1.308  78.959 118.420  0.00  0.00     0.149 HD
ENDBRANCH   6  13
BRANCH   5  18
ATOM     18  N   LIG d   1      -2.253  79.391 115.110  0.00  0.00     0.381 N 
ATOM     19  H   LIG d   1      -3.157  79.110 114.788  0.00  0.00    -0.090 HD
ATOM     20  H   LIG d   1      -1.730  79.733 114.323  0.00  0.00    -0.090 HD
ATOM     21  H   LIG d   1      -2.344  80.109 115.795  0.00  0.00    -0.090 HD
ENDBRANCH   5  18
BRANCH   3  22
ATOM     22  C   LIG d   1      -0.285  75.126 114.174  0.00  0.00     0.382 C 
ATOM     23  O   LIG d   1       0.789  74.636 113.748  0.00  0.00    -0.241 OA
ATOM     24  O   LIG d   1      -1.367  74.588 113.872  0.00  0.00    -0.241 OA
ENDBRANCH   3  22
TORSDOF 7
ENDMDL
MODEL 4
REMARK VINA RESULT:      -4.3      5.720      7.072
REMARK  7 active torsions:
REMARK  status: ('A' for Active; 'I' for Inactive)
REMARK    1  A    between atoms: C_2  and  C_3 
REMARK    2  A    between atoms: C_3  and  O_6 
REMARK    3  A    between atoms: C_3  and  C_4 
REMARK    4  A    between atoms: C_7  and  O_6 
REMARK    5  A    between atoms: C_9  and  C_10 
REMARK    6  A    between atoms: N_15  and  C_14 
REMARK    7  A    between atoms: N_20  and  C_19 
REMARK       I    between atoms: C_22  and  N_20 
ROOT
ATOM      1  C   LIG d   1      -0.116  78.170 116.273  0.00  0.00     0.161 C 
ATOM      2  C   LIG d   1      -1.193  78.567 115.463  0.00  0.00     0.016 C 
ATOM      3  C   LIG d   1      -1.860  77.695 114.573  0.00  0.00     0.038 C 
ATOM      4  C   LIG d   1      -1.590  76.318 114.542  0.00  0.00     0.028 C 
ATOM      5  C   LIG d   1      -0.170  75.969 114.976  0.00  0.00    -0.047 C 
ATOM      6  C   LIG d   1       0.120  76.647 116.335  0.00  0.00     0.091 C 
ENDROOT
BRANCH   1   7
ATOM      7  O   LIG d   1      -0.280  78.706 117.601  0.00  0.00    -0.368 OA
BRANCH   7   8
ATOM      8  C   LIG d   1      -1.643  78.949 118.027  0.00  0.00     0.119 C 
BRANCH   8   9
ATOM      9  C   LIG d   1      -1.643  80.243 118.863  0.00  0.00     0.028 C 
ATOM     10  C   LIG d   1      -0.522  81.211 118.447  0.00  0.00     0.006 C 
ENDBRANCH   8   9
BRANCH   8  11
ATOM     11  C   LIG d   1      -2.133  77.852 118.978  0.00  0.00     0.028 C 
ATOM     12  C   LIG d   1      -3.049  76.830 118.286  0.00  0.00     0.006 C 
ENDBRANCH   8  11
ENDBRANCH   7   8
ENDBRANCH   1   7
BRANCH   6  13
ATOM     13  N   LIG d   1       1.517  76.426 116.791  0.00  0.00    -0.311 N 
ATOM     14  C   LIG d   1       1.839  76.131 118.050  0.00  0.00     0.210 C 
ATOM     15  C   LIG d   1       3.339  75.963 118.311  0.00  0.00     0.109 C 
ATOM     16  O   LIG d   1       1.022  75.960 118.967  0.00  0.00    -0.276 OA
ATOM     17  H   LIG d   1       2.240  76.514 116.105  0.00  0.00     0.149 HD
ENDBRANCH   6  13
BRANCH   5  18
ATOM     18  N   LIG d   1      -0.069  74.499 115.029  0.00  0.00     0.381 N 
ATOM     19  H   LIG d   1       0.095  74.205 115.971  0.00  0.00    -0.090 HD
ATOM     20  H   LIG d   1       0.710  74.206 114.467  0.00  0.00    -0.090 HD
ATOM     21  H   LIG d   1      -0.909  74.087 114.686  0.00  0.00    -0.090 HD
ENDBRANCH   5  18
BRANCH   3  22
ATOM     22  C   LIG d   1      -2.781  78.205 113.671  0.00  0.00     0.382 C 
ATOM     23  O   LIG d   1      -3.056  79.429 113.681  0.00  0.00    -0.241 OA
ATOM     24  O   LIG d   1      -3.374  77.450 112.878  0.00  0.00    -0.241 OA
ENDBRANCH   3  22
TORSDOF 7
ENDMDL
MODEL 5
REMARK VINA RESULT:      -4.2      5.420      7.261
REMARK  7 active torsions:
REMARK  status: ('A' for Active; 'I' for Inactive)
REMARK    1  A    between atoms: C_2  and  C_3 
REMARK    2  A    between atoms: C_3  and  O_6 
REMARK    3  A    between atoms: C_3  and  C_4 
REMARK    4  A    between atoms: C_7  and  O_6 
REMARK    5  A    between atoms: C_9  and  C_10 
REMARK    6  A    between atoms: N_15  and  C_14 
REMARK    7  A    between atoms: N_20  and  C_19 
REMARK       I    between atoms: C_22  and  N_20 
ROOT
ATOM      1  C   LIG d   1      -1.149  78.044 117.451  0.00  0.00     0.161 C 
ATOM      2  C   LIG d   1      -1.782  76.885 116.972  0.00  0.00     0.016 C 
ATOM      3  C   LIG d   1      -2.008  76.632 115.599  0.00  0.00     0.038 C 
ATOM      4  C   LIG d   1      -1.479  77.457 114.596  0.00  0.00     0.028 C 
ATOM      5  C   LIG d   1      -1.270  78.900 115.046  0.00  0.00    -0.047 C 
ATOM      6  C   LIG d   1      -0.466  78.903 116.366  0.00  0.00     0.091 C 
ENDROOT
BRANCH   1   7
ATOM      7  O   LIG d   1      -0.205  77.695 118.482  0.00  0.00    -0.368 OA
BRANCH   7   8
ATOM      8  C   LIG d   1       0.627  76.538 118.219  0.00  0.00     0.119 C 
BRANCH   8   9
ATOM      9  C   LIG d   1       0.443  75.559 119.395  0.00  0.00     0.028 C 
ATOM     10  C   LIG d   1      -0.130  74.204 118.946  0.00  0.00     0.006 C 
ENDBRANCH   8   9
BRANCH   8  11
ATOM     11  C   LIG d   1       2.113  76.907 118.228  0.00  0.00     0.028 C 
ATOM     12  C   LIG d   1       2.772  76.759 116.847  0.00  0.00     0.006 C 
ENDBRANCH   8  11
ENDBRANCH   7   8
ENDBRANCH   1   7
BRANCH   6  13
ATOM     13  N   LIG d   1      -0.290  80.271 116.920  0.00  0.00    -0.311 N 
ATOM     14  C   LIG d   1       0.897  80.786 117.236  0.00  0.00     0.210 C 
ATOM     15  C   LIG d   1       0.852  82.206 117.811  0.00  0.00     0.109 C 
ATOM     16  O   LIG d   1       1.984  80.216 117.065  0.00  0.00    -0.276 OA
ATOM     17  H   LIG d   1      -1.118  80.815 117.061  0.00  0.00     0.149 HD
ENDBRANCH   6  13
BRANCH   5  18
ATOM     18  N   LIG d   1      -0.587  79.614 113.951  0.00  0.00     0.381 N 
ATOM     19  H   LIG d   1      -0.468  79.001 113.169  0.00  0.00    -0.090 HD
ATOM     20  H   LIG d   1       0.322  79.901 114.267  0.00  0.00    -0.090 HD
ATOM     21  H   LIG d   1      -1.119  80.411 113.679  0.00  0.00    -0.090 HD
ENDBRANCH   5  18
BRANCH   3  22
ATOM     22  C   LIG d   1      -2.807  75.564 115.220  0.00  0.00     0.382 C 
ATOM     23  O   LIG d   1      -2.932  75.275 114.005  0.00  0.00    -0.241 OA
ATOM     24  O   LIG d   1      -3.439  74.914 116.073  0.00  0.00    -0.241 OA
ENDBRANCH   3  22
TORSDOF 7
ENDMDL
MODEL 6
REMARK VINA RESULT:      -3.9      6.032      7.564
REMARK  7 active torsions:
REMARK  status: ('A' for Active; 'I' for Inactive)
REMARK    1  A    between atoms: C_2  and  C_3 
REMARK    2  A    between atoms: C_3  and  O_6 
REMARK    3  A    between atoms: C_3  and  C_4 
REMARK    4  A    between atoms: C_7  and  O_6 
REMARK    5  A    between atoms: C_9  and  C_10 
REMARK    6  A    between atoms: N_15  and  C_14 
REMARK    7  A    between atoms: N_20  and  C_19 
REMARK       I    between atoms: C_22  and  N_20 
ROOT
ATOM      1  C   LIG d   1       1.079  78.009 116.852  0.00  0.00     0.161 C 
ATOM      2  C   LIG d   1       0.805  79.151 117.622  0.00  0.00     0.016 C 
ATOM      3  C   LIG d   1      -0.458  79.784 117.653  0.00  0.00     0.038 C 
ATOM      4  C   LIG d   1      -1.583  79.226 117.028  0.00  0.00     0.028 C 
ATOM      5  C   LIG d   1      -1.237  78.351 115.828  0.00  0.00    -0.047 C 
ATOM      6  C   LIG d   1      -0.164  77.321 116.250  0.00  0.00     0.091 C 
ENDROOT
BRANCH   1   7
ATOM      7  O   LIG d   1       1.846  77.068 117.628  0.00  0.00    -0.368 OA
BRANCH   7   8
ATOM      8  C   LIG d   1       3.206  76.835 117.186  0.00  0.00     0.119 C 
BRANCH   8   9
ATOM      9  C   LIG d   1       3.853  75.850 118.179  0.00  0.00     0.028 C 
ATOM     10  C   LIG d   1       2.843  75.293 119.196  0.00  0.00     0.006 C 
ENDBRANCH   8   9
BRANCH   8  11
ATOM     11  C   LIG d   1       4.047  78.111 117.275  0.00  0.00     0.028 C 
ATOM     12  C   LIG d   1       5.038  78.255 116.108  0.00  0.00     0.006 C 
ENDBRANCH   8  11
ENDBRANCH   7   8
ENDBRANCH   1   7
BRANCH   6  13
ATOM     13  N   LIG d   1       0.293  76.480 115.114  0.00  0.00    -0.311 N 
ATOM     14  C   LIG d   1      -0.240  75.295 114.818  0.00  0.00     0.210 C 
ATOM     15  C   LIG d   1       0.393  74.584 113.617  0.00  0.00     0.109 C 
ATOM     16  O   LIG d   1      -1.197  74.781 115.415  0.00  0.00    -0.276 OA
ATOM     17  H   LIG d   1       1.045  76.835 114.557  0.00  0.00     0.149 HD
ENDBRANCH   6  13
BRANCH   5  18
ATOM     18  N   LIG d   1      -2.487  77.724 115.358  0.00  0.00     0.381 N 
ATOM     19  H   LIG d   1      -3.143  77.671 116.111  0.00  0.00    -0.090 HD
ATOM     20  H   LIG d   1      -2.285  76.790 115.049  0.00  0.00    -0.090 HD
ATOM     21  H   LIG d   1      -2.873  78.254 114.608  0.00  0.00    -0.090 HD
ENDBRANCH   5  18
BRANCH   3  22
ATOM     22  C   LIG d   1      -0.597  81.012 118.283  0.00  0.00     0.382 C 
ATOM     23  O   LIG d   1      -1.388  81.136 119.249  0.00  0.00    -0.241 OA
ATOM     24  O   LIG d   1       0.026  82.008 117.869  0.00  0.00    -0.241 OA
ENDBRANCH   3  22
TORSDOF 7
ENDMDL
MODEL 7
REMARK VINA RESULT:      -3.8      6.187      8.537
REMARK  7 active torsions:
REMARK  status: ('A' for Active; 'I' for Inactive)
REMARK    1  A    between atoms: C_2  and  C_3 
REMARK    2  A    between atoms: C_3  and  O_6 
REMARK    3  A    between atoms: C_3  and  C_4 
REMARK    4  A    between atoms: C_7  and  O_6 
REMARK    5  A    between atoms: C_9  and  C_10 
REMARK    6  A    between atoms: N_15  and  C_14 
REMARK    7  A    between atoms: N_20  and  C_19 
REMARK       I    between atoms: C_22  and  N_20 
ROOT
ATOM      1  C   LIG d   1       0.463  76.769 116.716  0.00  0.00     0.161 C 
ATOM      2  C   LIG d   1       1.854  76.577 116.687  0.00  0.00     0.016 C 
ATOM      3  C   LIG d   1       2.777  77.483 117.259  0.00  0.00     0.038 C 
ATOM      4  C   LIG d   1       2.361  78.574 118.036  0.00  0.00     0.028 C 
ATOM      5  C   LIG d   1       0.972  79.086 117.667  0.00  0.00    -0.047 C 
ATOM      6  C   LIG d   1      -0.015  77.896 117.656  0.00  0.00     0.091 C 
ENDROOT
BRANCH   1   7
ATOM      7  O   LIG d   1      -0.195  75.530 117.046  0.00  0.00    -0.368 OA
BRANCH   7   8
ATOM      8  C   LIG d   1      -0.984  74.927 115.992  0.00  0.00     0.119 C 
BRANCH   8   9
ATOM      9  C   LIG d   1      -0.557  75.580 114.663  0.00  0.00     0.028 C 
ATOM     10  C   LIG d   1       0.276  74.631 113.784  0.00  0.00     0.006 C 
ENDBRANCH   8   9
BRANCH   8  11
ATOM     11  C   LIG d   1      -2.471  75.261 116.148  0.00  0.00     0.028 C 
ATOM     12  C   LIG d   1      -3.137  75.651 114.819  0.00  0.00     0.006 C 
ENDBRANCH   8  11
ENDBRANCH   7   8
ENDBRANCH   1   7
BRANCH   6  13
ATOM     13  N   LIG d   1      -1.379  78.296 117.223  0.00  0.00    -0.311 N 
ATOM     14  C   LIG d   1      -1.629  78.922 116.074  0.00  0.00     0.210 C 
ATOM     15  C   LIG d   1      -3.103  79.261 115.830  0.00  0.00     0.109 C 
ATOM     16  O   LIG d   1      -0.775  79.201 115.220  0.00  0.00    -0.276 OA
ATOM     17  H   LIG d   1      -2.136  78.080 117.842  0.00  0.00     0.149 HD
ENDBRANCH   6  13
BRANCH   5  18
ATOM     18  N   LIG d   1       0.608  80.131 118.643  0.00  0.00     0.381 N 
ATOM     19  H   LIG d   1       1.028  79.928 119.528  0.00  0.00    -0.090 HD
ATOM     20  H   LIG d   1      -0.390  80.132 118.760  0.00  0.00    -0.090 HD
ATOM     21  H   LIG d   1       0.913  81.022 118.318  0.00  0.00    -0.090 HD
ENDBRANCH   5  18
BRANCH   3  22
ATOM     22  C   LIG d   1       4.134  77.323 117.021  0.00  0.00     0.382 C 
ATOM     23  O   LIG d   1       4.632  77.719 115.940  0.00  0.00    -0.241 OA
ATOM     24  O   LIG d   1       4.858  76.748 117.855  0.00  0.00    -0.241 OA
ENDBRANCH   3  22
TORSDOF 7
ENDMDL
MODEL 8
REMARK VINA RESULT:      -3.7      5.683      7.821
REMARK  7 active torsions:
REMARK  status: ('A' for Active; 'I' for Inactive)
REMARK    1  A    between atoms: C_2  and  C_3 
REMARK    2  A    between atoms: C_3  and  O_6 
REMARK    3  A    between atoms: C_3  and  C_4 
REMARK    4  A    between atoms: C_7  and  O_6 
REMARK    5  A    between atoms: C_9  and  C_10 
REMARK    6  A    between atoms: N_15  and  C_14 
REMARK    7  A    between atoms: N_20  and  C_19 
REMARK       I    between atoms: C_22  and  N_20 
ROOT
ATOM      1  C   LIG d   1       1.516  78.330 118.724  0.00  0.00     0.161 C 
ATOM      2  C   LIG d   1       2.836  77.916 118.968  0.00  0.00     0.016 C 
ATOM      3  C   LIG d   1       3.550  77.045 118.113  0.00  0.00     0.038 C 
ATOM      4  C   LIG d   1       3.039  76.645 116.869  0.00  0.00     0.028 C 
ATOM      5  C   LIG d   1       1.515  76.631 116.816  0.00  0.00    -0.047 C 
ATOM      6  C   LIG d   1       0.983  77.993 117.316  0.00  0.00     0.091 C 
ENDROOT
BRANCH   1   7
ATOM      7  O   LIG d   1       1.391  79.742 118.983  0.00  0.00    -0.368 OA
BRANCH   7   8
ATOM      8  C   LIG d   1       1.876  80.626 117.942  0.00  0.00     0.119 C 
BRANCH   8   9
ATOM      9  C   LIG d   1       3.132  81.335 118.485  0.00  0.00     0.028 C 
ATOM     10  C   LIG d   1       4.409  80.923 117.734  0.00  0.00     0.006 C 
ENDBRANCH   8   9
BRANCH   8  11
ATOM     11  C   LIG d   1       0.873  81.746 117.650  0.00  0.00     0.028 C 
ATOM     12  C   LIG d   1      -0.341  81.720 118.592  0.00  0.00     0.006 C 
ENDBRANCH   8  11
ENDBRANCH   7   8
ENDBRANCH   1   7
BRANCH   6  13
ATOM     13  N   LIG d   1      -0.502  78.034 117.376  0.00  0.00    -0.311 N 
ATOM     14  C   LIG d   1      -1.248  78.773 116.557  0.00  0.00     0.210 C 
ATOM     15  C   LIG d   1      -2.758  78.685 116.803  0.00  0.00     0.109 C 
ATOM     16  O   LIG d   1      -0.805  79.468 115.631  0.00  0.00    -0.276 OA
ATOM     17  H   LIG d   1      -0.945  77.475 118.078  0.00  0.00     0.149 HD
ENDBRANCH   6  13
BRANCH   5  18
ATOM     18  N   LIG d   1       1.121  76.330 115.427  0.00  0.00     0.381 N 
ATOM     19  H   LIG d   1       0.993  75.344 115.317  0.00  0.00    -0.090 HD
ATOM     20  H   LIG d   1       1.857  76.624 114.809  0.00  0.00    -0.090 HD
ATOM     21  H   LIG d   1       0.277  76.809 115.201  0.00  0.00    -0.090 HD
ENDBRANCH   5  18
BRANCH   3  22
ATOM     22  C   LIG d   1       4.772  76.532 118.520  0.00  0.00     0.382 C 
ATOM     23  O   LIG d   1       5.753  77.299 118.677  0.00  0.00    -0.241 OA
ATOM     24  O   LIG d   1       4.919  75.307 118.688  0.00  0.00    -0.241 OA
ENDBRANCH   3  22
TORSDOF 7
ENDMDL
MODEL 9
REMARK VINA RESULT:      -3.6      5.713      7.650
REMARK  7 active torsions:
REMARK  status: ('A' for Active; 'I' for Inactive)
REMARK    1  A    between atoms: C_2  and  C_3 
REMARK    2  A    between atoms: C_3  and  O_6 
REMARK    3  A    between atoms: C_3  and  C_4 
REMARK    4  A    between atoms: C_7  and  O_6 
REMARK    5  A    between atoms: C_9  and  C_10 
REMARK    6  A    between atoms: N_15  and  C_14 
REMARK    7  A    between atoms: N_20  and  C_19 
REMARK       I    between atoms: C_22  and  N_20 
ROOT
ATOM      1  C   LIG d   1       2.713  80.005 117.992  0.00  0.00     0.161 C 
ATOM      2  C   LIG d   1       4.116  79.976 117.931  0.00  0.00     0.016 C 
ATOM      3  C   LIG d   1       4.851  78.883 117.416  0.00  0.00     0.038 C 
ATOM      4  C   LIG d   1       4.222  77.800 116.783  0.00  0.00     0.028 C 
ATOM      5  C   LIG d   1       2.800  77.554 117.274  0.00  0.00    -0.047 C 
ATOM      6  C   LIG d   1       2.008  78.880 117.205  0.00  0.00     0.091 C 
ENDROOT
BRANCH   1   7
ATOM      7  O   LIG d   1       2.232  81.294 117.563  0.00  0.00    -0.368 OA
BRANCH   7   8
ATOM      8  C   LIG d   1       1.744  82.172 118.608  0.00  0.00     0.119 C 
BRANCH   8   9
ATOM      9  C   LIG d   1       0.262  82.469 118.308  0.00  0.00     0.028 C 
ATOM     10  C   LIG d   1      -0.111  83.935 118.588  0.00  0.00     0.006 C 
ENDBRANCH   8   9
BRANCH   8  11
ATOM     11  C   LIG d   1       2.447  83.532 118.565  0.00  0.00     0.028 C 
ATOM     12  C   LIG d   1       3.460  83.643 117.415  0.00  0.00     0.006 C 
ENDBRANCH   8  11
ENDBRANCH   7   8
ENDBRANCH   1   7
BRANCH   6  13
ATOM     13  N   LIG d   1       0.631  78.747 117.747  0.00  0.00    -0.311 N 
ATOM     14  C   LIG d   1      -0.456  79.156 117.095  0.00  0.00     0.210 C 
ATOM     15  C   LIG d   1      -1.776  78.943 117.841  0.00  0.00     0.109 C 
ATOM     16  O   LIG d   1      -0.455  79.646 115.955  0.00  0.00    -0.276 OA
ATOM     17  H   LIG d   1       0.535  78.332 118.653  0.00  0.00     0.149 HD
ENDBRANCH   6  13
BRANCH   5  18
ATOM     18  N   LIG d   1       2.217  76.489 116.436  0.00  0.00     0.381 N 
ATOM     19  H   LIG d   1       2.939  75.869 116.126  0.00  0.00    -0.090 HD
ATOM     20  H   LIG d   1       1.791  76.907 115.628  0.00  0.00    -0.090 HD
ATOM     21  H   LIG d   1       1.535  75.981 116.955  0.00  0.00    -0.090 HD
ENDBRANCH   5  18
BRANCH   3  22
ATOM     22  C   LIG d   1       6.229  78.849 117.567  0.00  0.00     0.382 C 
ATOM     23  O   LIG d   1       6.959  79.541 116.817  0.00  0.00    -0.241 OA
ATOM     24  O   LIG d   1       6.753  78.101 118.414  0.00  0.00    -0.241 OA
ENDBRANCH   3  22
TORSDOF 7
ENDMDL
