MODEL 1
REMARK VINA RESULT:      -5.4      0.000      0.000
REMARK  7 active torsions:
REMARK  status: ('A' for Active; 'I' for Inactive)
REMARK    1  A    between atoms: C_2  and  C_3 
REMARK    2  A    between atoms: C_3  and  O_6 
REMARK    3  A    between atoms: C_3  and  C_4 
REMARK    4  A    between atoms: C_7  and  O_6 
REMARK    5  A    between atoms: C_9  and  C_10 
REMARK    6  A    between atoms: N_15  and  C_14 
REMARK    7  A    between atoms: N_20  and  C_19 
REMARK       I    between atoms: C_22  and  N_20 
ROOT
ATOM      1  C   LIG d   1       0.117  80.824 111.396  0.00  0.00     0.161 C 
ATOM      2  C   LIG d   1      -0.827  79.806 111.180  0.00  0.00     0.016 C 
ATOM      3  C   LIG d   1      -1.624  79.253 112.208  0.00  0.00     0.038 C 
ATOM      4  C   LIG d   1      -1.639  79.789 113.505  0.00  0.00     0.028 C 
ATOM      5  C   LIG d   1      -0.336  80.483 113.888  0.00  0.00    -0.047 C 
ATOM      6  C   LIG d   1       0.036  81.497 112.782  0.00  0.00     0.091 C 
ENDROOT
BRANCH   1   7
ATOM      7  O   LIG d   1       0.017  81.812 110.352  0.00  0.00    -0.368 OA
BRANCH   7   8
ATOM      8  C   LIG d   1       1.132  81.881 109.430  0.00  0.00     0.119 C 
BRANCH   8   9
ATOM      9  C   LIG d   1       2.215  80.911 109.941  0.00  0.00     0.028 C 
ATOM     10  C   LIG d   1       3.578  81.598 110.126  0.00  0.00     0.006 C 
ENDBRANCH   8   9
BRANCH   8  11
ATOM     11  C   LIG d   1       1.787  83.265 109.449  0.00  0.00     0.028 C 
ATOM     12  C   LIG d   1       0.784  84.395 109.731  0.00  0.00     0.006 C 
ENDBRANCH   8  11
ENDBRANCH   7   8
ENDBRANCH   1   7
BRANCH   6  13
ATOM     13  N   LIG d   1       1.341  82.160 113.037  0.00  0.00    -0.311 N 
ATOM     14  C   LIG d   1       1.475  83.475 113.204  0.00  0.00     0.210 C 
ATOM     15  C   LIG d   1       2.912  83.954 113.435  0.00  0.00     0.109 C 
ATOM     16  O   LIG d   1       0.537  84.286 113.215  0.00  0.00    -0.276 OA
ATOM     17  H   LIG d   1       2.151  81.573 113.074  0.00  0.00     0.149 HD
ENDBRANCH   6  13
BRANCH   5  18
ATOM     18  N   LIG d   1      -0.537  81.113 115.206  0.00  0.00     0.381 N 
ATOM     19  H   LIG d   1      -0.676  82.097 115.093  0.00  0.00    -0.090 HD
ATOM     20  H   LIG d   1       0.287  80.972 115.763  0.00  0.00    -0.090 HD
ATOM     21  H   LIG d   1      -1.327  80.709 115.660  0.00  0.00    -0.090 HD
ENDBRANCH   5  18
BRANCH   3  22
ATOM     22  C   LIG d   1      -2.389  78.125 111.953  0.00  0.00     0.382 C 
ATOM     23  O   LIG d   1      -3.104  78.072 110.923  0.00  0.00    -0.241 OA
ATOM     24  O   LIG d   1      -2.408  77.178 112.763  0.00  0.00    -0.241 OA
ENDBRANCH   3  22
TORSDOF 7
ENDMDL
MODEL 2
REMARK VINA RESULT:      -4.9      2.551      6.018
REMARK  7 active torsions:
REMARK  status: ('A' for Active; 'I' for Inactive)
REMARK    1  A    between atoms: C_2  and  C_3 
REMARK    2  A    between atoms: C_3  and  O_6 
REMARK    3  A    between atoms: C_3  and  C_4 
REMARK    4  A    between atoms: C_7  and  O_6 
REMARK    5  A    between atoms: C_9  and  C_10 
REMARK    6  A    between atoms: N_15  and  C_14 
REMARK    7  A    between atoms: N_20  and  C_19 
REMARK       I    between atoms: C_22  and  N_20 
ROOT
ATOM      1  C   LIG d   1       0.277  81.204 113.064  0.00  0.00     0.161 C 
ATOM      2  C   LIG d   1       1.293  82.107 112.711  0.00  0.00     0.016 C 
ATOM      3  C   LIG d   1       1.699  82.339 111.376  0.00  0.00     0.038 C 
ATOM      4  C   LIG d   1       1.009  81.789 110.286  0.00  0.00     0.028 C 
ATOM      5  C   LIG d   1       0.301  80.479 110.614  0.00  0.00    -0.047 C 
ATOM      6  C   LIG d   1      -0.562  80.679 111.881  0.00  0.00     0.091 C 
ENDROOT
BRANCH   1   7
ATOM      7  O   LIG d   1      -0.579  81.796 114.061  0.00  0.00    -0.368 OA
BRANCH   7   8
ATOM      8  C   LIG d   1      -0.195  81.579 115.441  0.00  0.00     0.119 C 
BRANCH   8   9
ATOM      9  C   LIG d   1      -1.051  80.418 115.983  0.00  0.00     0.028 C 
ATOM     10  C   LIG d   1      -2.541  80.786 116.085  0.00  0.00     0.006 C 
ENDBRANCH   8   9
BRANCH   8  11
ATOM     11  C   LIG d   1      -0.549  82.786 116.315  0.00  0.00     0.028 C 
ATOM     12  C   LIG d   1       0.646  83.724 116.548  0.00  0.00     0.006 C 
ENDBRANCH   8  11
ENDBRANCH   7   8
ENDBRANCH   1   7
BRANCH   6  13
ATOM     13  N   LIG d   1      -1.223  79.422 112.320  0.00  0.00    -0.311 N 
ATOM     14  C   LIG d   1      -2.516  79.344 112.633  0.00  0.00     0.210 C 
ATOM     15  C   LIG d   1      -2.990  77.958 113.081  0.00  0.00     0.109 C 
ATOM     16  O   LIG d   1      -3.321  80.284 112.551  0.00  0.00    -0.276 OA
ATOM     17  H   LIG d   1      -0.650  78.604 112.385  0.00  0.00     0.149 HD
ENDBRANCH   6  13
BRANCH   5  18
ATOM     18  N   LIG d   1      -0.490  80.090 109.431  0.00  0.00     0.381 N 
ATOM     19  H   LIG d   1      -1.454  80.310 109.581  0.00  0.00    -0.090 HD
ATOM     20  H   LIG d   1      -0.409  79.098 109.298  0.00  0.00    -0.090 HD
ATOM     21  H   LIG d   1      -0.154  80.569 108.624  0.00  0.00    -0.090 HD
ENDBRANCH   5  18
BRANCH   3  22
ATOM     22  C   LIG d   1       2.833  83.096 111.125  0.00  0.00     0.382 C 
ATOM     23  O   LIG d   1       2.868  83.860 110.130  0.00  0.00    -0.241 OA
ATOM     24  O   LIG d   1       3.837  82.992 111.854  0.00  0.00    -0.241 OA
ENDBRANCH   3  22
TORSDOF 7
ENDMDL
MODEL 3
REMARK VINA RESULT:      -4.9      2.479      4.572
REMARK  7 active torsions:
REMARK  status: ('A' for Active; 'I' for Inactive)
REMARK    1  A    between atoms: C_2  and  C_3 
REMARK    2  A    between atoms: C_3  and  O_6 
REMARK    3  A    between atoms: C_3  and  C_4 
REMARK    4  A    between atoms: C_7  and  O_6 
REMARK    5  A    between atoms: C_9  and  C_10 
REMARK    6  A    between atoms: N_15  and  C_14 
REMARK    7  A    between atoms: N_20  and  C_19 
REMARK       I    between atoms: C_22  and  N_20 
ROOT
ATOM      1  C   LIG d   1       0.334  81.959 112.983  0.00  0.00     0.161 C 
ATOM      2  C   LIG d   1      -0.809  81.460 113.630  0.00  0.00     0.016 C 
ATOM      3  C   LIG d   1      -1.618  80.431 113.096  0.00  0.00     0.038 C 
ATOM      4  C   LIG d   1      -1.251  79.722 111.942  0.00  0.00     0.028 C 
ATOM      5  C   LIG d   1      -0.377  80.529 110.988  0.00  0.00    -0.047 C 
ATOM      6  C   LIG d   1       0.812  81.122 111.778  0.00  0.00     0.091 C 
ENDROOT
BRANCH   1   7
ATOM      7  O   LIG d   1       1.403  82.122 113.936  0.00  0.00    -0.368 OA
BRANCH   7   8
ATOM      8  C   LIG d   1       1.007  82.226 115.326  0.00  0.00     0.119 C 
BRANCH   8   9
ATOM      9  C   LIG d   1       1.215  83.691 115.757  0.00  0.00     0.028 C 
ATOM     10  C   LIG d   1       0.520  84.014 117.091  0.00  0.00     0.006 C 
ENDBRANCH   8   9
BRANCH   8  11
ATOM     11  C   LIG d   1       1.928  81.403 116.231  0.00  0.00     0.028 C 
ATOM     12  C   LIG d   1       1.640  79.895 116.160  0.00  0.00     0.006 C 
ENDBRANCH   8  11
ENDBRANCH   7   8
ENDBRANCH   1   7
BRANCH   6  13
ATOM     13  N   LIG d   1       1.672  81.995 110.937  0.00  0.00    -0.311 N 
ATOM     14  C   LIG d   1       2.933  81.700 110.624  0.00  0.00     0.210 C 
ATOM     15  C   LIG d   1       3.647  82.747 109.763  0.00  0.00     0.109 C 
ATOM     16  O   LIG d   1       3.517  80.656 110.951  0.00  0.00    -0.276 OA
ATOM     17  H   LIG d   1       1.268  82.848 110.603  0.00  0.00     0.149 HD
ENDBRANCH   6  13
BRANCH   5  18
ATOM     18  N   LIG d   1       0.045  79.627 109.900  0.00  0.00     0.381 N 
ATOM     19  H   LIG d   1      -0.293  78.702 110.076  0.00  0.00    -0.090 HD
ATOM     20  H   LIG d   1       1.049  79.596 109.874  0.00  0.00    -0.090 HD
ATOM     21  H   LIG d   1      -0.307  79.957 109.028  0.00  0.00    -0.090 HD
ENDBRANCH   5  18
BRANCH   3  22
ATOM     22  C   LIG d   1      -2.831  80.129 113.697  0.00  0.00     0.382 C 
ATOM     23  O   LIG d   1      -3.374  79.017 113.489  0.00  0.00    -0.241 OA
ATOM     24  O   LIG d   1      -3.411  80.971 114.408  0.00  0.00    -0.241 OA
ENDBRANCH   3  22
TORSDOF 7
ENDMDL
MODEL 4
REMARK VINA RESULT:      -4.6      2.585      4.816
REMARK  7 active torsions:
REMARK  status: ('A' for Active; 'I' for Inactive)
REMARK    1  A    between atoms: C_2  and  C_3 
REMARK    2  A    between atoms: C_3  and  O_6 
REMARK    3  A    between atoms: C_3  and  C_4 
REMARK    4  A    between atoms: C_7  and  O_6 
REMARK    5  A    between atoms: C_9  and  C_10 
REMARK    6  A    between atoms: N_15  and  C_14 
REMARK    7  A    between atoms: N_20  and  C_19 
REMARK       I    between atoms: C_22  and  N_20 
ROOT
ATOM      1  C   LIG d   1      -2.358  81.413 113.903  0.00  0.00     0.161 C 
ATOM      2  C   LIG d   1      -2.776  80.180 114.431  0.00  0.00     0.016 C 
ATOM      3  C   LIG d   1      -2.457  78.934 113.845  0.00  0.00     0.038 C 
ATOM      4  C   LIG d   1      -1.565  78.828 112.768  0.00  0.00     0.028 C 
ATOM      5  C   LIG d   1      -1.521  80.076 111.893  0.00  0.00    -0.047 C 
ATOM      6  C   LIG d   1      -1.292  81.312 112.792  0.00  0.00     0.091 C 
ENDROOT
BRANCH   1   7
ATOM      7  O   LIG d   1      -1.894  82.268 114.967  0.00  0.00    -0.368 OA
BRANCH   7   8
ATOM      8  C   LIG d   1      -1.387  81.599 116.147  0.00  0.00     0.119 C 
BRANCH   8   9
ATOM      9  C   LIG d   1      -1.810  82.435 117.371  0.00  0.00     0.028 C 
ATOM     10  C   LIG d   1      -0.811  83.561 117.686  0.00  0.00     0.006 C 
ENDBRANCH   8   9
BRANCH   8  11
ATOM     11  C   LIG d   1       0.145  81.594 116.170  0.00  0.00     0.028 C 
ATOM     12  C   LIG d   1       0.739  80.190 115.969  0.00  0.00     0.006 C 
ENDBRANCH   8  11
ENDBRANCH   7   8
ENDBRANCH   1   7
BRANCH   6  13
ATOM     13  N   LIG d   1      -1.320  82.585 112.025  0.00  0.00    -0.311 N 
ATOM     14  C   LIG d   1      -0.224  83.194 111.575  0.00  0.00     0.210 C 
ATOM     15  C   LIG d   1      -0.475  84.505 110.825  0.00  0.00     0.109 C 
ATOM     16  O   LIG d   1       0.930  82.755 111.698  0.00  0.00    -0.276 OA
ATOM     17  H   LIG d   1      -2.217  82.994 111.853  0.00  0.00     0.149 HD
ENDBRANCH   6  13
BRANCH   5  18
ATOM     18  N   LIG d   1      -0.454  79.883 110.893  0.00  0.00     0.381 N 
ATOM     19  H   LIG d   1      -0.275  80.744 110.417  0.00  0.00    -0.090 HD
ATOM     20  H   LIG d   1      -0.761  79.206 110.217  0.00  0.00    -0.090 HD
ATOM     21  H   LIG d   1       0.378  79.563 111.340  0.00  0.00    -0.090 HD
ENDBRANCH   5  18
BRANCH   3  22
ATOM     22  C   LIG d   1      -3.065  77.779 114.313  0.00  0.00     0.382 C 
ATOM     23  O   LIG d   1      -3.403  77.692 115.518  0.00  0.00    -0.241 OA
ATOM     24  O   LIG d   1      -3.239  76.806 113.555  0.00  0.00    -0.241 OA
ENDBRANCH   3  22
TORSDOF 7
ENDMDL
MODEL 5
REMARK VINA RESULT:      -4.6      1.418      2.277
REMARK  7 active torsions:
REMARK  status: ('A' for Active; 'I' for Inactive)
REMARK    1  A    between atoms: C_2  and  C_3 
REMARK    2  A    between atoms: C_3  and  O_6 
REMARK    3  A    between atoms: C_3  and  C_4 
REMARK    4  A    between atoms: C_7  and  O_6 
REMARK    5  A    between atoms: C_9  and  C_10 
REMARK    6  A    between atoms: N_15  and  C_14 
REMARK    7  A    between atoms: N_20  and  C_19 
REMARK       I    between atoms: C_22  and  N_20 
ROOT
ATOM      1  C   LIG d   1      -0.535  81.157 112.141  0.00  0.00     0.161 C 
ATOM      2  C   LIG d   1      -1.189  79.982 111.736  0.00  0.00     0.016 C 
ATOM      3  C   LIG d   1      -2.195  79.348 112.501  0.00  0.00     0.038 C 
ATOM      4  C   LIG d   1      -2.723  79.933 113.661  0.00  0.00     0.028 C 
ATOM      5  C   LIG d   1      -1.743  80.860 114.372  0.00  0.00    -0.047 C 
ATOM      6  C   LIG d   1      -1.176  81.871 113.349  0.00  0.00     0.091 C 
ENDROOT
BRANCH   1   7
ATOM      7  O   LIG d   1      -0.422  82.063 111.025  0.00  0.00    -0.368 OA
BRANCH   7   8
ATOM      8  C   LIG d   1       0.908  82.558 110.737  0.00  0.00     0.119 C 
BRANCH   8   9
ATOM      9  C   LIG d   1       0.795  84.074 110.489  0.00  0.00     0.028 C 
ATOM     10  C   LIG d   1      -0.592  84.627 110.858  0.00  0.00     0.006 C 
ENDBRANCH   8   9
BRANCH   8  11
ATOM     11  C   LIG d   1       1.450  81.972 109.430  0.00  0.00     0.028 C 
ATOM     12  C   LIG d   1       2.010  80.551 109.601  0.00  0.00     0.006 C 
ENDBRANCH   8  11
ENDBRANCH   7   8
ENDBRANCH   1   7
BRANCH   6  13
ATOM     13  N   LIG d   1      -0.145  82.761 113.944  0.00  0.00    -0.311 N 
ATOM     14  C   LIG d   1       1.010  82.319 114.437  0.00  0.00     0.210 C 
ATOM     15  C   LIG d   1       1.921  83.403 115.021  0.00  0.00     0.109 C 
ATOM     16  O   LIG d   1       1.381  81.135 114.417  0.00  0.00    -0.276 OA
ATOM     17  H   LIG d   1      -0.351  83.741 113.972  0.00  0.00     0.149 HD
ENDBRANCH   6  13
BRANCH   5  18
ATOM     18  N   LIG d   1      -2.468  81.507 115.483  0.00  0.00     0.381 N 
ATOM     19  H   LIG d   1      -2.130  81.158 116.357  0.00  0.00    -0.090 HD
ATOM     20  H   LIG d   1      -3.444  81.282 115.409  0.00  0.00    -0.090 HD
ATOM     21  H   LIG d   1      -2.343  82.495 115.441  0.00  0.00    -0.090 HD
ENDBRANCH   5  18
BRANCH   3  22
ATOM     22  C   LIG d   1      -2.654  78.093 112.129  0.00  0.00     0.382 C 
ATOM     23  O   LIG d   1      -2.568  77.131 112.930  0.00  0.00    -0.241 OA
ATOM     24  O   LIG d   1      -3.112  77.902 110.987  0.00  0.00    -0.241 OA
ENDBRANCH   3  22
TORSDOF 7
ENDMDL
MODEL 6
REMARK VINA RESULT:      -4.6      3.093      6.588
REMARK  7 active torsions:
REMARK  status: ('A' for Active; 'I' for Inactive)
REMARK    1  A    between atoms: C_2  and  C_3 
REMARK    2  A    between atoms: C_3  and  O_6 
REMARK    3  A    between atoms: C_3  and  C_4 
REMARK    4  A    between atoms: C_7  and  O_6 
REMARK    5  A    between atoms: C_9  and  C_10 
REMARK    6  A    between atoms: N_15  and  C_14 
REMARK    7  A    between atoms: N_20  and  C_19 
REMARK       I    between atoms: C_22  and  N_20 
ROOT
ATOM      1  C   LIG d   1      -1.265  80.851 114.716  0.00  0.00     0.161 C 
ATOM      2  C   LIG d   1      -1.142  82.105 114.094  0.00  0.00     0.016 C 
ATOM      3  C   LIG d   1      -1.026  82.270 112.694  0.00  0.00     0.038 C 
ATOM      4  C   LIG d   1      -1.178  81.195 111.806  0.00  0.00     0.028 C 
ATOM      5  C   LIG d   1      -0.798  79.849 112.413  0.00  0.00    -0.047 C 
ATOM      6  C   LIG d   1      -1.544  79.676 113.756  0.00  0.00     0.091 C 
ENDROOT
BRANCH   1   7
ATOM      7  O   LIG d   1      -2.278  80.912 115.741  0.00  0.00    -0.368 OA
BRANCH   7   8
ATOM      8  C   LIG d   1      -1.802  81.101 117.096  0.00  0.00     0.119 C 
BRANCH   8   9
ATOM      9  C   LIG d   1      -2.602  80.148 118.005  0.00  0.00     0.028 C 
ATOM     10  C   LIG d   1      -3.440  79.138 117.203  0.00  0.00     0.006 C 
ENDBRANCH   8   9
BRANCH   8  11
ATOM     11  C   LIG d   1      -2.119  82.510 117.607  0.00  0.00     0.028 C 
ATOM     12  C   LIG d   1      -0.885  83.424 117.639  0.00  0.00     0.006 C 
ENDBRANCH   8  11
ENDBRANCH   7   8
ENDBRANCH   1   7
BRANCH   6  13
ATOM     13  N   LIG d   1      -1.165  78.422 114.458  0.00  0.00    -0.311 N 
ATOM     14  C   LIG d   1      -1.819  77.272 114.306  0.00  0.00     0.210 C 
ATOM     15  C   LIG d   1      -1.275  76.105 115.138  0.00  0.00     0.109 C 
ATOM     16  O   LIG d   1      -2.777  77.098 113.538  0.00  0.00    -0.276 OA
ATOM     17  H   LIG d   1      -0.380  78.465 115.077  0.00  0.00     0.149 HD
ENDBRANCH   6  13
BRANCH   5  18
ATOM     18  N   LIG d   1      -1.134  78.805 111.427  0.00  0.00     0.381 N 
ATOM     19  H   LIG d   1      -0.306  78.312 111.160  0.00  0.00    -0.090 HD
ATOM     20  H   LIG d   1      -1.518  79.243 110.608  0.00  0.00    -0.090 HD
ATOM     21  H   LIG d   1      -1.797  78.170 111.814  0.00  0.00    -0.090 HD
ENDBRANCH   5  18
BRANCH   3  22
ATOM     22  C   LIG d   1      -0.715  83.517 112.173  0.00  0.00     0.382 C 
ATOM     23  O   LIG d   1       0.089  84.266 112.778  0.00  0.00    -0.241 OA
ATOM     24  O   LIG d   1      -1.263  83.920 111.130  0.00  0.00    -0.241 OA
ENDBRANCH   3  22
TORSDOF 7
ENDMDL
MODEL 7
REMARK VINA RESULT:      -4.5      2.872      5.952
REMARK  7 active torsions:
REMARK  status: ('A' for Active; 'I' for Inactive)
REMARK    1  A    between atoms: C_2  and  C_3 
REMARK    2  A    between atoms: C_3  and  O_6 
REMARK    3  A    between atoms: C_3  and  C_4 
REMARK    4  A    between atoms: C_7  and  O_6 
REMARK    5  A    between atoms: C_9  and  C_10 
REMARK    6  A    between atoms: N_15  and  C_14 
REMARK    7  A    between atoms: N_20  and  C_19 
REMARK       I    between atoms: C_22  and  N_20 
ROOT
ATOM      1  C   LIG d   1      -2.708  81.478 114.490  0.00  0.00     0.161 C 
ATOM      2  C   LIG d   1      -2.249  82.202 113.377  0.00  0.00     0.016 C 
ATOM      3  C   LIG d   1      -0.961  82.780 113.302  0.00  0.00     0.038 C 
ATOM      4  C   LIG d   1       0.016  82.544 114.281  0.00  0.00     0.028 C 
ATOM      5  C   LIG d   1      -0.566  82.240 115.657  0.00  0.00    -0.047 C 
ATOM      6  C   LIG d   1      -1.618  81.116 115.520  0.00  0.00     0.091 C 
ENDROOT
BRANCH   1   7
ATOM      7  O   LIG d   1      -3.397  80.291 114.051  0.00  0.00    -0.368 OA
BRANCH   7   8
ATOM      8  C   LIG d   1      -2.560  79.163 113.696  0.00  0.00     0.119 C 
BRANCH   8   9
ATOM      9  C   LIG d   1      -2.816  78.847 112.210  0.00  0.00     0.028 C 
ATOM     10  C   LIG d   1      -1.607  79.185 111.321  0.00  0.00     0.006 C 
ENDBRANCH   8   9
BRANCH   8  11
ATOM     11  C   LIG d   1      -2.975  77.900 114.456  0.00  0.00     0.028 C 
ATOM     12  C   LIG d   1      -1.788  76.976 114.769  0.00  0.00     0.006 C 
ENDBRANCH   8  11
ENDBRANCH   7   8
ENDBRANCH   1   7
BRANCH   6  13
ATOM     13  N   LIG d   1      -2.297  80.816 116.808  0.00  0.00    -0.311 N 
ATOM     14  C   LIG d   1      -1.912  79.842 117.631  0.00  0.00     0.210 C 
ATOM     15  C   LIG d   1      -2.762  79.690 118.896  0.00  0.00     0.109 C 
ATOM     16  O   LIG d   1      -0.926  79.111 117.449  0.00  0.00    -0.276 OA
ATOM     17  H   LIG d   1      -3.088  81.381 117.049  0.00  0.00     0.149 HD
ENDBRANCH   6  13
BRANCH   5  18
ATOM     18  N   LIG d   1       0.555  81.879 116.545  0.00  0.00     0.381 N 
ATOM     19  H   LIG d   1       0.406  80.965 116.923  0.00  0.00    -0.090 HD
ATOM     20  H   LIG d   1       0.589  82.533 117.308  0.00  0.00    -0.090 HD
ATOM     21  H   LIG d   1       1.412  81.903 116.039  0.00  0.00    -0.090 HD
ENDBRANCH   5  18
BRANCH   3  22
ATOM     22  C   LIG d   1      -0.653  83.638 112.257  0.00  0.00     0.382 C 
ATOM     23  O   LIG d   1       0.125  84.604 112.448  0.00  0.00    -0.241 OA
ATOM     24  O   LIG d   1      -1.177  83.484 111.138  0.00  0.00    -0.241 OA
ENDBRANCH   3  22
TORSDOF 7
ENDMDL
MODEL 8
REMARK VINA RESULT:      -4.5      1.813      2.003
REMARK  7 active torsions:
REMARK  status: ('A' for Active; 'I' for Inactive)
REMARK    1  A    between atoms: C_2  and  C_3 
REMARK    2  A    between atoms: C_3  and  O_6 
REMARK    3  A    between atoms: C_3  and  C_4 
REMARK    4  A    between atoms: C_7  and  O_6 
REMARK    5  A    between atoms: C_9  and  C_10 
REMARK    6  A    between atoms: N_15  and  C_14 
REMARK    7  A    between atoms: N_20  and  C_19 
REMARK       I    between atoms: C_22  and  N_20 
ROOT
ATOM      1  C   LIG d   1       0.965  81.185 113.273  0.00  0.00     0.161 C 
ATOM      2  C   LIG d   1      -0.074  80.543 112.579  0.00  0.00     0.016 C 
ATOM      3  C   LIG d   1      -1.420  80.550 113.013  0.00  0.00     0.038 C 
ATOM      4  C   LIG d   1      -1.845  81.331 114.098  0.00  0.00     0.028 C 
ATOM      5  C   LIG d   1      -0.748  81.590 115.125  0.00  0.00    -0.047 C 
ATOM      6  C   LIG d   1       0.502  82.135 114.398  0.00  0.00     0.091 C 
ENDROOT
BRANCH   1   7
ATOM      7  O   LIG d   1       1.814  81.886 112.343  0.00  0.00    -0.368 OA
BRANCH   7   8
ATOM      8  C   LIG d   1       1.277  82.080 111.012  0.00  0.00     0.119 C 
BRANCH   8   9
ATOM      9  C   LIG d   1       2.370  81.668 110.007  0.00  0.00     0.028 C 
ATOM     10  C   LIG d   1       3.734  82.303 110.331  0.00  0.00     0.006 C 
ENDBRANCH   8   9
BRANCH   8  11
ATOM     11  C   LIG d   1       1.005  83.560 110.730  0.00  0.00     0.028 C 
ATOM     12  C   LIG d   1      -0.415  83.992 111.133  0.00  0.00     0.006 C 
ENDBRANCH   8  11
ENDBRANCH   7   8
ENDBRANCH   1   7
BRANCH   6  13
ATOM     13  N   LIG d   1       1.651  82.335 115.319  0.00  0.00    -0.311 N 
ATOM     14  C   LIG d   1       2.272  83.504 115.473  0.00  0.00     0.210 C 
ATOM     15  C   LIG d   1       3.446  83.488 116.457  0.00  0.00     0.109 C 
ATOM     16  O   LIG d   1       1.942  84.559 114.912  0.00  0.00    -0.276 OA
ATOM     17  H   LIG d   1       1.965  81.538 115.837  0.00  0.00     0.149 HD
ENDBRANCH   6  13
BRANCH   5  18
ATOM     18  N   LIG d   1      -1.288  82.527 116.128  0.00  0.00     0.381 N 
ATOM     19  H   LIG d   1      -1.789  83.262 115.669  0.00  0.00    -0.090 HD
ATOM     20  H   LIG d   1      -0.524  82.936 116.636  0.00  0.00    -0.090 HD
ATOM     21  H   LIG d   1      -1.894  82.045 116.755  0.00  0.00    -0.090 HD
ENDBRANCH   5  18
BRANCH   3  22
ATOM     22  C   LIG d   1      -2.349  79.737 112.383  0.00  0.00     0.382 C 
ATOM     23  O   LIG d   1      -3.431  79.461 112.955  0.00  0.00    -0.241 OA
ATOM     24  O   LIG d   1      -2.100  79.239 111.269  0.00  0.00    -0.241 OA
ENDBRANCH   3  22
TORSDOF 7
ENDMDL
MODEL 9
REMARK VINA RESULT:      -4.5      1.886      4.970
REMARK  7 active torsions:
REMARK  status: ('A' for Active; 'I' for Inactive)
REMARK    1  A    between atoms: C_2  and  C_3 
REMARK    2  A    between atoms: C_3  and  O_6 
REMARK    3  A    between atoms: C_3  and  C_4 
REMARK    4  A    between atoms: C_7  and  O_6 
REMARK    5  A    between atoms: C_9  and  C_10 
REMARK    6  A    between atoms: N_15  and  C_14 
REMARK    7  A    between atoms: N_20  and  C_19 
REMARK       I    between atoms: C_22  and  N_20 
ROOT
ATOM      1  C   LIG d   1       0.196  81.476 112.858  0.00  0.00     0.161 C 
ATOM      2  C   LIG d   1       0.779  82.429 113.710  0.00  0.00     0.016 C 
ATOM      3  C   LIG d   1       0.392  82.607 115.058  0.00  0.00     0.038 C 
ATOM      4  C   LIG d   1      -0.506  81.736 115.693  0.00  0.00     0.028 C 
ATOM      5  C   LIG d   1      -1.492  81.077 114.734  0.00  0.00    -0.047 C 
ATOM      6  C   LIG d   1      -0.706  80.443 113.564  0.00  0.00     0.091 C 
ENDROOT
BRANCH   1   7
ATOM      7  O   LIG d   1       1.223  80.809 112.098  0.00  0.00    -0.368 OA
BRANCH   7   8
ATOM      8  C   LIG d   1       1.871  81.599 111.071  0.00  0.00     0.119 C 
BRANCH   8   9
ATOM      9  C   LIG d   1       0.923  81.648 109.857  0.00  0.00     0.028 C 
ATOM     10  C   LIG d   1       0.358  80.264 109.497  0.00  0.00     0.006 C 
ENDBRANCH   8   9
BRANCH   8  11
ATOM     11  C   LIG d   1       3.145  80.916 110.563  0.00  0.00     0.028 C 
ATOM     12  C   LIG d   1       3.946  81.797 109.591  0.00  0.00     0.006 C 
ENDBRANCH   8  11
ENDBRANCH   7   8
ENDBRANCH   1   7
BRANCH   6  13
ATOM     13  N   LIG d   1      -1.600  79.850 112.536  0.00  0.00    -0.311 N 
ATOM     14  C   LIG d   1      -1.939  78.562 112.513  0.00  0.00     0.210 C 
ATOM     15  C   LIG d   1      -2.855  78.154 111.355  0.00  0.00     0.109 C 
ATOM     16  O   LIG d   1      -1.593  77.725 113.360  0.00  0.00    -0.276 OA
ATOM     17  H   LIG d   1      -1.952  80.464 111.828  0.00  0.00     0.149 HD
ENDBRANCH   6  13
BRANCH   5  18
ATOM     18  N   LIG d   1      -2.275  80.093 115.506  0.00  0.00     0.381 N 
ATOM     19  H   LIG d   1      -1.672  79.369 115.840  0.00  0.00    -0.090 HD
ATOM     20  H   LIG d   1      -2.962  79.678 114.901  0.00  0.00    -0.090 HD
ATOM     21  H   LIG d   1      -2.725  80.542 116.273  0.00  0.00    -0.090 HD
ENDBRANCH   5  18
BRANCH   3  22
ATOM     22  C   LIG d   1       0.875  83.691 115.775  0.00  0.00     0.382 C 
ATOM     23  O   LIG d   1       0.390  83.967 116.899  0.00  0.00    -0.241 OA
ATOM     24  O   LIG d   1       1.759  84.424 115.292  0.00  0.00    -0.241 OA
ENDBRANCH   3  22
TORSDOF 7
ENDMDL
