MODEL 1
REMARK VINA RESULT:      -5.9      0.000      0.000
REMARK  7 active torsions:
REMARK  status: ('A' for Active; 'I' for Inactive)
REMARK    1  A    between atoms: C_2  and  C_3 
REMARK    2  A    between atoms: C_3  and  O_6 
REMARK    3  A    between atoms: C_3  and  C_4 
REMARK    4  A    between atoms: C_7  and  O_6 
REMARK    5  A    between atoms: C_9  and  C_10 
REMARK    6  A    between atoms: N_15  and  C_14 
REMARK    7  A    between atoms: N_20  and  C_19 
REMARK       I    between atoms: C_22  and  N_20 
ROOT
ATOM      1  C   LIG d   1       0.448  82.973 112.161  0.00  0.00     0.161 C 
ATOM      2  C   LIG d   1      -0.773  82.686 112.794  0.00  0.00     0.016 C 
ATOM      3  C   LIG d   1      -1.360  81.400 112.803  0.00  0.00     0.038 C 
ATOM      4  C   LIG d   1      -0.687  80.274 112.306  0.00  0.00     0.028 C 
ATOM      5  C   LIG d   1       0.321  80.605 111.211  0.00  0.00    -0.047 C 
ATOM      6  C   LIG d   1       1.250  81.735 111.710  0.00  0.00     0.091 C 
ENDROOT
BRANCH   1   7
ATOM      7  O   LIG d   1       1.255  83.810 113.014  0.00  0.00    -0.368 OA
BRANCH   7   8
ATOM      8  C   LIG d   1       2.199  83.122 113.872  0.00  0.00     0.119 C 
BRANCH   8   9
ATOM      9  C   LIG d   1       1.559  83.013 115.269  0.00  0.00     0.028 C 
ATOM     10  C   LIG d   1       1.309  81.554 115.688  0.00  0.00     0.006 C 
ENDBRANCH   8   9
BRANCH   8  11
ATOM     11  C   LIG d   1       3.473  83.948 114.073  0.00  0.00     0.028 C 
ATOM     12  C   LIG d   1       4.018  84.531 112.759  0.00  0.00     0.006 C 
ENDBRANCH   8  11
ENDBRANCH   7   8
ENDBRANCH   1   7
BRANCH   6  13
ATOM     13  N   LIG d   1       2.213  82.178 110.668  0.00  0.00    -0.311 N 
ATOM     14  C   LIG d   1       3.453  81.702 110.566  0.00  0.00     0.210 C 
ATOM     15  C   LIG d   1       4.287  82.309 109.433  0.00  0.00     0.109 C 
ATOM     16  O   LIG d   1       3.930  80.812 111.285  0.00  0.00    -0.276 OA
ATOM     17  H   LIG d   1       1.898  82.876 110.022  0.00  0.00     0.149 HD
ENDBRANCH   6  13
BRANCH   5  18
ATOM     18  N   LIG d   1       1.046  79.363 110.882  0.00  0.00     0.381 N 
ATOM     19  H   LIG d   1       1.779  79.212 111.546  0.00  0.00    -0.090 HD
ATOM     20  H   LIG d   1       1.460  79.460 109.972  0.00  0.00    -0.090 HD
ATOM     21  H   LIG d   1       0.418  78.590 110.889  0.00  0.00    -0.090 HD
ENDBRANCH   5  18
BRANCH   3  22
ATOM     22  C   LIG d   1      -2.653  81.238 113.279  0.00  0.00     0.382 C 
ATOM     23  O   LIG d   1      -3.079  80.092 113.558  0.00  0.00    -0.241 OA
ATOM     24  O   LIG d   1      -3.412  82.219 113.390  0.00  0.00    -0.241 OA
ENDBRANCH   3  22
TORSDOF 7
ENDMDL
MODEL 2
REMARK VINA RESULT:      -5.5      1.988      4.920
REMARK  7 active torsions:
REMARK  status: ('A' for Active; 'I' for Inactive)
REMARK    1  A    between atoms: C_2  and  C_3 
REMARK    2  A    between atoms: C_3  and  O_6 
REMARK    3  A    between atoms: C_3  and  C_4 
REMARK    4  A    between atoms: C_7  and  O_6 
REMARK    5  A    between atoms: C_9  and  C_10 
REMARK    6  A    between atoms: N_15  and  C_14 
REMARK    7  A    between atoms: N_20  and  C_19 
REMARK       I    between atoms: C_22  and  N_20 
ROOT
ATOM      1  C   LIG d   1       1.189  81.397 112.871  0.00  0.00     0.161 C 
ATOM      2  C   LIG d   1       2.155  81.069 111.904  0.00  0.00     0.016 C 
ATOM      3  C   LIG d   1       1.902  80.206 110.813  0.00  0.00     0.038 C 
ATOM      4  C   LIG d   1       0.614  79.728 110.529  0.00  0.00     0.028 C 
ATOM      5  C   LIG d   1      -0.279  79.625 111.761  0.00  0.00    -0.047 C 
ATOM      6  C   LIG d   1      -0.251  80.974 112.515  0.00  0.00     0.091 C 
ENDROOT
BRANCH   1   7
ATOM      7  O   LIG d   1       1.241  82.809 113.154  0.00  0.00    -0.368 OA
BRANCH   7   8
ATOM      8  C   LIG d   1       2.240  83.568 112.429  0.00  0.00     0.119 C 
BRANCH   8   9
ATOM      9  C   LIG d   1       3.112  84.298 113.470  0.00  0.00     0.028 C 
ATOM     10  C   LIG d   1       4.519  84.616 112.937  0.00  0.00     0.006 C 
ENDBRANCH   8   9
BRANCH   8  11
ATOM     11  C   LIG d   1       1.598  84.676 111.589  0.00  0.00     0.028 C 
ATOM     12  C   LIG d   1       1.342  84.249 110.135  0.00  0.00     0.006 C 
ENDBRANCH   8  11
ENDBRANCH   7   8
ENDBRANCH   1   7
BRANCH   6  13
ATOM     13  N   LIG d   1      -1.033  80.933 113.779  0.00  0.00    -0.311 N 
ATOM     14  C   LIG d   1      -2.289  81.364 113.878  0.00  0.00     0.210 C 
ATOM     15  C   LIG d   1      -2.903  81.250 115.277  0.00  0.00     0.109 C 
ATOM     16  O   LIG d   1      -2.964  81.800 112.933  0.00  0.00    -0.276 OA
ATOM     17  H   LIG d   1      -0.572  80.565 114.588  0.00  0.00     0.149 HD
ENDBRANCH   6  13
BRANCH   5  18
ATOM     18  N   LIG d   1      -1.629  79.247 111.302  0.00  0.00     0.381 N 
ATOM     19  H   LIG d   1      -2.318  79.680 111.883  0.00  0.00    -0.090 HD
ATOM     20  H   LIG d   1      -1.732  78.251 111.379  0.00  0.00    -0.090 HD
ATOM     21  H   LIG d   1      -1.759  79.529 110.355  0.00  0.00    -0.090 HD
ENDBRANCH   5  18
BRANCH   3  22
ATOM     22  C   LIG d   1       2.953  79.780 110.016  0.00  0.00     0.382 C 
ATOM     23  O   LIG d   1       2.887  78.672 109.430  0.00  0.00    -0.241 OA
ATOM     24  O   LIG d   1       3.986  80.469 109.911  0.00  0.00    -0.241 OA
ENDBRANCH   3  22
TORSDOF 7
ENDMDL
MODEL 3
REMARK VINA RESULT:      -5.3      0.713      1.552
REMARK  7 active torsions:
REMARK  status: ('A' for Active; 'I' for Inactive)
REMARK    1  A    between atoms: C_2  and  C_3 
REMARK    2  A    between atoms: C_3  and  O_6 
REMARK    3  A    between atoms: C_3  and  C_4 
REMARK    4  A    between atoms: C_7  and  O_6 
REMARK    5  A    between atoms: C_9  and  C_10 
REMARK    6  A    between atoms: N_15  and  C_14 
REMARK    7  A    between atoms: N_20  and  C_19 
REMARK       I    between atoms: C_22  and  N_20 
ROOT
ATOM      1  C   LIG d   1       0.586  82.704 112.200  0.00  0.00     0.161 C 
ATOM      2  C   LIG d   1      -0.644  82.460 112.833  0.00  0.00     0.016 C 
ATOM      3  C   LIG d   1      -1.350  81.240 112.718  0.00  0.00     0.038 C 
ATOM      4  C   LIG d   1      -0.796  80.120 112.080  0.00  0.00     0.028 C 
ATOM      5  C   LIG d   1       0.217  80.480 110.998  0.00  0.00    -0.047 C 
ATOM      6  C   LIG d   1       1.259  81.457 111.590  0.00  0.00     0.091 C 
ENDROOT
BRANCH   1   7
ATOM      7  O   LIG d   1       1.484  83.362 113.115  0.00  0.00    -0.368 OA
BRANCH   7   8
ATOM      8  C   LIG d   1       1.537  82.819 114.457  0.00  0.00     0.119 C 
BRANCH   8   9
ATOM      9  C   LIG d   1       2.104  83.916 115.379  0.00  0.00     0.028 C 
ATOM     10  C   LIG d   1       3.334  84.613 114.774  0.00  0.00     0.006 C 
ENDBRANCH   8   9
BRANCH   8  11
ATOM     11  C   LIG d   1       2.532  81.658 114.550  0.00  0.00     0.028 C 
ATOM     12  C   LIG d   1       2.595  81.039 115.955  0.00  0.00     0.006 C 
ENDBRANCH   8  11
ENDBRANCH   7   8
ENDBRANCH   1   7
BRANCH   6  13
ATOM     13  N   LIG d   1       2.238  81.925 110.575  0.00  0.00    -0.311 N 
ATOM     14  C   LIG d   1       3.511  81.533 110.550  0.00  0.00     0.210 C 
ATOM     15  C   LIG d   1       4.355  82.151 109.431  0.00  0.00     0.109 C 
ATOM     16  O   LIG d   1       4.013  80.708 111.327  0.00  0.00    -0.276 OA
ATOM     17  H   LIG d   1       1.908  82.573 109.887  0.00  0.00     0.149 HD
ENDBRANCH   6  13
BRANCH   5  18
ATOM     18  N   LIG d   1       0.816  79.222 110.512  0.00  0.00     0.381 N 
ATOM     19  H   LIG d   1       0.180  78.762 109.891  0.00  0.00    -0.090 HD
ATOM     20  H   LIG d   1       0.982  78.617 111.297  0.00  0.00    -0.090 HD
ATOM     21  H   LIG d   1       1.673  79.411 110.042  0.00  0.00    -0.090 HD
ENDBRANCH   5  18
BRANCH   3  22
ATOM     22  C   LIG d   1      -2.642  81.144 113.212  0.00  0.00     0.382 C 
ATOM     23  O   LIG d   1      -3.117  80.023 113.511  0.00  0.00    -0.241 OA
ATOM     24  O   LIG d   1      -3.354  82.161 113.319  0.00  0.00    -0.241 OA
ENDBRANCH   3  22
TORSDOF 7
ENDMDL
MODEL 4
REMARK VINA RESULT:      -5.0      2.350      4.007
REMARK  7 active torsions:
REMARK  status: ('A' for Active; 'I' for Inactive)
REMARK    1  A    between atoms: C_2  and  C_3 
REMARK    2  A    between atoms: C_3  and  O_6 
REMARK    3  A    between atoms: C_3  and  C_4 
REMARK    4  A    between atoms: C_7  and  O_6 
REMARK    5  A    between atoms: C_9  and  C_10 
REMARK    6  A    between atoms: N_15  and  C_14 
REMARK    7  A    between atoms: N_20  and  C_19 
REMARK       I    between atoms: C_22  and  N_20 
ROOT
ATOM      1  C   LIG d   1      -0.041  80.379 111.805  0.00  0.00     0.161 C 
ATOM      2  C   LIG d   1      -1.106  79.465 111.748  0.00  0.00     0.016 C 
ATOM      3  C   LIG d   1      -1.971  79.209 112.837  0.00  0.00     0.038 C 
ATOM      4  C   LIG d   1      -1.922  79.967 114.017  0.00  0.00     0.028 C 
ATOM      5  C   LIG d   1      -0.543  80.551 114.305  0.00  0.00    -0.047 C 
ATOM      6  C   LIG d   1      -0.041  81.296 113.046  0.00  0.00     0.091 C 
ENDROOT
BRANCH   1   7
ATOM      7  O   LIG d   1      -0.010  81.169 110.599  0.00  0.00    -0.368 OA
BRANCH   7   8
ATOM      8  C   LIG d   1       1.084  80.899 109.689  0.00  0.00     0.119 C 
BRANCH   8   9
ATOM      9  C   LIG d   1       1.979  79.830 110.344  0.00  0.00     0.028 C 
ATOM     10  C   LIG d   1       3.421  80.321 110.558  0.00  0.00     0.006 C 
ENDBRANCH   8   9
BRANCH   8  11
ATOM     11  C   LIG d   1       1.981  82.129 109.516  0.00  0.00     0.028 C 
ATOM     12  C   LIG d   1       1.187  83.443 109.464  0.00  0.00     0.006 C 
ENDBRANCH   8  11
ENDBRANCH   7   8
ENDBRANCH   1   7
BRANCH   6  13
ATOM     13  N   LIG d   1       1.337  81.827 113.214  0.00  0.00    -0.311 N 
ATOM     14  C   LIG d   1       1.641  83.120 113.120  0.00  0.00     0.210 C 
ATOM     15  C   LIG d   1       3.125  83.450 113.306  0.00  0.00     0.109 C 
ATOM     16  O   LIG d   1       0.818  84.028 112.931  0.00  0.00    -0.276 OA
ATOM     17  H   LIG d   1       2.062  81.162 113.400  0.00  0.00     0.149 HD
ENDBRANCH   6  13
BRANCH   5  18
ATOM     18  N   LIG d   1      -0.668  81.428 115.484  0.00  0.00     0.381 N 
ATOM     19  H   LIG d   1      -0.642  80.879 116.319  0.00  0.00    -0.090 HD
ATOM     20  H   LIG d   1      -1.554  81.901 115.445  0.00  0.00    -0.090 HD
ATOM     21  H   LIG d   1       0.072  82.096 115.493  0.00  0.00    -0.090 HD
ENDBRANCH   5  18
BRANCH   3  22
ATOM     22  C   LIG d   1      -2.872  78.158 112.767  0.00  0.00     0.382 C 
ATOM     23  O   LIG d   1      -3.322  77.646 113.820  0.00  0.00    -0.241 OA
ATOM     24  O   LIG d   1      -3.207  77.685 111.664  0.00  0.00    -0.241 OA
ENDBRANCH   3  22
TORSDOF 7
ENDMDL
MODEL 5
REMARK VINA RESULT:      -4.9      1.754      4.865
REMARK  7 active torsions:
REMARK  status: ('A' for Active; 'I' for Inactive)
REMARK    1  A    between atoms: C_2  and  C_3 
REMARK    2  A    between atoms: C_3  and  O_6 
REMARK    3  A    between atoms: C_3  and  C_4 
REMARK    4  A    between atoms: C_7  and  O_6 
REMARK    5  A    between atoms: C_9  and  C_10 
REMARK    6  A    between atoms: N_15  and  C_14 
REMARK    7  A    between atoms: N_20  and  C_19 
REMARK       I    between atoms: C_22  and  N_20 
ROOT
ATOM      1  C   LIG d   1       1.394  81.987 112.943  0.00  0.00     0.161 C 
ATOM      2  C   LIG d   1       2.569  82.592 112.469  0.00  0.00     0.016 C 
ATOM      3  C   LIG d   1       2.887  82.707 111.096  0.00  0.00     0.038 C 
ATOM      4  C   LIG d   1       1.972  82.357 110.092  0.00  0.00     0.028 C 
ATOM      5  C   LIG d   1       0.984  81.278 110.522  0.00  0.00    -0.047 C 
ATOM      6  C   LIG d   1       0.333  81.699 111.860  0.00  0.00     0.091 C 
ENDROOT
BRANCH   1   7
ATOM      7  O   LIG d   1       0.826  82.784 114.001  0.00  0.00    -0.368 OA
BRANCH   7   8
ATOM      8  C   LIG d   1       1.120  82.352 115.352  0.00  0.00     0.119 C 
BRANCH   8   9
ATOM      9  C   LIG d   1      -0.154  81.693 115.915  0.00  0.00     0.028 C 
ATOM     10  C   LIG d   1       0.045  80.200 116.225  0.00  0.00     0.006 C 
ENDBRANCH   8   9
BRANCH   8  11
ATOM     11  C   LIG d   1       1.399  83.546 116.270  0.00  0.00     0.028 C 
ATOM     12  C   LIG d   1       2.861  84.013 116.211  0.00  0.00     0.006 C 
ENDBRANCH   8  11
ENDBRANCH   7   8
ENDBRANCH   1   7
BRANCH   6  13
ATOM     13  N   LIG d   1      -0.585  80.659 112.394  0.00  0.00    -0.311 N 
ATOM     14  C   LIG d   1      -1.825  80.919 112.808  0.00  0.00     0.210 C 
ATOM     15  C   LIG d   1      -2.595  79.707 113.342  0.00  0.00     0.109 C 
ATOM     16  O   LIG d   1      -2.370  82.031 112.753  0.00  0.00    -0.276 OA
ATOM     17  H   LIG d   1      -0.234  79.723 112.445  0.00  0.00     0.149 HD
ENDBRANCH   6  13
BRANCH   5  18
ATOM     18  N   LIG d   1       0.006  81.109 109.431  0.00  0.00     0.381 N 
ATOM     19  H   LIG d   1      -0.144  80.135 109.258  0.00  0.00    -0.090 HD
ATOM     20  H   LIG d   1       0.376  81.525 108.595  0.00  0.00    -0.090 HD
ATOM     21  H   LIG d   1      -0.856  81.546 109.674  0.00  0.00    -0.090 HD
ENDBRANCH   5  18
BRANCH   3  22
ATOM     22  C   LIG d   1       4.148  83.141 110.716  0.00  0.00     0.382 C 
ATOM     23  O   LIG d   1       4.949  83.572 111.580  0.00  0.00    -0.241 OA
ATOM     24  O   LIG d   1       4.478  83.149 109.515  0.00  0.00    -0.241 OA
ENDBRANCH   3  22
TORSDOF 7
ENDMDL
MODEL 6
REMARK VINA RESULT:      -4.8      2.047      4.903
REMARK  7 active torsions:
REMARK  status: ('A' for Active; 'I' for Inactive)
REMARK    1  A    between atoms: C_2  and  C_3 
REMARK    2  A    between atoms: C_3  and  O_6 
REMARK    3  A    between atoms: C_3  and  C_4 
REMARK    4  A    between atoms: C_7  and  O_6 
REMARK    5  A    between atoms: C_9  and  C_10 
REMARK    6  A    between atoms: N_15  and  C_14 
REMARK    7  A    between atoms: N_20  and  C_19 
REMARK       I    between atoms: C_22  and  N_20 
ROOT
ATOM      1  C   LIG d   1       0.747  80.864 113.005  0.00  0.00     0.161 C 
ATOM      2  C   LIG d   1       1.728  81.777 112.583  0.00  0.00     0.016 C 
ATOM      3  C   LIG d   1       2.014  82.038 111.224  0.00  0.00     0.038 C 
ATOM      4  C   LIG d   1       1.230  81.512 110.186  0.00  0.00     0.028 C 
ATOM      5  C   LIG d   1       0.554  80.194 110.547  0.00  0.00    -0.047 C 
ATOM      6  C   LIG d   1      -0.194  80.364 111.889  0.00  0.00     0.091 C 
ENDROOT
BRANCH   1   7
ATOM      7  O   LIG d   1      -0.017  81.432 114.087  0.00  0.00    -0.368 OA
BRANCH   7   8
ATOM      8  C   LIG d   1       0.225  80.872 115.401  0.00  0.00     0.119 C 
BRANCH   8   9
ATOM      9  C   LIG d   1      -0.925  81.331 116.319  0.00  0.00     0.028 C 
ATOM     10  C   LIG d   1      -2.298  80.845 115.826  0.00  0.00     0.006 C 
ENDBRANCH   8   9
BRANCH   8  11
ATOM     11  C   LIG d   1       1.498  81.449 116.027  0.00  0.00     0.028 C 
ATOM     12  C   LIG d   1       1.400  82.960 116.292  0.00  0.00     0.006 C 
ENDBRANCH   8  11
ENDBRANCH   7   8
ENDBRANCH   1   7
BRANCH   6  13
ATOM     13  N   LIG d   1      -0.813  79.096 112.357  0.00  0.00    -0.311 N 
ATOM     14  C   LIG d   1      -2.101  78.985 112.678  0.00  0.00     0.210 C 
ATOM     15  C   LIG d   1      -2.530  77.594 113.156  0.00  0.00     0.109 C 
ATOM     16  O   LIG d   1      -2.936  79.897 112.580  0.00  0.00    -0.276 OA
ATOM     17  H   LIG d   1      -0.215  78.298 112.436  0.00  0.00     0.149 HD
ENDBRANCH   6  13
BRANCH   5  18
ATOM     18  N   LIG d   1      -0.339  79.830 109.430  0.00  0.00     0.381 N 
ATOM     19  H   LIG d   1      -0.446  80.611 108.814  0.00  0.00    -0.090 HD
ATOM     20  H   LIG d   1      -1.242  79.594 109.800  0.00  0.00    -0.090 HD
ATOM     21  H   LIG d   1       0.038  79.054 108.932  0.00  0.00    -0.090 HD
ENDBRANCH   5  18
BRANCH   3  22
ATOM     22  C   LIG d   1       3.121  82.803 110.889  0.00  0.00     0.382 C 
ATOM     23  O   LIG d   1       4.251  82.504 111.346  0.00  0.00    -0.241 OA
ATOM     24  O   LIG d   1       2.997  83.814 110.173  0.00  0.00    -0.241 OA
ENDBRANCH   3  22
TORSDOF 7
ENDMDL
MODEL 7
REMARK VINA RESULT:      -4.7      2.641      4.175
REMARK  7 active torsions:
REMARK  status: ('A' for Active; 'I' for Inactive)
REMARK    1  A    between atoms: C_2  and  C_3 
REMARK    2  A    between atoms: C_3  and  O_6 
REMARK    3  A    between atoms: C_3  and  C_4 
REMARK    4  A    between atoms: C_7  and  O_6 
REMARK    5  A    between atoms: C_9  and  C_10 
REMARK    6  A    between atoms: N_15  and  C_14 
REMARK    7  A    between atoms: N_20  and  C_19 
REMARK       I    between atoms: C_22  and  N_20 
ROOT
ATOM      1  C   LIG d   1       1.143  80.978 113.383  0.00  0.00     0.161 C 
ATOM      2  C   LIG d   1      -0.181  81.040 112.916  0.00  0.00     0.016 C 
ATOM      3  C   LIG d   1      -1.308  81.036 113.768  0.00  0.00     0.038 C 
ATOM      4  C   LIG d   1      -1.183  81.122 115.163  0.00  0.00     0.028 C 
ATOM      5  C   LIG d   1       0.129  80.552 115.690  0.00  0.00    -0.047 C 
ATOM      6  C   LIG d   1       1.301  81.183 114.904  0.00  0.00     0.091 C 
ENDROOT
BRANCH   1   7
ATOM      7  O   LIG d   1       1.960  81.921 112.662  0.00  0.00    -0.368 OA
BRANCH   7   8
ATOM      8  C   LIG d   1       2.022  81.744 111.226  0.00  0.00     0.119 C 
BRANCH   8   9
ATOM      9  C   LIG d   1       2.938  80.537 110.946  0.00  0.00     0.028 C 
ATOM     10  C   LIG d   1       3.855  80.764 109.733  0.00  0.00     0.006 C 
ENDBRANCH   8   9
BRANCH   8  11
ATOM     11  C   LIG d   1       2.702  82.935 110.546  0.00  0.00     0.028 C 
ATOM     12  C   LIG d   1       1.725  83.790 109.722  0.00  0.00     0.006 C 
ENDBRANCH   8  11
ENDBRANCH   7   8
ENDBRANCH   1   7
BRANCH   6  13
ATOM     13  N   LIG d   1       2.618  80.618 115.299  0.00  0.00    -0.311 N 
ATOM     14  C   LIG d   1       3.389  81.149 116.246  0.00  0.00     0.210 C 
ATOM     15  C   LIG d   1       4.716  80.421 116.483  0.00  0.00     0.109 C 
ATOM     16  O   LIG d   1       3.086  82.135 116.935  0.00  0.00    -0.276 OA
ATOM     17  H   LIG d   1       2.928  79.800 114.813  0.00  0.00     0.149 HD
ENDBRANCH   6  13
BRANCH   5  18
ATOM     18  N   LIG d   1       0.187  80.830 117.137  0.00  0.00     0.381 N 
ATOM     19  H   LIG d   1       0.832  81.575 117.314  0.00  0.00    -0.090 HD
ATOM     20  H   LIG d   1       0.516  80.009 117.613  0.00  0.00    -0.090 HD
ATOM     21  H   LIG d   1      -0.717  81.078 117.473  0.00  0.00    -0.090 HD
ENDBRANCH   5  18
BRANCH   3  22
ATOM     22  C   LIG d   1      -2.578  80.905 113.228  0.00  0.00     0.382 C 
ATOM     23  O   LIG d   1      -3.075  79.765 113.063  0.00  0.00    -0.241 OA
ATOM     24  O   LIG d   1      -3.216  81.910 112.862  0.00  0.00    -0.241 OA
ENDBRANCH   3  22
TORSDOF 7
ENDMDL
MODEL 8
REMARK VINA RESULT:      -4.4      2.093      4.959
REMARK  7 active torsions:
REMARK  status: ('A' for Active; 'I' for Inactive)
REMARK    1  A    between atoms: C_2  and  C_3 
REMARK    2  A    between atoms: C_3  and  O_6 
REMARK    3  A    between atoms: C_3  and  C_4 
REMARK    4  A    between atoms: C_7  and  O_6 
REMARK    5  A    between atoms: C_9  and  C_10 
REMARK    6  A    between atoms: N_15  and  C_14 
REMARK    7  A    between atoms: N_20  and  C_19 
REMARK       I    between atoms: C_22  and  N_20 
ROOT
ATOM      1  C   LIG d   1       1.033  81.451 114.250  0.00  0.00     0.161 C 
ATOM      2  C   LIG d   1       2.068  81.418 113.300  0.00  0.00     0.016 C 
ATOM      3  C   LIG d   1       1.912  80.894 111.996  0.00  0.00     0.038 C 
ATOM      4  C   LIG d   1       0.660  80.504 111.500  0.00  0.00     0.028 C 
ATOM      5  C   LIG d   1      -0.308  80.050 112.587  0.00  0.00    -0.047 C 
ATOM      6  C   LIG d   1      -0.368  81.132 113.689  0.00  0.00     0.091 C 
ENDROOT
BRANCH   1   7
ATOM      7  O   LIG d   1       1.026  82.727 114.920  0.00  0.00    -0.368 OA
BRANCH   7   8
ATOM      8  C   LIG d   1       1.727  82.786 116.187  0.00  0.00     0.119 C 
BRANCH   8   9
ATOM      9  C   LIG d   1       0.796  83.482 117.199  0.00  0.00     0.028 C 
ATOM     10  C   LIG d   1      -0.237  82.518 117.806  0.00  0.00     0.006 C 
ENDBRANCH   8   9
BRANCH   8  11
ATOM     11  C   LIG d   1       2.968  83.679 116.096  0.00  0.00     0.028 C 
ATOM     12  C   LIG d   1       4.280  82.880 116.128  0.00  0.00     0.006 C 
ENDBRANCH   8  11
ENDBRANCH   7   8
ENDBRANCH   1   7
BRANCH   6  13
ATOM     13  N   LIG d   1      -1.229  80.729 114.833  0.00  0.00    -0.311 N 
ATOM     14  C   LIG d   1      -2.517  81.051 114.929  0.00  0.00     0.210 C 
ATOM     15  C   LIG d   1      -3.215  80.553 116.199  0.00  0.00     0.109 C 
ATOM     16  O   LIG d   1      -3.157  81.674 114.068  0.00  0.00    -0.276 OA
ATOM     17  H   LIG d   1      -0.798  80.195 115.562  0.00  0.00     0.149 HD
ENDBRANCH   6  13
BRANCH   5  18
ATOM     18  N   LIG d   1      -1.614  79.803 111.947  0.00  0.00     0.381 N 
ATOM     19  H   LIG d   1      -1.514  79.116 111.227  0.00  0.00    -0.090 HD
ATOM     20  H   LIG d   1      -1.936  80.657 111.526  0.00  0.00    -0.090 HD
ATOM     21  H   LIG d   1      -2.273  79.491 112.626  0.00  0.00    -0.090 HD
ENDBRANCH   5  18
BRANCH   3  22
ATOM     22  C   LIG d   1       3.025  80.720 111.188  0.00  0.00     0.382 C 
ATOM     23  O   LIG d   1       3.978  81.534 111.249  0.00  0.00    -0.241 OA
ATOM     24  O   LIG d   1       3.068  79.785 110.366  0.00  0.00    -0.241 OA
ENDBRANCH   3  22
TORSDOF 7
ENDMDL
MODEL 9
REMARK VINA RESULT:      -4.3      1.840      2.517
REMARK  7 active torsions:
REMARK  status: ('A' for Active; 'I' for Inactive)
REMARK    1  A    between atoms: C_2  and  C_3 
REMARK    2  A    between atoms: C_3  and  O_6 
REMARK    3  A    between atoms: C_3  and  C_4 
REMARK    4  A    between atoms: C_7  and  O_6 
REMARK    5  A    between atoms: C_9  and  C_10 
REMARK    6  A    between atoms: N_15  and  C_14 
REMARK    7  A    between atoms: N_20  and  C_19 
REMARK       I    between atoms: C_22  and  N_20 
ROOT
ATOM      1  C   LIG d   1       1.065  81.249 113.306  0.00  0.00     0.161 C 
ATOM      2  C   LIG d   1       0.094  80.280 113.605  0.00  0.00     0.016 C 
ATOM      3  C   LIG d   1      -0.730  79.676 112.628  0.00  0.00     0.038 C 
ATOM      4  C   LIG d   1      -0.531  79.891 111.256  0.00  0.00     0.028 C 
ATOM      5  C   LIG d   1       0.101  81.242 110.940  0.00  0.00    -0.047 C 
ATOM      6  C   LIG d   1       1.372  81.415 111.803  0.00  0.00     0.091 C 
ENDROOT
BRANCH   1   7
ATOM      7  O   LIG d   1       2.276  80.969 114.037  0.00  0.00    -0.368 OA
BRANCH   7   8
ATOM      8  C   LIG d   1       2.636  81.925 115.064  0.00  0.00     0.119 C 
BRANCH   8   9
ATOM      9  C   LIG d   1       2.640  81.177 116.411  0.00  0.00     0.028 C 
ATOM     10  C   LIG d   1       3.955  80.419 116.658  0.00  0.00     0.006 C 
ENDBRANCH   8   9
BRANCH   8  11
ATOM     11  C   LIG d   1       1.571  83.016 115.208  0.00  0.00     0.028 C 
ATOM     12  C   LIG d   1       1.015  83.120 116.638  0.00  0.00     0.006 C 
ENDBRANCH   8  11
ENDBRANCH   7   8
ENDBRANCH   1   7
BRANCH   6  13
ATOM     13  N   LIG d   1       2.006  82.746 111.618  0.00  0.00    -0.311 N 
ATOM     14  C   LIG d   1       3.295  82.910 111.324  0.00  0.00     0.210 C 
ATOM     15  C   LIG d   1       3.749  84.367 111.195  0.00  0.00     0.109 C 
ATOM     16  O   LIG d   1       4.098  81.985 111.126  0.00  0.00    -0.276 OA
ATOM     17  H   LIG d   1       1.420  83.550 111.729  0.00  0.00     0.149 HD
ENDBRANCH   6  13
BRANCH   5  18
ATOM     18  N   LIG d   1       0.377  81.277 109.491  0.00  0.00     0.381 N 
ATOM     19  H   LIG d   1      -0.283  81.874 109.035  0.00  0.00    -0.090 HD
ATOM     20  H   LIG d   1       0.274  80.350 109.118  0.00  0.00    -0.090 HD
ATOM     21  H   LIG d   1       1.303  81.607 109.328  0.00  0.00    -0.090 HD
ENDBRANCH   5  18
BRANCH   3  22
ATOM     22  C   LIG d   1      -1.791  78.875 113.022  0.00  0.00     0.382 C 
ATOM     23  O   LIG d   1      -2.792  79.390 113.576  0.00  0.00    -0.241 OA
ATOM     24  O   LIG d   1      -1.741  77.640 112.871  0.00  0.00    -0.241 OA
ENDBRANCH   3  22
TORSDOF 7
ENDMDL
