MODEL 1
REMARK VINA RESULT:      -5.3      0.000      0.000
REMARK  7 active torsions:
REMARK  status: ('A' for Active; 'I' for Inactive)
REMARK    1  A    between atoms: C_2  and  C_3 
REMARK    2  A    between atoms: C_3  and  O_6 
REMARK    3  A    between atoms: C_3  and  C_4 
REMARK    4  A    between atoms: C_7  and  O_6 
REMARK    5  A    between atoms: C_9  and  C_10 
REMARK    6  A    between atoms: N_15  and  C_14 
REMARK    7  A    between atoms: N_20  and  C_19 
REMARK       I    between atoms: C_22  and  N_20 
ROOT
ATOM      1  C   LIG d   1      -1.008  81.234 112.164  0.00  0.00     0.161 C 
ATOM      2  C   LIG d   1      -1.915  80.202 112.453  0.00  0.00     0.016 C 
ATOM      3  C   LIG d   1      -1.874  78.933 111.831  0.00  0.00     0.038 C 
ATOM      4  C   LIG d   1      -0.822  78.557 110.982  0.00  0.00     0.028 C 
ATOM      5  C   LIG d   1      -0.165  79.737 110.273  0.00  0.00    -0.047 C 
ATOM      6  C   LIG d   1       0.213  80.806 111.324  0.00  0.00     0.091 C 
ENDROOT
BRANCH   1   7
ATOM      7  O   LIG d   1      -0.578  81.863 113.388  0.00  0.00    -0.368 OA
BRANCH   7   8
ATOM      8  C   LIG d   1       0.654  81.362 113.963  0.00  0.00     0.119 C 
BRANCH   8   9
ATOM      9  C   LIG d   1       0.277  80.480 115.169  0.00  0.00     0.028 C 
ATOM     10  C   LIG d   1       0.543  78.988 114.911  0.00  0.00     0.006 C 
ENDBRANCH   8   9
BRANCH   8  11
ATOM     11  C   LIG d   1       1.502  82.499 114.542  0.00  0.00     0.028 C 
ATOM     12  C   LIG d   1       1.206  83.857 113.885  0.00  0.00     0.006 C 
ENDBRANCH   8  11
ENDBRANCH   7   8
ENDBRANCH   1   7
BRANCH   6  13
ATOM     13  N   LIG d   1       0.786  82.031 110.706  0.00  0.00    -0.311 N 
ATOM     14  C   LIG d   1       2.093  82.272 110.632  0.00  0.00     0.210 C 
ATOM     15  C   LIG d   1       2.469  83.603 109.973  0.00  0.00     0.109 C 
ATOM     16  O   LIG d   1       2.979  81.496 111.021  0.00  0.00    -0.276 OA
ATOM     17  H   LIG d   1       0.139  82.700 110.336  0.00  0.00     0.149 HD
ENDBRANCH   6  13
BRANCH   5  18
ATOM     18  N   LIG d   1       1.000  79.218 109.531  0.00  0.00     0.381 N 
ATOM     19  H   LIG d   1       0.791  78.311 109.164  0.00  0.00    -0.090 HD
ATOM     20  H   LIG d   1       1.776  79.132 110.163  0.00  0.00    -0.090 HD
ATOM     21  H   LIG d   1       1.235  79.839 108.788  0.00  0.00    -0.090 HD
ENDBRANCH   5  18
BRANCH   3  22
ATOM     22  C   LIG d   1      -2.915  78.038 112.025  0.00  0.00     0.382 C 
ATOM     23  O   LIG d   1      -3.440  77.464 111.041  0.00  0.00    -0.241 OA
ATOM     24  O   LIG d   1      -3.365  77.830 113.168  0.00  0.00    -0.241 OA
ENDBRANCH   3  22
TORSDOF 7
ENDMDL
MODEL 2
REMARK VINA RESULT:      -4.9      0.710      1.685
REMARK  7 active torsions:
REMARK  status: ('A' for Active; 'I' for Inactive)
REMARK    1  A    between atoms: C_2  and  C_3 
REMARK    2  A    between atoms: C_3  and  O_6 
REMARK    3  A    between atoms: C_3  and  C_4 
REMARK    4  A    between atoms: C_7  and  O_6 
REMARK    5  A    between atoms: C_9  and  C_10 
REMARK    6  A    between atoms: N_15  and  C_14 
REMARK    7  A    between atoms: N_20  and  C_19 
REMARK       I    between atoms: C_22  and  N_20 
ROOT
ATOM      1  C   LIG d   1      -0.762  81.304 112.098  0.00  0.00     0.161 C 
ATOM      2  C   LIG d   1      -1.710  80.325 112.440  0.00  0.00     0.016 C 
ATOM      3  C   LIG d   1      -1.757  79.045 111.842  0.00  0.00     0.038 C 
ATOM      4  C   LIG d   1      -0.760  78.601 110.961  0.00  0.00     0.028 C 
ATOM      5  C   LIG d   1      -0.071  79.732 110.206  0.00  0.00    -0.047 C 
ATOM      6  C   LIG d   1       0.402  80.799 111.220  0.00  0.00     0.091 C 
ENDROOT
BRANCH   1   7
ATOM      7  O   LIG d   1      -0.254  81.931 113.292  0.00  0.00    -0.368 OA
BRANCH   7   8
ATOM      8  C   LIG d   1       0.149  81.038 114.359  0.00  0.00     0.119 C 
BRANCH   8   9
ATOM      9  C   LIG d   1       0.166  81.855 115.665  0.00  0.00     0.028 C 
ATOM     10  C   LIG d   1       0.694  83.284 115.456  0.00  0.00     0.006 C 
ENDBRANCH   8   9
BRANCH   8  11
ATOM     11  C   LIG d   1       1.588  80.551 114.165  0.00  0.00     0.028 C 
ATOM     12  C   LIG d   1       2.015  79.518 115.220  0.00  0.00     0.006 C 
ENDBRANCH   8  11
ENDBRANCH   7   8
ENDBRANCH   1   7
BRANCH   6  13
ATOM     13  N   LIG d   1       1.011  81.981 110.557  0.00  0.00    -0.311 N 
ATOM     14  C   LIG d   1       2.326  82.183 110.483  0.00  0.00     0.210 C 
ATOM     15  C   LIG d   1       2.742  83.476 109.774  0.00  0.00     0.109 C 
ATOM     16  O   LIG d   1       3.187  81.400 110.910  0.00  0.00    -0.276 OA
ATOM     17  H   LIG d   1       0.386  82.652 110.156  0.00  0.00     0.149 HD
ENDBRANCH   6  13
BRANCH   5  18
ATOM     18  N   LIG d   1       1.036  79.141 109.430  0.00  0.00     0.381 N 
ATOM     19  H   LIG d   1       0.766  79.050 108.471  0.00  0.00    -0.090 HD
ATOM     20  H   LIG d   1       1.233  78.224 109.791  0.00  0.00    -0.090 HD
ATOM     21  H   LIG d   1       1.847  79.715 109.501  0.00  0.00    -0.090 HD
ENDBRANCH   5  18
BRANCH   3  22
ATOM     22  C   LIG d   1      -2.834  78.209 112.093  0.00  0.00     0.382 C 
ATOM     23  O   LIG d   1      -3.266  78.076 113.263  0.00  0.00    -0.241 OA
ATOM     24  O   LIG d   1      -3.352  77.552 111.170  0.00  0.00    -0.241 OA
ENDBRANCH   3  22
TORSDOF 7
ENDMDL
MODEL 3
REMARK VINA RESULT:      -4.8      2.296      5.544
REMARK  7 active torsions:
REMARK  status: ('A' for Active; 'I' for Inactive)
REMARK    1  A    between atoms: C_2  and  C_3 
REMARK    2  A    between atoms: C_3  and  O_6 
REMARK    3  A    between atoms: C_3  and  C_4 
REMARK    4  A    between atoms: C_7  and  O_6 
REMARK    5  A    between atoms: C_9  and  C_10 
REMARK    6  A    between atoms: N_15  and  C_14 
REMARK    7  A    between atoms: N_20  and  C_19 
REMARK       I    between atoms: C_22  and  N_20 
ROOT
ATOM      1  C   LIG d   1      -0.761  81.784 112.800  0.00  0.00     0.161 C 
ATOM      2  C   LIG d   1       0.150  82.579 113.515  0.00  0.00     0.016 C 
ATOM      3  C   LIG d   1       1.094  82.054 114.427  0.00  0.00     0.038 C 
ATOM      4  C   LIG d   1       1.293  80.673 114.574  0.00  0.00     0.028 C 
ATOM      5  C   LIG d   1       0.055  79.844 114.250  0.00  0.00    -0.047 C 
ATOM      6  C   LIG d   1      -0.483  80.267 112.864  0.00  0.00     0.091 C 
ENDROOT
BRANCH   1   7
ATOM      7  O   LIG d   1      -0.823  82.224 111.430  0.00  0.00    -0.368 OA
BRANCH   7   8
ATOM      8  C   LIG d   1       0.429  82.651 110.839  0.00  0.00     0.119 C 
BRANCH   8   9
ATOM      9  C   LIG d   1       0.150  83.940 110.042  0.00  0.00     0.028 C 
ATOM     10  C   LIG d   1       1.441  84.680 109.652  0.00  0.00     0.006 C 
ENDBRANCH   8   9
BRANCH   8  11
ATOM     11  C   LIG d   1       0.933  81.638 109.808  0.00  0.00     0.028 C 
ATOM     12  C   LIG d   1       2.379  81.189 110.070  0.00  0.00     0.006 C 
ENDBRANCH   8  11
ENDBRANCH   7   8
ENDBRANCH   1   7
BRANCH   6  13
ATOM     13  N   LIG d   1      -1.743  79.564 112.507  0.00  0.00    -0.311 N 
ATOM     14  C   LIG d   1      -1.782  78.472 111.745  0.00  0.00     0.210 C 
ATOM     15  C   LIG d   1      -3.186  77.918 111.482  0.00  0.00     0.109 C 
ATOM     16  O   LIG d   1      -0.786  77.892 111.289  0.00  0.00    -0.276 OA
ATOM     17  H   LIG d   1      -2.597  79.950 112.861  0.00  0.00     0.149 HD
ENDBRANCH   6  13
BRANCH   5  18
ATOM     18  N   LIG d   1       0.442  78.422 114.310  0.00  0.00     0.381 N 
ATOM     19  H   LIG d   1      -0.377  77.848 114.312  0.00  0.00    -0.090 HD
ATOM     20  H   LIG d   1       0.944  78.258 115.165  0.00  0.00    -0.090 HD
ATOM     21  H   LIG d   1       1.017  78.191 113.530  0.00  0.00    -0.090 HD
ENDBRANCH   5  18
BRANCH   3  22
ATOM     22  C   LIG d   1       1.823  82.914 115.234  0.00  0.00     0.382 C 
ATOM     23  O   LIG d   1       1.386  84.064 115.480  0.00  0.00    -0.241 OA
ATOM     24  O   LIG d   1       2.933  82.571 115.683  0.00  0.00    -0.241 OA
ENDBRANCH   3  22
TORSDOF 7
ENDMDL
MODEL 4
REMARK VINA RESULT:      -4.8      2.852      4.960
REMARK  7 active torsions:
REMARK  status: ('A' for Active; 'I' for Inactive)
REMARK    1  A    between atoms: C_2  and  C_3 
REMARK    2  A    between atoms: C_3  and  O_6 
REMARK    3  A    between atoms: C_3  and  C_4 
REMARK    4  A    between atoms: C_7  and  O_6 
REMARK    5  A    between atoms: C_9  and  C_10 
REMARK    6  A    between atoms: N_15  and  C_14 
REMARK    7  A    between atoms: N_20  and  C_19 
REMARK       I    between atoms: C_22  and  N_20 
ROOT
ATOM      1  C   LIG d   1       0.008  79.244 114.181  0.00  0.00     0.161 C 
ATOM      2  C   LIG d   1      -0.283  80.550 113.752  0.00  0.00     0.016 C 
ATOM      3  C   LIG d   1      -1.052  80.838 112.601  0.00  0.00     0.038 C 
ATOM      4  C   LIG d   1      -1.713  79.832 111.880  0.00  0.00     0.028 C 
ATOM      5  C   LIG d   1      -1.036  78.470 111.980  0.00  0.00    -0.047 C 
ATOM      6  C   LIG d   1      -0.798  78.136 113.471  0.00  0.00     0.091 C 
ENDROOT
BRANCH   1   7
ATOM      7  O   LIG d   1      -0.162  79.150 115.609  0.00  0.00    -0.368 OA
BRANCH   7   8
ATOM      8  C   LIG d   1       0.883  79.747 116.415  0.00  0.00     0.119 C 
BRANCH   8   9
ATOM      9  C   LIG d   1       2.045  78.737 116.489  0.00  0.00     0.028 C 
ATOM     10  C   LIG d   1       1.592  77.357 116.995  0.00  0.00     0.006 C 
ENDBRANCH   8   9
BRANCH   8  11
ATOM     11  C   LIG d   1       0.425  79.945 117.863  0.00  0.00     0.028 C 
ATOM     12  C   LIG d   1      -0.445  81.198 118.047  0.00  0.00     0.006 C 
ENDBRANCH   8  11
ENDBRANCH   7   8
ENDBRANCH   1   7
BRANCH   6  13
ATOM     13  N   LIG d   1      -0.063  76.857 113.655  0.00  0.00    -0.311 N 
ATOM     14  C   LIG d   1      -0.536  75.836 114.368  0.00  0.00     0.210 C 
ATOM     15  C   LIG d   1       0.391  74.619 114.447  0.00  0.00     0.109 C 
ATOM     16  O   LIG d   1      -1.648  75.811 114.916  0.00  0.00    -0.276 OA
ATOM     17  H   LIG d   1       0.835  76.780 113.218  0.00  0.00     0.149 HD
ENDBRANCH   6  13
BRANCH   5  18
ATOM     18  N   LIG d   1      -1.903  77.490 111.299  0.00  0.00     0.381 N 
ATOM     19  H   LIG d   1      -2.279  76.848 111.968  0.00  0.00    -0.090 HD
ATOM     20  H   LIG d   1      -1.350  76.970 110.640  0.00  0.00    -0.090 HD
ATOM     21  H   LIG d   1      -2.643  77.960 110.826  0.00  0.00    -0.090 HD
ENDBRANCH   5  18
BRANCH   3  22
ATOM     22  C   LIG d   1      -1.132  82.142 112.136  0.00  0.00     0.382 C 
ATOM     23  O   LIG d   1      -0.839  82.402 110.945  0.00  0.00    -0.241 OA
ATOM     24  O   LIG d   1      -1.451  83.068 112.906  0.00  0.00    -0.241 OA
ENDBRANCH   3  22
TORSDOF 7
ENDMDL
MODEL 5
REMARK VINA RESULT:      -4.6      2.474      5.636
REMARK  7 active torsions:
REMARK  status: ('A' for Active; 'I' for Inactive)
REMARK    1  A    between atoms: C_2  and  C_3 
REMARK    2  A    between atoms: C_3  and  O_6 
REMARK    3  A    between atoms: C_3  and  C_4 
REMARK    4  A    between atoms: C_7  and  O_6 
REMARK    5  A    between atoms: C_9  and  C_10 
REMARK    6  A    between atoms: N_15  and  C_14 
REMARK    7  A    between atoms: N_20  and  C_19 
REMARK       I    between atoms: C_22  and  N_20 
ROOT
ATOM      1  C   LIG d   1       0.494  79.679 114.373  0.00  0.00     0.161 C 
ATOM      2  C   LIG d   1       1.340  80.610 114.999  0.00  0.00     0.016 C 
ATOM      3  C   LIG d   1       1.365  81.984 114.667  0.00  0.00     0.038 C 
ATOM      4  C   LIG d   1       0.433  82.551 113.785  0.00  0.00     0.028 C 
ATOM      5  C   LIG d   1      -0.105  81.564 112.755  0.00  0.00    -0.047 C 
ATOM      6  C   LIG d   1      -0.607  80.298 113.487  0.00  0.00     0.091 C 
ENDROOT
BRANCH   1   7
ATOM      7  O   LIG d   1      -0.089  78.807 115.361  0.00  0.00    -0.368 OA
BRANCH   7   8
ATOM      8  C   LIG d   1       0.577  77.536 115.561  0.00  0.00     0.119 C 
BRANCH   8   9
ATOM      9  C   LIG d   1      -0.151  76.490 114.695  0.00  0.00     0.028 C 
ATOM     10  C   LIG d   1      -1.672  76.500 114.918  0.00  0.00     0.006 C 
ENDBRANCH   8   9
BRANCH   8  11
ATOM     11  C   LIG d   1       0.421  77.046 117.004  0.00  0.00     0.028 C 
ATOM     12  C   LIG d   1       0.263  78.197 118.010  0.00  0.00     0.006 C 
ENDBRANCH   8  11
ENDBRANCH   7   8
ENDBRANCH   1   7
BRANCH   6  13
ATOM     13  N   LIG d   1      -1.073  79.246 112.546  0.00  0.00    -0.311 N 
ATOM     14  C   LIG d   1      -2.353  79.061 112.229  0.00  0.00     0.210 C 
ATOM     15  C   LIG d   1      -2.617  77.908 111.256  0.00  0.00     0.109 C 
ATOM     16  O   LIG d   1      -3.291  79.762 112.636  0.00  0.00    -0.276 OA
ATOM     17  H   LIG d   1      -0.374  78.652 112.145  0.00  0.00     0.149 HD
ENDBRANCH   6  13
BRANCH   5  18
ATOM     18  N   LIG d   1      -1.166  82.249 111.992  0.00  0.00     0.381 N 
ATOM     19  H   LIG d   1      -0.968  82.194 111.013  0.00  0.00    -0.090 HD
ATOM     20  H   LIG d   1      -1.182  83.218 112.256  0.00  0.00    -0.090 HD
ATOM     21  H   LIG d   1      -2.049  81.830 112.184  0.00  0.00    -0.090 HD
ENDBRANCH   5  18
BRANCH   3  22
ATOM     22  C   LIG d   1       2.357  82.799 115.190  0.00  0.00     0.382 C 
ATOM     23  O   LIG d   1       2.494  83.972 114.765  0.00  0.00    -0.241 OA
ATOM     24  O   LIG d   1       3.146  82.363 116.049  0.00  0.00    -0.241 OA
ENDBRANCH   3  22
TORSDOF 7
ENDMDL
MODEL 6
REMARK VINA RESULT:      -4.5      2.024      2.734
REMARK  7 active torsions:
REMARK  status: ('A' for Active; 'I' for Inactive)
REMARK    1  A    between atoms: C_2  and  C_3 
REMARK    2  A    between atoms: C_3  and  O_6 
REMARK    3  A    between atoms: C_3  and  C_4 
REMARK    4  A    between atoms: C_7  and  O_6 
REMARK    5  A    between atoms: C_9  and  C_10 
REMARK    6  A    between atoms: N_15  and  C_14 
REMARK    7  A    between atoms: N_20  and  C_19 
REMARK       I    between atoms: C_22  and  N_20 
ROOT
ATOM      1  C   LIG d   1      -0.089  80.106 113.551  0.00  0.00     0.161 C 
ATOM      2  C   LIG d   1      -0.278  78.913 114.268  0.00  0.00     0.016 C 
ATOM      3  C   LIG d   1      -0.789  77.729 113.687  0.00  0.00     0.038 C 
ATOM      4  C   LIG d   1      -1.004  77.614 112.306  0.00  0.00     0.028 C 
ATOM      5  C   LIG d   1      -1.305  78.946 111.626  0.00  0.00    -0.047 C 
ATOM      6  C   LIG d   1      -0.213  79.967 112.019  0.00  0.00     0.091 C 
ENDROOT
BRANCH   1   7
ATOM      7  O   LIG d   1       1.183  80.689 113.899  0.00  0.00    -0.368 OA
BRANCH   7   8
ATOM      8  C   LIG d   1       1.175  81.616 115.013  0.00  0.00     0.119 C 
BRANCH   8   9
ATOM      9  C   LIG d   1       1.325  83.036 114.433  0.00  0.00     0.028 C 
ATOM     10  C   LIG d   1      -0.028  83.747 114.266  0.00  0.00     0.006 C 
ENDBRANCH   8   9
BRANCH   8  11
ATOM     11  C   LIG d   1       2.397  81.415 115.914  0.00  0.00     0.028 C 
ATOM     12  C   LIG d   1       3.122  80.086 115.647  0.00  0.00     0.006 C 
ENDBRANCH   8  11
ENDBRANCH   7   8
ENDBRANCH   1   7
BRANCH   6  13
ATOM     13  N   LIG d   1      -0.477  81.321 111.465  0.00  0.00    -0.311 N 
ATOM     14  C   LIG d   1       0.464  82.082 110.911  0.00  0.00     0.210 C 
ATOM     15  C   LIG d   1      -0.017  83.451 110.420  0.00  0.00     0.109 C 
ATOM     16  O   LIG d   1       1.646  81.741 110.749  0.00  0.00    -0.276 OA
ATOM     17  H   LIG d   1      -1.416  81.663 111.526  0.00  0.00     0.149 HD
ENDBRANCH   6  13
BRANCH   5  18
ATOM     18  N   LIG d   1      -1.371  78.700 110.173  0.00  0.00     0.381 N 
ATOM     19  H   LIG d   1      -1.332  77.717 109.994  0.00  0.00    -0.090 HD
ATOM     20  H   LIG d   1      -0.578  79.133 109.734  0.00  0.00    -0.090 HD
ATOM     21  H   LIG d   1      -2.214  79.080 109.801  0.00  0.00    -0.090 HD
ENDBRANCH   5  18
BRANCH   3  22
ATOM     22  C   LIG d   1      -1.128  76.657 114.498  0.00  0.00     0.382 C 
ATOM     23  O   LIG d   1      -0.694  75.509 114.234  0.00  0.00    -0.241 OA
ATOM     24  O   LIG d   1      -1.897  76.814 115.465  0.00  0.00    -0.241 OA
ENDBRANCH   3  22
TORSDOF 7
ENDMDL
MODEL 7
REMARK VINA RESULT:      -4.5      2.861      5.084
REMARK  7 active torsions:
REMARK  status: ('A' for Active; 'I' for Inactive)
REMARK    1  A    between atoms: C_2  and  C_3 
REMARK    2  A    between atoms: C_3  and  O_6 
REMARK    3  A    between atoms: C_3  and  C_4 
REMARK    4  A    between atoms: C_7  and  O_6 
REMARK    5  A    between atoms: C_9  and  C_10 
REMARK    6  A    between atoms: N_15  and  C_14 
REMARK    7  A    between atoms: N_20  and  C_19 
REMARK       I    between atoms: C_22  and  N_20 
ROOT
ATOM      1  C   LIG d   1       0.931  80.698 114.106  0.00  0.00     0.161 C 
ATOM      2  C   LIG d   1       0.610  81.912 113.476  0.00  0.00     0.016 C 
ATOM      3  C   LIG d   1      -0.534  82.088 112.664  0.00  0.00     0.038 C 
ATOM      4  C   LIG d   1      -1.521  81.098 112.549  0.00  0.00     0.028 C 
ATOM      5  C   LIG d   1      -0.989  79.684 112.759  0.00  0.00    -0.047 C 
ATOM      6  C   LIG d   1      -0.191  79.640 114.083  0.00  0.00     0.091 C 
ENDROOT
BRANCH   1   7
ATOM      7  O   LIG d   1       1.356  80.949 115.461  0.00  0.00    -0.368 OA
BRANCH   7   8
ATOM      8  C   LIG d   1       0.322  81.368 116.386  0.00  0.00     0.119 C 
BRANCH   8   9
ATOM      9  C   LIG d   1       0.797  82.675 117.050  0.00  0.00     0.028 C 
ATOM     10  C   LIG d   1       0.035  83.906 116.533  0.00  0.00     0.006 C 
ENDBRANCH   8   9
BRANCH   8  11
ATOM     11  C   LIG d   1       0.161  80.365 117.532  0.00  0.00     0.028 C 
ATOM     12  C   LIG d   1       1.397  79.472 117.721  0.00  0.00     0.006 C 
ENDBRANCH   8  11
ENDBRANCH   7   8
ENDBRANCH   1   7
BRANCH   6  13
ATOM     13  N   LIG d   1       0.436  78.314 114.323  0.00  0.00    -0.311 N 
ATOM     14  C   LIG d   1      -0.127  77.361 115.064  0.00  0.00     0.210 C 
ATOM     15  C   LIG d   1       0.698  76.077 115.200  0.00  0.00     0.109 C 
ATOM     16  O   LIG d   1      -1.244  77.445 115.595  0.00  0.00    -0.276 OA
ATOM     17  H   LIG d   1       1.329  78.149 113.903  0.00  0.00     0.149 HD
ENDBRANCH   6  13
BRANCH   5  18
ATOM     18  N   LIG d   1      -2.143  78.767 112.749  0.00  0.00     0.381 N 
ATOM     19  H   LIG d   1      -2.941  79.230 112.360  0.00  0.00    -0.090 HD
ATOM     20  H   LIG d   1      -2.360  78.507 113.695  0.00  0.00    -0.090 HD
ATOM     21  H   LIG d   1      -1.929  77.954 112.214  0.00  0.00    -0.090 HD
ENDBRANCH   5  18
BRANCH   3  22
ATOM     22  C   LIG d   1      -0.680  83.252 111.924  0.00  0.00     0.382 C 
ATOM     23  O   LIG d   1      -0.664  83.204 110.671  0.00  0.00    -0.241 OA
ATOM     24  O   LIG d   1      -0.782  84.354 112.495  0.00  0.00    -0.241 OA
ENDBRANCH   3  22
TORSDOF 7
ENDMDL
MODEL 8
REMARK VINA RESULT:      -4.2      3.513      6.452
REMARK  7 active torsions:
REMARK  status: ('A' for Active; 'I' for Inactive)
REMARK    1  A    between atoms: C_2  and  C_3 
REMARK    2  A    between atoms: C_3  and  O_6 
REMARK    3  A    between atoms: C_3  and  C_4 
REMARK    4  A    between atoms: C_7  and  O_6 
REMARK    5  A    between atoms: C_9  and  C_10 
REMARK    6  A    between atoms: N_15  and  C_14 
REMARK    7  A    between atoms: N_20  and  C_19 
REMARK       I    between atoms: C_22  and  N_20 
ROOT
ATOM      1  C   LIG d   1       0.130  79.300 114.832  0.00  0.00     0.161 C 
ATOM      2  C   LIG d   1       1.347  79.985 114.986  0.00  0.00     0.016 C 
ATOM      3  C   LIG d   1       2.411  79.510 115.786  0.00  0.00     0.038 C 
ATOM      4  C   LIG d   1       2.388  78.234 116.370  0.00  0.00     0.028 C 
ATOM      5  C   LIG d   1       0.980  77.725 116.656  0.00  0.00    -0.047 C 
ATOM      6  C   LIG d   1       0.128  77.855 115.372  0.00  0.00     0.091 C 
ENDROOT
BRANCH   1   7
ATOM      7  O   LIG d   1      -0.270  79.318 113.448  0.00  0.00    -0.368 OA
BRANCH   7   8
ATOM      8  C   LIG d   1      -0.827  80.564 112.961  0.00  0.00     0.119 C 
BRANCH   8   9
ATOM      9  C   LIG d   1      -2.269  80.276 112.498  0.00  0.00     0.028 C 
ATOM     10  C   LIG d   1      -2.494  78.791 112.167  0.00  0.00     0.006 C 
ENDBRANCH   8   9
BRANCH   8  11
ATOM     11  C   LIG d   1      -0.090  81.053 111.711  0.00  0.00     0.028 C 
ATOM     12  C   LIG d   1      -0.287  82.555 111.453  0.00  0.00     0.006 C 
ENDBRANCH   8  11
ENDBRANCH   7   8
ENDBRANCH   1   7
BRANCH   6  13
ATOM     13  N   LIG d   1      -1.287  77.457 115.588  0.00  0.00    -0.311 N 
ATOM     14  C   LIG d   1      -1.837  76.375 115.038  0.00  0.00     0.210 C 
ATOM     15  C   LIG d   1      -3.316  76.159 115.375  0.00  0.00     0.109 C 
ATOM     16  O   LIG d   1      -1.231  75.557 114.330  0.00  0.00    -0.276 OA
ATOM     17  H   LIG d   1      -1.843  78.048 116.175  0.00  0.00     0.149 HD
ENDBRANCH   6  13
BRANCH   5  18
ATOM     18  N   LIG d   1       1.097  76.335 117.134  0.00  0.00     0.381 N 
ATOM     19  H   LIG d   1       1.471  75.757 116.408  0.00  0.00    -0.090 HD
ATOM     20  H   LIG d   1       0.182  75.993 117.369  0.00  0.00    -0.090 HD
ATOM     21  H   LIG d   1       1.689  76.298 117.935  0.00  0.00    -0.090 HD
ENDBRANCH   5  18
BRANCH   3  22
ATOM     22  C   LIG d   1       3.499  80.331 116.040  0.00  0.00     0.382 C 
ATOM     23  O   LIG d   1       4.621  79.827 116.287  0.00  0.00    -0.241 OA
ATOM     24  O   LIG d   1       3.363  81.569 116.070  0.00  0.00    -0.241 OA
ENDBRANCH   3  22
TORSDOF 7
ENDMDL
MODEL 9
REMARK VINA RESULT:      -4.1      4.560      6.463
REMARK  7 active torsions:
REMARK  status: ('A' for Active; 'I' for Inactive)
REMARK    1  A    between atoms: C_2  and  C_3 
REMARK    2  A    between atoms: C_3  and  O_6 
REMARK    3  A    between atoms: C_3  and  C_4 
REMARK    4  A    between atoms: C_7  and  O_6 
REMARK    5  A    between atoms: C_9  and  C_10 
REMARK    6  A    between atoms: N_15  and  C_14 
REMARK    7  A    between atoms: N_20  and  C_19 
REMARK       I    between atoms: C_22  and  N_20 
ROOT
ATOM      1  C   LIG d   1       0.601  76.965 115.537  0.00  0.00     0.161 C 
ATOM      2  C   LIG d   1      -0.264  77.378 114.510  0.00  0.00     0.016 C 
ATOM      3  C   LIG d   1      -1.585  76.895 114.364  0.00  0.00     0.038 C 
ATOM      4  C   LIG d   1      -2.185  76.074 115.330  0.00  0.00     0.028 C 
ATOM      5  C   LIG d   1      -1.185  75.231 116.115  0.00  0.00    -0.047 C 
ATOM      6  C   LIG d   1      -0.073  76.154 116.663  0.00  0.00     0.091 C 
ENDROOT
BRANCH   1   7
ATOM      7  O   LIG d   1       1.290  78.106 116.084  0.00  0.00    -0.368 OA
BRANCH   7   8
ATOM      8  C   LIG d   1       0.595  79.374 115.994  0.00  0.00     0.119 C 
BRANCH   8   9
ATOM      9  C   LIG d   1       1.650  80.462 115.715  0.00  0.00     0.028 C 
ATOM     10  C   LIG d   1       2.959  79.880 115.156  0.00  0.00     0.006 C 
ENDBRANCH   8   9
BRANCH   8  11
ATOM     11  C   LIG d   1      -0.040  79.758 117.334  0.00  0.00     0.028 C 
ATOM     12  C   LIG d   1      -0.111  81.279 117.545  0.00  0.00     0.006 C 
ENDBRANCH   8  11
ENDBRANCH   7   8
ENDBRANCH   1   7
BRANCH   6  13
ATOM     13  N   LIG d   1       0.992  75.398 117.373  0.00  0.00    -0.311 N 
ATOM     14  C   LIG d   1       1.309  75.602 118.650  0.00  0.00     0.210 C 
ATOM     15  C   LIG d   1       2.451  74.729 119.180  0.00  0.00     0.109 C 
ATOM     16  O   LIG d   1       0.731  76.399 119.404  0.00  0.00    -0.276 OA
ATOM     17  H   LIG d   1       1.491  74.709 116.845  0.00  0.00     0.149 HD
ENDBRANCH   6  13
BRANCH   5  18
ATOM     18  N   LIG d   1      -1.930  74.529 117.177  0.00  0.00     0.381 N 
ATOM     19  H   LIG d   1      -1.368  73.791 117.553  0.00  0.00    -0.090 HD
ATOM     20  H   LIG d   1      -2.758  74.123 116.779  0.00  0.00    -0.090 HD
ATOM     21  H   LIG d   1      -2.178  75.168 117.899  0.00  0.00    -0.090 HD
ENDBRANCH   5  18
BRANCH   3  22
ATOM     22  C   LIG d   1      -2.307  77.202 113.221  0.00  0.00     0.382 C 
ATOM     23  O   LIG d   1      -3.386  77.835 113.312  0.00  0.00    -0.241 OA
ATOM     24  O   LIG d   1      -1.914  76.815 112.103  0.00  0.00    -0.241 OA
ENDBRANCH   3  22
TORSDOF 7
ENDMDL
