MODEL 1
REMARK VINA RESULT:      -4.6      0.000      0.000
REMARK  7 active torsions:
REMARK  status: ('A' for Active; 'I' for Inactive)
REMARK    1  A    between atoms: C_2  and  C_3 
REMARK    2  A    between atoms: C_3  and  O_6 
REMARK    3  A    between atoms: C_3  and  C_4 
REMARK    4  A    between atoms: C_7  and  O_6 
REMARK    5  A    between atoms: C_9  and  C_10 
REMARK    6  A    between atoms: N_15  and  C_14 
REMARK    7  A    between atoms: N_20  and  C_19 
REMARK       I    between atoms: C_22  and  N_20 
ROOT
ATOM      1  C   LIG d   1      -2.062  77.330 115.951  0.00  0.00     0.161 C 
ATOM      2  C   LIG d   1      -2.548  77.542 114.650  0.00  0.00     0.016 C 
ATOM      3  C   LIG d   1      -2.006  78.501 113.764  0.00  0.00     0.038 C 
ATOM      4  C   LIG d   1      -0.836  79.213 114.067  0.00  0.00     0.028 C 
ATOM      5  C   LIG d   1      -0.608  79.396 115.563  0.00  0.00    -0.047 C 
ATOM      6  C   LIG d   1      -0.716  78.019 116.259  0.00  0.00     0.091 C 
ENDROOT
BRANCH   1   7
ATOM      7  O   LIG d   1      -1.972  75.916 116.215  0.00  0.00    -0.368 OA
BRANCH   7   8
ATOM      8  C   LIG d   1      -0.640  75.346 116.191  0.00  0.00     0.119 C 
BRANCH   8   9
ATOM      9  C   LIG d   1      -0.511  74.525 114.893  0.00  0.00     0.028 C 
ATOM     10  C   LIG d   1       0.300  75.259 113.812  0.00  0.00     0.006 C 
ENDBRANCH   8   9
BRANCH   8  11
ATOM     11  C   LIG d   1      -0.444  74.340 117.329  0.00  0.00     0.028 C 
ATOM     12  C   LIG d   1      -1.466  74.516 118.463  0.00  0.00     0.006 C 
ENDBRANCH   8  11
ENDBRANCH   7   8
ENDBRANCH   1   7
BRANCH   6  13
ATOM     13  N   LIG d   1      -0.589  78.119 117.736  0.00  0.00    -0.311 N 
ATOM     14  C   LIG d   1       0.560  77.948 118.387  0.00  0.00     0.210 C 
ATOM     15  C   LIG d   1       0.466  78.075 119.911  0.00  0.00     0.109 C 
ATOM     16  O   LIG d   1       1.655  77.736 117.845  0.00  0.00    -0.276 OA
ATOM     17  H   LIG d   1      -1.423  78.320 118.253  0.00  0.00     0.149 HD
ENDBRANCH   6  13
BRANCH   5  18
ATOM     18  N   LIG d   1       0.712  80.031 115.739  0.00  0.00     0.381 N 
ATOM     19  H   LIG d   1       0.890  80.178 116.713  0.00  0.00    -0.090 HD
ATOM     20  H   LIG d   1       0.706  80.925 115.281  0.00  0.00    -0.090 HD
ATOM     21  H   LIG d   1       1.423  79.453 115.348  0.00  0.00    -0.090 HD
ENDBRANCH   5  18
BRANCH   3  22
ATOM     22  C   LIG d   1      -2.660  78.784 112.574  0.00  0.00     0.382 C 
ATOM     23  O   LIG d   1      -2.539  79.916 112.047  0.00  0.00    -0.241 OA
ATOM     24  O   LIG d   1      -3.404  77.937 112.045  0.00  0.00    -0.241 OA
ENDBRANCH   3  22
TORSDOF 7
ENDMDL
MODEL 2
REMARK VINA RESULT:      -4.4      3.558      6.072
REMARK  7 active torsions:
REMARK  status: ('A' for Active; 'I' for Inactive)
REMARK    1  A    between atoms: C_2  and  C_3 
REMARK    2  A    between atoms: C_3  and  O_6 
REMARK    3  A    between atoms: C_3  and  C_4 
REMARK    4  A    between atoms: C_7  and  O_6 
REMARK    5  A    between atoms: C_9  and  C_10 
REMARK    6  A    between atoms: N_15  and  C_14 
REMARK    7  A    between atoms: N_20  and  C_19 
REMARK       I    between atoms: C_22  and  N_20 
ROOT
ATOM      1  C   LIG d   1       0.517  80.549 112.826  0.00  0.00     0.161 C 
ATOM      2  C   LIG d   1      -0.511  79.964 112.067  0.00  0.00     0.016 C 
ATOM      3  C   LIG d   1      -1.533  79.164 112.628  0.00  0.00     0.038 C 
ATOM      4  C   LIG d   1      -1.684  79.018 114.015  0.00  0.00     0.028 C 
ATOM      5  C   LIG d   1      -0.378  79.175 114.786  0.00  0.00    -0.047 C 
ATOM      6  C   LIG d   1       0.306  80.492 114.353  0.00  0.00     0.091 C 
ENDROOT
BRANCH   1   7
ATOM      7  O   LIG d   1       0.726  81.909 112.399  0.00  0.00    -0.368 OA
BRANCH   7   8
ATOM      8  C   LIG d   1       1.274  82.083 111.069  0.00  0.00     0.119 C 
BRANCH   8   9
ATOM      9  C   LIG d   1       2.608  82.842 111.214  0.00  0.00     0.028 C 
ATOM     10  C   LIG d   1       3.115  83.397 109.872  0.00  0.00     0.006 C 
ENDBRANCH   8   9
BRANCH   8  11
ATOM     11  C   LIG d   1       0.384  82.987 110.212  0.00  0.00     0.028 C 
ATOM     12  C   LIG d   1      -0.482  83.940 111.052  0.00  0.00     0.006 C 
ENDBRANCH   8  11
ENDBRANCH   7   8
ENDBRANCH   1   7
BRANCH   6  13
ATOM     13  N   LIG d   1       1.631  80.681 114.998  0.00  0.00    -0.311 N 
ATOM     14  C   LIG d   1       1.790  81.230 116.201  0.00  0.00     0.210 C 
ATOM     15  C   LIG d   1       3.243  81.349 116.671  0.00  0.00     0.109 C 
ATOM     16  O   LIG d   1       0.863  81.599 116.937  0.00  0.00    -0.276 OA
ATOM     17  H   LIG d   1       2.436  80.381 114.483  0.00  0.00     0.149 HD
ENDBRANCH   6  13
BRANCH   5  18
ATOM     18  N   LIG d   1      -0.702  79.137 116.224  0.00  0.00     0.381 N 
ATOM     19  H   LIG d   1      -0.546  78.216 116.582  0.00  0.00    -0.090 HD
ATOM     20  H   LIG d   1      -1.674  79.362 116.344  0.00  0.00    -0.090 HD
ATOM     21  H   LIG d   1      -0.139  79.794 116.718  0.00  0.00    -0.090 HD
ENDBRANCH   5  18
BRANCH   3  22
ATOM     22  C   LIG d   1      -2.395  78.468 111.794  0.00  0.00     0.382 C 
ATOM     23  O   LIG d   1      -3.439  77.952 112.262  0.00  0.00    -0.241 OA
ATOM     24  O   LIG d   1      -2.120  78.310 110.590  0.00  0.00    -0.241 OA
ENDBRANCH   3  22
TORSDOF 7
ENDMDL
MODEL 3
REMARK VINA RESULT:      -4.2      1.959      4.009
REMARK  7 active torsions:
REMARK  status: ('A' for Active; 'I' for Inactive)
REMARK    1  A    between atoms: C_2  and  C_3 
REMARK    2  A    between atoms: C_3  and  O_6 
REMARK    3  A    between atoms: C_3  and  C_4 
REMARK    4  A    between atoms: C_7  and  O_6 
REMARK    5  A    between atoms: C_9  and  C_10 
REMARK    6  A    between atoms: N_15  and  C_14 
REMARK    7  A    between atoms: N_20  and  C_19 
REMARK       I    between atoms: C_22  and  N_20 
ROOT
ATOM      1  C   LIG d   1      -0.483  78.712 115.294  0.00  0.00     0.161 C 
ATOM      2  C   LIG d   1      -0.892  79.781 114.480  0.00  0.00     0.016 C 
ATOM      3  C   LIG d   1      -2.051  79.745 113.671  0.00  0.00     0.038 C 
ATOM      4  C   LIG d   1      -2.969  78.686 113.738  0.00  0.00     0.028 C 
ATOM      5  C   LIG d   1      -2.339  77.365 114.166  0.00  0.00    -0.047 C 
ATOM      6  C   LIG d   1      -1.531  77.592 115.464  0.00  0.00     0.091 C 
ENDROOT
BRANCH   1   7
ATOM      7  O   LIG d   1      -0.067  79.209 116.581  0.00  0.00    -0.368 OA
BRANCH   7   8
ATOM      8  C   LIG d   1      -1.072  79.195 117.625  0.00  0.00     0.119 C 
BRANCH   8   9
ATOM      9  C   LIG d   1      -1.345  80.658 118.024  0.00  0.00     0.028 C 
ATOM     10  C   LIG d   1      -0.074  81.523 117.988  0.00  0.00     0.006 C 
ENDBRANCH   8   9
BRANCH   8  11
ATOM     11  C   LIG d   1      -0.547  78.519 118.895  0.00  0.00     0.028 C 
ATOM     12  C   LIG d   1       0.834  77.873 118.699  0.00  0.00     0.006 C 
ENDBRANCH   8  11
ENDBRANCH   7   8
ENDBRANCH   1   7
BRANCH   6  13
ATOM     13  N   LIG d   1      -0.813  76.368 115.906  0.00  0.00    -0.311 N 
ATOM     14  C   LIG d   1      -1.338  75.470 116.738  0.00  0.00     0.210 C 
ATOM     15  C   LIG d   1      -0.421  74.292 117.080  0.00  0.00     0.109 C 
ATOM     16  O   LIG d   1      -2.488  75.521 117.199  0.00  0.00    -0.276 OA
ATOM     17  H   LIG d   1       0.115  76.232 115.555  0.00  0.00     0.149 HD
ENDBRANCH   6  13
BRANCH   5  18
ATOM     18  N   LIG d   1      -3.428  76.383 114.327  0.00  0.00     0.381 N 
ATOM     19  H   LIG d   1      -3.678  76.310 115.293  0.00  0.00    -0.090 HD
ATOM     20  H   LIG d   1      -3.104  75.484 114.016  0.00  0.00    -0.090 HD
ATOM     21  H   LIG d   1      -4.221  76.663 113.792  0.00  0.00    -0.090 HD
ENDBRANCH   5  18
BRANCH   3  22
ATOM     22  C   LIG d   1      -2.281  80.759 112.754  0.00  0.00     0.382 C 
ATOM     23  O   LIG d   1      -3.435  81.232 112.619  0.00  0.00    -0.241 OA
ATOM     24  O   LIG d   1      -1.358  81.176 112.028  0.00  0.00    -0.241 OA
ENDBRANCH   3  22
TORSDOF 7
ENDMDL
MODEL 4
REMARK VINA RESULT:      -4.1      2.921      5.803
REMARK  7 active torsions:
REMARK  status: ('A' for Active; 'I' for Inactive)
REMARK    1  A    between atoms: C_2  and  C_3 
REMARK    2  A    between atoms: C_3  and  O_6 
REMARK    3  A    between atoms: C_3  and  C_4 
REMARK    4  A    between atoms: C_7  and  O_6 
REMARK    5  A    between atoms: C_9  and  C_10 
REMARK    6  A    between atoms: N_15  and  C_14 
REMARK    7  A    between atoms: N_20  and  C_19 
REMARK       I    between atoms: C_22  and  N_20 
ROOT
ATOM      1  C   LIG d   1      -0.643  79.931 114.632  0.00  0.00     0.161 C 
ATOM      2  C   LIG d   1      -0.894  78.685 115.231  0.00  0.00     0.016 C 
ATOM      3  C   LIG d   1      -1.313  77.545 114.508  0.00  0.00     0.038 C 
ATOM      4  C   LIG d   1      -1.364  77.533 113.107  0.00  0.00     0.028 C 
ATOM      5  C   LIG d   1      -1.607  78.910 112.498  0.00  0.00    -0.047 C 
ATOM      6  C   LIG d   1      -0.586  79.908 113.091  0.00  0.00     0.091 C 
ENDROOT
BRANCH   1   7
ATOM      7  O   LIG d   1       0.569  80.497 115.170  0.00  0.00    -0.368 OA
BRANCH   7   8
ATOM      8  C   LIG d   1       0.866  80.172 116.550  0.00  0.00     0.119 C 
BRANCH   8   9
ATOM      9  C   LIG d   1       0.295  81.305 117.425  0.00  0.00     0.028 C 
ATOM     10  C   LIG d   1      -0.885  80.839 118.294  0.00  0.00     0.006 C 
ENDBRANCH   8   9
BRANCH   8  11
ATOM     11  C   LIG d   1       2.375  80.179 116.812  0.00  0.00     0.028 C 
ATOM     12  C   LIG d   1       3.134  81.154 115.898  0.00  0.00     0.006 C 
ENDBRANCH   8  11
ENDBRANCH   7   8
ENDBRANCH   1   7
BRANCH   6  13
ATOM     13  N   LIG d   1      -0.808  81.297 112.611  0.00  0.00    -0.311 N 
ATOM     14  C   LIG d   1      -0.217  81.803 111.530  0.00  0.00     0.210 C 
ATOM     15  C   LIG d   1      -0.569  83.262 111.224  0.00  0.00     0.109 C 
ATOM     16  O   LIG d   1       0.541  81.172 110.778  0.00  0.00    -0.276 OA
ATOM     17  H   LIG d   1      -1.433  81.869 113.145  0.00  0.00     0.149 HD
ENDBRANCH   6  13
BRANCH   5  18
ATOM     18  N   LIG d   1      -1.500  78.774 111.033  0.00  0.00     0.381 N 
ATOM     19  H   LIG d   1      -0.894  78.011 110.807  0.00  0.00    -0.090 HD
ATOM     20  H   LIG d   1      -1.100  79.616 110.657  0.00  0.00    -0.090 HD
ATOM     21  H   LIG d   1      -2.401  78.621 110.638  0.00  0.00    -0.090 HD
ENDBRANCH   5  18
BRANCH   3  22
ATOM     22  C   LIG d   1      -1.724  76.411 115.192  0.00  0.00     0.382 C 
ATOM     23  O   LIG d   1      -1.497  76.303 116.421  0.00  0.00    -0.241 OA
ATOM     24  O   LIG d   1      -2.280  75.475 114.587  0.00  0.00    -0.241 OA
ENDBRANCH   3  22
TORSDOF 7
ENDMDL
MODEL 5
REMARK VINA RESULT:      -4.0      1.268      2.099
REMARK  7 active torsions:
REMARK  status: ('A' for Active; 'I' for Inactive)
REMARK    1  A    between atoms: C_2  and  C_3 
REMARK    2  A    between atoms: C_3  and  O_6 
REMARK    3  A    between atoms: C_3  and  C_4 
REMARK    4  A    between atoms: C_7  and  O_6 
REMARK    5  A    between atoms: C_9  and  C_10 
REMARK    6  A    between atoms: N_15  and  C_14 
REMARK    7  A    between atoms: N_20  and  C_19 
REMARK       I    between atoms: C_22  and  N_20 
ROOT
ATOM      1  C   LIG d   1      -1.707  78.477 116.260  0.00  0.00     0.161 C 
ATOM      2  C   LIG d   1      -2.384  78.606 115.035  0.00  0.00     0.016 C 
ATOM      3  C   LIG d   1      -1.872  79.333 113.936  0.00  0.00     0.038 C 
ATOM      4  C   LIG d   1      -0.571  79.858 113.936  0.00  0.00     0.028 C 
ATOM      5  C   LIG d   1      -0.050  80.186 115.331  0.00  0.00    -0.047 C 
ATOM      6  C   LIG d   1      -0.239  78.950 116.240  0.00  0.00     0.091 C 
ENDROOT
BRANCH   1   7
ATOM      7  O   LIG d   1      -1.789  77.115 116.722  0.00  0.00    -0.368 OA
BRANCH   7   8
ATOM      8  C   LIG d   1      -2.205  76.133 115.742  0.00  0.00     0.119 C 
BRANCH   8   9
ATOM      9  C   LIG d   1      -3.321  75.284 116.381  0.00  0.00     0.028 C 
ATOM     10  C   LIG d   1      -3.440  75.516 117.897  0.00  0.00     0.006 C 
ENDBRANCH   8   9
BRANCH   8  11
ATOM     11  C   LIG d   1      -1.076  75.147 115.427  0.00  0.00     0.028 C 
ATOM     12  C   LIG d   1      -0.113  75.668 114.350  0.00  0.00     0.006 C 
ENDBRANCH   8  11
ENDBRANCH   7   8
ENDBRANCH   1   7
BRANCH   6  13
ATOM     13  N   LIG d   1       0.169  79.212 117.645  0.00  0.00    -0.311 N 
ATOM     14  C   LIG d   1       1.372  78.909 118.128  0.00  0.00     0.210 C 
ATOM     15  C   LIG d   1       1.578  79.245 119.609  0.00  0.00     0.109 C 
ATOM     16  O   LIG d   1       2.299  78.423 117.463  0.00  0.00    -0.276 OA
ATOM     17  H   LIG d   1      -0.512  79.633 118.246  0.00  0.00     0.149 HD
ENDBRANCH   6  13
BRANCH   5  18
ATOM     18  N   LIG d   1       1.362  80.593 115.195  0.00  0.00     0.381 N 
ATOM     19  H   LIG d   1       1.893  80.235 115.963  0.00  0.00    -0.090 HD
ATOM     20  H   LIG d   1       1.414  81.596 115.216  0.00  0.00    -0.090 HD
ATOM     21  H   LIG d   1       1.734  80.251 114.336  0.00  0.00    -0.090 HD
ENDBRANCH   5  18
BRANCH   3  22
ATOM     22  C   LIG d   1      -2.680  79.575 112.836  0.00  0.00     0.382 C 
ATOM     23  O   LIG d   1      -3.095  80.737 112.606  0.00  0.00    -0.241 OA
ATOM     24  O   LIG d   1      -3.036  78.639 112.096  0.00  0.00    -0.241 OA
ENDBRANCH   3  22
TORSDOF 7
ENDMDL
MODEL 6
REMARK VINA RESULT:      -3.9      2.415      3.720
REMARK  7 active torsions:
REMARK  status: ('A' for Active; 'I' for Inactive)
REMARK    1  A    between atoms: C_2  and  C_3 
REMARK    2  A    between atoms: C_3  and  O_6 
REMARK    3  A    between atoms: C_3  and  C_4 
REMARK    4  A    between atoms: C_7  and  O_6 
REMARK    5  A    between atoms: C_9  and  C_10 
REMARK    6  A    between atoms: N_15  and  C_14 
REMARK    7  A    between atoms: N_20  and  C_19 
REMARK       I    between atoms: C_22  and  N_20 
ROOT
ATOM      1  C   LIG d   1      -0.093  78.143 116.469  0.00  0.00     0.161 C 
ATOM      2  C   LIG d   1      -0.905  78.590 115.413  0.00  0.00     0.016 C 
ATOM      3  C   LIG d   1      -1.441  77.731 114.426  0.00  0.00     0.038 C 
ATOM      4  C   LIG d   1      -1.326  76.336 114.516  0.00  0.00     0.028 C 
ATOM      5  C   LIG d   1      -0.091  75.879 115.285  0.00  0.00    -0.047 C 
ATOM      6  C   LIG d   1      -0.048  76.611 116.646  0.00  0.00     0.091 C 
ENDROOT
BRANCH   1   7
ATOM      7  O   LIG d   1      -0.498  78.778 117.698  0.00  0.00    -0.368 OA
BRANCH   7   8
ATOM      8  C   LIG d   1      -1.921  78.992 117.867  0.00  0.00     0.119 C 
BRANCH   8   9
ATOM      9  C   LIG d   1      -2.114  80.425 118.399  0.00  0.00     0.028 C 
ATOM     10  C   LIG d   1      -0.799  81.222 118.427  0.00  0.00     0.006 C 
ENDBRANCH   8   9
BRANCH   8  11
ATOM     11  C   LIG d   1      -2.497  78.076 118.951  0.00  0.00     0.028 C 
ATOM     12  C   LIG d   1      -3.273  76.882 118.373  0.00  0.00     0.006 C 
ENDBRANCH   8  11
ENDBRANCH   7   8
ENDBRANCH   1   7
BRANCH   6  13
ATOM     13  N   LIG d   1       1.173  76.284 117.427  0.00  0.00    -0.311 N 
ATOM     14  C   LIG d   1       1.142  75.774 118.657  0.00  0.00     0.210 C 
ATOM     15  C   LIG d   1       2.515  75.530 119.291  0.00  0.00     0.109 C 
ATOM     16  O   LIG d   1       0.108  75.469 119.270  0.00  0.00    -0.276 OA
ATOM     17  H   LIG d   1       2.056  76.471 116.993  0.00  0.00     0.149 HD
ENDBRANCH   6  13
BRANCH   5  18
ATOM     18  N   LIG d   1      -0.168  74.412 115.420  0.00  0.00     0.381 N 
ATOM     19  H   LIG d   1      -0.094  74.156 116.385  0.00  0.00    -0.090 HD
ATOM     20  H   LIG d   1       0.602  73.999 114.924  0.00  0.00    -0.090 HD
ATOM     21  H   LIG d   1      -1.030  74.080 115.047  0.00  0.00    -0.090 HD
ENDBRANCH   5  18
BRANCH   3  22
ATOM     22  C   LIG d   1      -2.069  78.270 113.313  0.00  0.00     0.382 C 
ATOM     23  O   LIG d   1      -1.753  77.878 112.164  0.00  0.00    -0.241 OA
ATOM     24  O   LIG d   1      -2.915  79.176 113.441  0.00  0.00    -0.241 OA
ENDBRANCH   3  22
TORSDOF 7
ENDMDL
MODEL 7
REMARK VINA RESULT:      -3.9      1.438      1.632
REMARK  7 active torsions:
REMARK  status: ('A' for Active; 'I' for Inactive)
REMARK    1  A    between atoms: C_2  and  C_3 
REMARK    2  A    between atoms: C_3  and  O_6 
REMARK    3  A    between atoms: C_3  and  C_4 
REMARK    4  A    between atoms: C_7  and  O_6 
REMARK    5  A    between atoms: C_9  and  C_10 
REMARK    6  A    between atoms: N_15  and  C_14 
REMARK    7  A    between atoms: N_20  and  C_19 
REMARK       I    between atoms: C_22  and  N_20 
ROOT
ATOM      1  C   LIG d   1      -1.780  78.655 116.433  0.00  0.00     0.161 C 
ATOM      2  C   LIG d   1      -2.458  78.705 115.204  0.00  0.00     0.016 C 
ATOM      3  C   LIG d   1      -1.927  79.316 114.046  0.00  0.00     0.038 C 
ATOM      4  C   LIG d   1      -0.607  79.790 113.997  0.00  0.00     0.028 C 
ATOM      5  C   LIG d   1      -0.065  80.215 115.358  0.00  0.00    -0.047 C 
ATOM      6  C   LIG d   1      -0.294  79.068 116.369  0.00  0.00     0.091 C 
ENDROOT
BRANCH   1   7
ATOM      7  O   LIG d   1      -1.909  77.340 117.010  0.00  0.00    -0.368 OA
BRANCH   7   8
ATOM      8  C   LIG d   1      -1.088  76.302 116.421  0.00  0.00     0.119 C 
BRANCH   8   9
ATOM      9  C   LIG d   1      -2.030  75.174 115.958  0.00  0.00     0.028 C 
ATOM     10  C   LIG d   1      -3.440  75.302 116.560  0.00  0.00     0.006 C 
ENDBRANCH   8   9
BRANCH   8  11
ATOM     11  C   LIG d   1      -0.168  75.660 117.464  0.00  0.00     0.028 C 
ATOM     12  C   LIG d   1      -0.584  75.987 118.907  0.00  0.00     0.006 C 
ENDBRANCH   8  11
ENDBRANCH   7   8
ENDBRANCH   1   7
BRANCH   6  13
ATOM     13  N   LIG d   1       0.131  79.433 117.745  0.00  0.00    -0.311 N 
ATOM     14  C   LIG d   1       1.316  79.105 118.257  0.00  0.00     0.210 C 
ATOM     15  C   LIG d   1       1.545  79.562 119.701  0.00  0.00     0.109 C 
ATOM     16  O   LIG d   1       2.212  78.508 117.642  0.00  0.00    -0.276 OA
ATOM     17  H   LIG d   1      -0.523  79.945 118.304  0.00  0.00     0.149 HD
ENDBRANCH   6  13
BRANCH   5  18
ATOM     18  N   LIG d   1       1.359  80.556 115.183  0.00  0.00     0.381 N 
ATOM     19  H   LIG d   1       1.931  79.842 115.590  0.00  0.00    -0.090 HD
ATOM     20  H   LIG d   1       1.547  81.420 115.660  0.00  0.00    -0.090 HD
ATOM     21  H   LIG d   1       1.572  80.649 114.214  0.00  0.00    -0.090 HD
ENDBRANCH   5  18
BRANCH   3  22
ATOM     22  C   LIG d   1      -2.732  79.495 112.932  0.00  0.00     0.382 C 
ATOM     23  O   LIG d   1      -3.131  80.644 112.623  0.00  0.00    -0.241 OA
ATOM     24  O   LIG d   1      -3.102  78.515 112.256  0.00  0.00    -0.241 OA
ENDBRANCH   3  22
TORSDOF 7
ENDMDL
MODEL 8
REMARK VINA RESULT:      -3.9      2.404      4.416
REMARK  7 active torsions:
REMARK  status: ('A' for Active; 'I' for Inactive)
REMARK    1  A    between atoms: C_2  and  C_3 
REMARK    2  A    between atoms: C_3  and  O_6 
REMARK    3  A    between atoms: C_3  and  C_4 
REMARK    4  A    between atoms: C_7  and  O_6 
REMARK    5  A    between atoms: C_9  and  C_10 
REMARK    6  A    between atoms: N_15  and  C_14 
REMARK    7  A    between atoms: N_20  and  C_19 
REMARK       I    between atoms: C_22  and  N_20 
ROOT
ATOM      1  C   LIG d   1      -0.297  79.276 115.765  0.00  0.00     0.161 C 
ATOM      2  C   LIG d   1      -1.086  79.814 114.735  0.00  0.00     0.016 C 
ATOM      3  C   LIG d   1      -1.819  79.022 113.822  0.00  0.00     0.038 C 
ATOM      4  C   LIG d   1      -1.933  77.631 113.972  0.00  0.00     0.028 C 
ATOM      5  C   LIG d   1      -0.746  77.001 114.693  0.00  0.00    -0.047 C 
ATOM      6  C   LIG d   1      -0.497  77.767 116.013  0.00  0.00     0.091 C 
ENDROOT
BRANCH   1   7
ATOM      7  O   LIG d   1      -0.512  80.017 116.983  0.00  0.00    -0.368 OA
BRANCH   7   8
ATOM      8  C   LIG d   1       0.669  80.582 117.603  0.00  0.00     0.119 C 
BRANCH   8   9
ATOM      9  C   LIG d   1       0.302  81.993 118.099  0.00  0.00     0.028 C 
ATOM     10  C   LIG d   1      -1.044  82.022 118.844  0.00  0.00     0.006 C 
ENDBRANCH   8   9
BRANCH   8  11
ATOM     11  C   LIG d   1       1.790  80.791 116.580  0.00  0.00     0.028 C 
ATOM     12  C   LIG d   1       2.475  82.159 116.718  0.00  0.00     0.006 C 
ENDBRANCH   8  11
ENDBRANCH   7   8
ENDBRANCH   1   7
BRANCH   6  13
ATOM     13  N   LIG d   1       0.699  77.268 116.740  0.00  0.00    -0.311 N 
ATOM     14  C   LIG d   1       0.666  76.847 118.004  0.00  0.00     0.210 C 
ATOM     15  C   LIG d   1       2.015  76.393 118.570  0.00  0.00     0.109 C 
ATOM     16  O   LIG d   1      -0.358  76.778 118.699  0.00  0.00    -0.276 OA
ATOM     17  H   LIG d   1       1.567  77.261 116.241  0.00  0.00     0.149 HD
ENDBRANCH   6  13
BRANCH   5  18
ATOM     18  N   LIG d   1      -1.059  75.575 114.903  0.00  0.00     0.381 N 
ATOM     19  H   LIG d   1      -1.814  75.485 115.552  0.00  0.00    -0.090 HD
ATOM     20  H   LIG d   1      -0.252  75.119 115.292  0.00  0.00    -0.090 HD
ATOM     21  H   LIG d   1      -1.304  75.149 114.036  0.00  0.00    -0.090 HD
ENDBRANCH   5  18
BRANCH   3  22
ATOM     22  C   LIG d   1      -2.416  79.616 112.721  0.00  0.00     0.382 C 
ATOM     23  O   LIG d   1      -2.160  79.196 111.566  0.00  0.00    -0.241 OA
ATOM     24  O   LIG d   1      -3.172  80.596 112.864  0.00  0.00    -0.241 OA
ENDBRANCH   3  22
TORSDOF 7
ENDMDL
MODEL 9
REMARK VINA RESULT:      -3.8      1.898      2.894
REMARK  7 active torsions:
REMARK  status: ('A' for Active; 'I' for Inactive)
REMARK    1  A    between atoms: C_2  and  C_3 
REMARK    2  A    between atoms: C_3  and  O_6 
REMARK    3  A    between atoms: C_3  and  C_4 
REMARK    4  A    between atoms: C_7  and  O_6 
REMARK    5  A    between atoms: C_9  and  C_10 
REMARK    6  A    between atoms: N_15  and  C_14 
REMARK    7  A    between atoms: N_20  and  C_19 
REMARK       I    between atoms: C_22  and  N_20 
ROOT
ATOM      1  C   LIG d   1      -1.318  78.697 116.895  0.00  0.00     0.161 C 
ATOM      2  C   LIG d   1      -2.086  77.833 116.097  0.00  0.00     0.016 C 
ATOM      3  C   LIG d   1      -1.998  77.792 114.686  0.00  0.00     0.038 C 
ATOM      4  C   LIG d   1      -1.020  78.511 113.983  0.00  0.00     0.028 C 
ATOM      5  C   LIG d   1      -0.561  79.774 114.705  0.00  0.00    -0.047 C 
ATOM      6  C   LIG d   1      -0.167  79.409 116.154  0.00  0.00     0.091 C 
ENDROOT
BRANCH   1   7
ATOM      7  O   LIG d   1      -0.811  77.983 118.040  0.00  0.00    -0.368 OA
BRANCH   7   8
ATOM      8  C   LIG d   1       0.226  77.007 117.774  0.00  0.00     0.119 C 
BRANCH   8   9
ATOM      9  C   LIG d   1      -0.351  75.617 118.106  0.00  0.00     0.028 C 
ATOM     10  C   LIG d   1      -0.490  74.727 116.859  0.00  0.00     0.006 C 
ENDBRANCH   8   9
BRANCH   8  11
ATOM     11  C   LIG d   1       1.416  77.188 118.721  0.00  0.00     0.028 C 
ATOM     12  C   LIG d   1       2.705  77.592 117.986  0.00  0.00     0.006 C 
ENDBRANCH   8  11
ENDBRANCH   7   8
ENDBRANCH   1   7
BRANCH   6  13
ATOM     13  N   LIG d   1       0.214  80.602 116.955  0.00  0.00    -0.311 N 
ATOM     14  C   LIG d   1       1.453  81.086 117.005  0.00  0.00     0.210 C 
ATOM     15  C   LIG d   1       1.633  82.311 117.908  0.00  0.00     0.109 C 
ATOM     16  O   LIG d   1       2.415  80.637 116.363  0.00  0.00    -0.276 OA
ATOM     17  H   LIG d   1      -0.511  81.047 117.483  0.00  0.00     0.149 HD
ENDBRANCH   6  13
BRANCH   5  18
ATOM     18  N   LIG d   1       0.554  80.350 113.930  0.00  0.00     0.381 N 
ATOM     19  H   LIG d   1       0.418  81.335 113.821  0.00  0.00    -0.090 HD
ATOM     20  H   LIG d   1       0.566  79.931 113.016  0.00  0.00    -0.090 HD
ATOM     21  H   LIG d   1       1.418  80.176 114.394  0.00  0.00    -0.090 HD
ENDBRANCH   5  18
BRANCH   3  22
ATOM     22  C   LIG d   1      -2.921  77.055 113.961  0.00  0.00     0.382 C 
ATOM     23  O   LIG d   1      -3.440  77.542 112.927  0.00  0.00    -0.241 OA
ATOM     24  O   LIG d   1      -3.276  75.927 114.351  0.00  0.00    -0.241 OA
ENDBRANCH   3  22
TORSDOF 7
ENDMDL
