MODEL 1
REMARK VINA RESULT:      -4.9      0.000      0.000
REMARK  7 active torsions:
REMARK  status: ('A' for Active; 'I' for Inactive)
REMARK    1  A    between atoms: C_2  and  C_3 
REMARK    2  A    between atoms: C_3  and  O_6 
REMARK    3  A    between atoms: C_3  and  C_4 
REMARK    4  A    between atoms: C_7  and  O_6 
REMARK    5  A    between atoms: C_9  and  C_10 
REMARK    6  A    between atoms: N_15  and  C_14 
REMARK    7  A    between atoms: N_20  and  C_19 
REMARK       I    between atoms: C_22  and  N_20 
ROOT
ATOM      1  C   LIG d   1       0.315  82.933 112.028  0.00  0.00     0.161 C 
ATOM      2  C   LIG d   1      -0.833  82.444 112.674  0.00  0.00     0.016 C 
ATOM      3  C   LIG d   1      -1.304  81.119 112.526  0.00  0.00     0.038 C 
ATOM      4  C   LIG d   1      -0.568  80.143 111.837  0.00  0.00     0.028 C 
ATOM      5  C   LIG d   1       0.335  80.720 110.752  0.00  0.00    -0.047 C 
ATOM      6  C   LIG d   1       1.192  81.853 111.362  0.00  0.00     0.091 C 
ENDROOT
BRANCH   1   7
ATOM      7  O   LIG d   1       1.099  83.715 112.951  0.00  0.00    -0.368 OA
BRANCH   7   8
ATOM      8  C   LIG d   1       0.963  83.372 114.352  0.00  0.00     0.119 C 
BRANCH   8   9
ATOM      9  C   LIG d   1       1.063  84.680 115.161  0.00  0.00     0.028 C 
ATOM     10  C   LIG d   1       2.217  84.655 116.178  0.00  0.00     0.006 C 
ENDBRANCH   8   9
BRANCH   8  11
ATOM     11  C   LIG d   1       2.135  82.509 114.831  0.00  0.00     0.028 C 
ATOM     12  C   LIG d   1       1.791  81.012 114.879  0.00  0.00     0.006 C 
ENDBRANCH   8  11
ENDBRANCH   7   8
ENDBRANCH   1   7
BRANCH   6  13
ATOM     13  N   LIG d   1       2.044  82.528 110.348  0.00  0.00    -0.311 N 
ATOM     14  C   LIG d   1       3.227  83.071 110.629  0.00  0.00     0.210 C 
ATOM     15  C   LIG d   1       3.932  83.734 109.442  0.00  0.00     0.109 C 
ATOM     16  O   LIG d   1       3.774  83.038 111.741  0.00  0.00    -0.276 OA
ATOM     17  H   LIG d   1       1.691  82.572 109.412  0.00  0.00     0.149 HD
ENDBRANCH   6  13
BRANCH   5  18
ATOM     18  N   LIG d   1       1.144  79.611 110.210  0.00  0.00     0.381 N 
ATOM     19  H   LIG d   1       1.001  78.788 110.759  0.00  0.00    -0.090 HD
ATOM     20  H   LIG d   1       2.116  79.861 110.264  0.00  0.00    -0.090 HD
ATOM     21  H   LIG d   1       0.890  79.436 109.263  0.00  0.00    -0.090 HD
ENDBRANCH   5  18
BRANCH   3  22
ATOM     22  C   LIG d   1      -2.544  80.769 113.038  0.00  0.00     0.382 C 
ATOM     23  O   LIG d   1      -3.440  81.639 113.160  0.00  0.00    -0.241 OA
ATOM     24  O   LIG d   1      -2.763  79.605 113.422  0.00  0.00    -0.241 OA
ENDBRANCH   3  22
TORSDOF 7
ENDMDL
MODEL 2
REMARK VINA RESULT:      -4.8      1.544      4.702
REMARK  7 active torsions:
REMARK  status: ('A' for Active; 'I' for Inactive)
REMARK    1  A    between atoms: C_2  and  C_3 
REMARK    2  A    between atoms: C_3  and  O_6 
REMARK    3  A    between atoms: C_3  and  C_4 
REMARK    4  A    between atoms: C_7  and  O_6 
REMARK    5  A    between atoms: C_9  and  C_10 
REMARK    6  A    between atoms: N_15  and  C_14 
REMARK    7  A    between atoms: N_20  and  C_19 
REMARK       I    between atoms: C_22  and  N_20 
ROOT
ATOM      1  C   LIG d   1       1.311  81.771 112.692  0.00  0.00     0.161 C 
ATOM      2  C   LIG d   1       2.231  82.607 112.037  0.00  0.00     0.016 C 
ATOM      3  C   LIG d   1       2.387  82.643 110.632  0.00  0.00     0.038 C 
ATOM      4  C   LIG d   1       1.522  81.949 109.772  0.00  0.00     0.028 C 
ATOM      5  C   LIG d   1       0.908  80.705 110.404  0.00  0.00    -0.047 C 
ATOM      6  C   LIG d   1       0.283  81.089 111.765  0.00  0.00     0.091 C 
ENDROOT
BRANCH   1   7
ATOM      7  O   LIG d   1       0.638  82.506 113.733  0.00  0.00    -0.368 OA
BRANCH   7   8
ATOM      8  C   LIG d   1       1.113  82.279 115.082  0.00  0.00     0.119 C 
BRANCH   8   9
ATOM      9  C   LIG d   1       2.165  83.361 115.391  0.00  0.00     0.028 C 
ATOM     10  C   LIG d   1       1.530  84.672 115.886  0.00  0.00     0.006 C 
ENDBRANCH   8   9
BRANCH   8  11
ATOM     11  C   LIG d   1       1.858  80.945 115.194  0.00  0.00     0.028 C 
ATOM     12  C   LIG d   1       2.935  80.955 116.290  0.00  0.00     0.006 C 
ENDBRANCH   8  11
ENDBRANCH   7   8
ENDBRANCH   1   7
BRANCH   6  13
ATOM     13  N   LIG d   1      -0.266  79.913 112.489  0.00  0.00    -0.311 N 
ATOM     14  C   LIG d   1      -1.555  79.776 112.794  0.00  0.00     0.210 C 
ATOM     15  C   LIG d   1      -1.906  78.497 113.561  0.00  0.00     0.109 C 
ATOM     16  O   LIG d   1      -2.446  80.577 112.475  0.00  0.00    -0.276 OA
ATOM     17  H   LIG d   1       0.383  79.200 112.759  0.00  0.00     0.149 HD
ENDBRANCH   6  13
BRANCH   5  18
ATOM     18  N   LIG d   1      -0.075  80.158 109.450  0.00  0.00     0.381 N 
ATOM     19  H   LIG d   1       0.135  79.199 109.260  0.00  0.00    -0.090 HD
ATOM     20  H   LIG d   1      -0.011  80.671 108.588  0.00  0.00    -0.090 HD
ATOM     21  H   LIG d   1      -0.994  80.237 109.825  0.00  0.00    -0.090 HD
ENDBRANCH   5  18
BRANCH   3  22
ATOM     22  C   LIG d   1       3.443  83.348 110.076  0.00  0.00     0.382 C 
ATOM     23  O   LIG d   1       4.331  82.740 109.430  0.00  0.00    -0.241 OA
ATOM     24  O   LIG d   1       3.543  84.577 110.249  0.00  0.00    -0.241 OA
ENDBRANCH   3  22
TORSDOF 7
ENDMDL
MODEL 3
REMARK VINA RESULT:      -4.3      1.824      4.848
REMARK  7 active torsions:
REMARK  status: ('A' for Active; 'I' for Inactive)
REMARK    1  A    between atoms: C_2  and  C_3 
REMARK    2  A    between atoms: C_3  and  O_6 
REMARK    3  A    between atoms: C_3  and  C_4 
REMARK    4  A    between atoms: C_7  and  O_6 
REMARK    5  A    between atoms: C_9  and  C_10 
REMARK    6  A    between atoms: N_15  and  C_14 
REMARK    7  A    between atoms: N_20  and  C_19 
REMARK       I    between atoms: C_22  and  N_20 
ROOT
ATOM      1  C   LIG d   1       1.142  81.338 113.337  0.00  0.00     0.161 C 
ATOM      2  C   LIG d   1       1.905  82.159 112.490  0.00  0.00     0.016 C 
ATOM      3  C   LIG d   1       1.812  82.123 111.080  0.00  0.00     0.038 C 
ATOM      4  C   LIG d   1       0.834  81.365 110.421  0.00  0.00     0.028 C 
ATOM      5  C   LIG d   1       0.381  80.142 111.211  0.00  0.00    -0.047 C 
ATOM      6  C   LIG d   1      -0.010  80.584 112.640  0.00  0.00     0.091 C 
ENDROOT
BRANCH   1   7
ATOM      7  O   LIG d   1       0.637  82.112 114.443  0.00  0.00    -0.368 OA
BRANCH   7   8
ATOM      8  C   LIG d   1       1.632  82.728 115.297  0.00  0.00     0.119 C 
BRANCH   8   9
ATOM      9  C   LIG d   1       1.469  82.126 116.706  0.00  0.00     0.028 C 
ATOM     10  C   LIG d   1       2.217  80.791 116.864  0.00  0.00     0.006 C 
ENDBRANCH   8   9
BRANCH   8  11
ATOM     11  C   LIG d   1       1.372  84.227 115.464  0.00  0.00     0.028 C 
ATOM     12  C   LIG d   1       1.416  84.680 116.932  0.00  0.00     0.006 C 
ENDBRANCH   8  11
ENDBRANCH   7   8
ENDBRANCH   1   7
BRANCH   6  13
ATOM     13  N   LIG d   1      -0.385  79.436 113.506  0.00  0.00    -0.311 N 
ATOM     14  C   LIG d   1      -1.628  78.969 113.608  0.00  0.00     0.210 C 
ATOM     15  C   LIG d   1      -1.800  77.792 114.572  0.00  0.00     0.109 C 
ATOM     16  O   LIG d   1      -2.599  79.399 112.966  0.00  0.00    -0.276 OA
ATOM     17  H   LIG d   1       0.347  79.008 114.038  0.00  0.00     0.149 HD
ENDBRANCH   6  13
BRANCH   5  18
ATOM     18  N   LIG d   1      -0.735  79.521 110.472  0.00  0.00     0.381 N 
ATOM     19  H   LIG d   1      -1.356  79.069 111.113  0.00  0.00    -0.090 HD
ATOM     20  H   LIG d   1      -0.365  78.826 109.848  0.00  0.00    -0.090 HD
ATOM     21  H   LIG d   1      -1.228  80.215 109.954  0.00  0.00    -0.090 HD
ENDBRANCH   5  18
BRANCH   3  22
ATOM     22  C   LIG d   1       2.731  82.822 110.313  0.00  0.00     0.382 C 
ATOM     23  O   LIG d   1       2.374  83.850 109.688  0.00  0.00    -0.241 OA
ATOM     24  O   LIG d   1       3.903  82.413 110.202  0.00  0.00    -0.241 OA
ENDBRANCH   3  22
TORSDOF 7
ENDMDL
MODEL 4
REMARK VINA RESULT:      -4.1      4.705      7.454
REMARK  7 active torsions:
REMARK  status: ('A' for Active; 'I' for Inactive)
REMARK    1  A    between atoms: C_2  and  C_3 
REMARK    2  A    between atoms: C_3  and  O_6 
REMARK    3  A    between atoms: C_3  and  C_4 
REMARK    4  A    between atoms: C_7  and  O_6 
REMARK    5  A    between atoms: C_9  and  C_10 
REMARK    6  A    between atoms: N_15  and  C_14 
REMARK    7  A    between atoms: N_20  and  C_19 
REMARK       I    between atoms: C_22  and  N_20 
ROOT
ATOM      1  C   LIG d   1       2.257  80.215 116.959  0.00  0.00     0.161 C 
ATOM      2  C   LIG d   1       3.527  80.102 116.369  0.00  0.00     0.016 C 
ATOM      3  C   LIG d   1       4.428  79.051 116.656  0.00  0.00     0.038 C 
ATOM      4  C   LIG d   1       4.057  77.951 117.444  0.00  0.00     0.028 C 
ATOM      5  C   LIG d   1       2.969  78.275 118.462  0.00  0.00    -0.047 C 
ATOM      6  C   LIG d   1       1.792  78.966 117.736  0.00  0.00     0.091 C 
ENDROOT
BRANCH   1   7
ATOM      7  O   LIG d   1       1.284  80.575 115.959  0.00  0.00    -0.368 OA
BRANCH   7   8
ATOM      8  C   LIG d   1       1.783  81.323 114.824  0.00  0.00     0.119 C 
BRANCH   8   9
ATOM      9  C   LIG d   1       1.498  82.814 115.090  0.00  0.00     0.028 C 
ATOM     10  C   LIG d   1       2.786  83.649 115.191  0.00  0.00     0.006 C 
ENDBRANCH   8   9
BRANCH   8  11
ATOM     11  C   LIG d   1       1.007  80.984 113.548  0.00  0.00     0.028 C 
ATOM     12  C   LIG d   1       1.725  81.451 112.272  0.00  0.00     0.006 C 
ENDBRANCH   8  11
ENDBRANCH   7   8
ENDBRANCH   1   7
BRANCH   6  13
ATOM     13  N   LIG d   1       0.720  79.392 118.673  0.00  0.00    -0.311 N 
ATOM     14  C   LIG d   1      -0.578  79.224 118.428  0.00  0.00     0.210 C 
ATOM     15  C   LIG d   1      -1.516  79.753 119.517  0.00  0.00     0.109 C 
ATOM     16  O   LIG d   1      -1.041  78.656 117.427  0.00  0.00    -0.276 OA
ATOM     17  H   LIG d   1       1.008  79.833 119.525  0.00  0.00     0.149 HD
ENDBRANCH   6  13
BRANCH   5  18
ATOM     18  N   LIG d   1       2.582  77.012 119.118  0.00  0.00     0.381 N 
ATOM     19  H   LIG d   1       1.647  76.768 118.859  0.00  0.00    -0.090 HD
ATOM     20  H   LIG d   1       2.609  77.141 120.114  0.00  0.00    -0.090 HD
ATOM     21  H   LIG d   1       3.209  76.284 118.853  0.00  0.00    -0.090 HD
ENDBRANCH   5  18
BRANCH   3  22
ATOM     22  C   LIG d   1       5.730  79.113 116.184  0.00  0.00     0.382 C 
ATOM     23  O   LIG d   1       6.637  79.590 116.907  0.00  0.00    -0.241 OA
ATOM     24  O   LIG d   1       6.001  78.740 115.026  0.00  0.00    -0.241 OA
ENDBRANCH   3  22
TORSDOF 7
ENDMDL
MODEL 5
REMARK VINA RESULT:      -3.9      4.887      7.546
REMARK  7 active torsions:
REMARK  status: ('A' for Active; 'I' for Inactive)
REMARK    1  A    between atoms: C_2  and  C_3 
REMARK    2  A    between atoms: C_3  and  O_6 
REMARK    3  A    between atoms: C_3  and  C_4 
REMARK    4  A    between atoms: C_7  and  O_6 
REMARK    5  A    between atoms: C_9  and  C_10 
REMARK    6  A    between atoms: N_15  and  C_14 
REMARK    7  A    between atoms: N_20  and  C_19 
REMARK       I    between atoms: C_22  and  N_20 
ROOT
ATOM      1  C   LIG d   1       2.757  80.352 117.023  0.00  0.00     0.161 C 
ATOM      2  C   LIG d   1       4.002  80.054 116.445  0.00  0.00     0.016 C 
ATOM      3  C   LIG d   1       4.703  78.849 116.685  0.00  0.00     0.038 C 
ATOM      4  C   LIG d   1       4.131  77.790 117.405  0.00  0.00     0.028 C 
ATOM      5  C   LIG d   1       3.091  78.242 118.425  0.00  0.00    -0.047 C 
ATOM      6  C   LIG d   1       2.066  79.162 117.722  0.00  0.00     0.091 C 
ENDROOT
BRANCH   1   7
ATOM      7  O   LIG d   1       1.883  80.926 116.031  0.00  0.00    -0.368 OA
BRANCH   7   8
ATOM      8  C   LIG d   1       1.555  82.326 116.203  0.00  0.00     0.119 C 
BRANCH   8   9
ATOM      9  C   LIG d   1       2.357  83.121 115.154  0.00  0.00     0.028 C 
ATOM     10  C   LIG d   1       3.620  83.768 115.748  0.00  0.00     0.006 C 
ENDBRANCH   8   9
BRANCH   8  11
ATOM     11  C   LIG d   1       2.035  82.848 117.561  0.00  0.00     0.028 C 
ATOM     12  C   LIG d   1       0.885  83.364 118.440  0.00  0.00     0.006 C 
ENDBRANCH   8  11
ENDBRANCH   7   8
ENDBRANCH   1   7
BRANCH   6  13
ATOM     13  N   LIG d   1       1.062  79.717 118.667  0.00  0.00    -0.311 N 
ATOM     14  C   LIG d   1      -0.253  79.589 118.497  0.00  0.00     0.210 C 
ATOM     15  C   LIG d   1      -1.112  80.253 119.577  0.00  0.00     0.109 C 
ATOM     16  O   LIG d   1      -0.789  78.960 117.572  0.00  0.00    -0.276 OA
ATOM     17  H   LIG d   1       1.410  80.215 119.462  0.00  0.00     0.149 HD
ENDBRANCH   6  13
BRANCH   5  18
ATOM     18  N   LIG d   1       2.478  77.031 119.004  0.00  0.00     0.381 N 
ATOM     19  H   LIG d   1       3.193  76.425 119.355  0.00  0.00    -0.090 HD
ATOM     20  H   LIG d   1       1.978  76.543 118.282  0.00  0.00    -0.090 HD
ATOM     21  H   LIG d   1       1.855  77.283 119.739  0.00  0.00    -0.090 HD
ENDBRANCH   5  18
BRANCH   3  22
ATOM     22  C   LIG d   1       6.007  78.712 116.236  0.00  0.00     0.382 C 
ATOM     23  O   LIG d   1       6.253  78.751 115.006  0.00  0.00    -0.241 OA
ATOM     24  O   LIG d   1       6.934  78.504 117.041  0.00  0.00    -0.241 OA
ENDBRANCH   3  22
TORSDOF 7
ENDMDL
MODEL 6
REMARK VINA RESULT:      -3.7      1.743      2.225
REMARK  7 active torsions:
REMARK  status: ('A' for Active; 'I' for Inactive)
REMARK    1  A    between atoms: C_2  and  C_3 
REMARK    2  A    between atoms: C_3  and  O_6 
REMARK    3  A    between atoms: C_3  and  C_4 
REMARK    4  A    between atoms: C_7  and  O_6 
REMARK    5  A    between atoms: C_9  and  C_10 
REMARK    6  A    between atoms: N_15  and  C_14 
REMARK    7  A    between atoms: N_20  and  C_19 
REMARK       I    between atoms: C_22  and  N_20 
ROOT
ATOM      1  C   LIG d   1       0.647  81.166 113.196  0.00  0.00     0.161 C 
ATOM      2  C   LIG d   1      -0.431  80.369 113.616  0.00  0.00     0.016 C 
ATOM      3  C   LIG d   1      -1.227  79.607 112.729  0.00  0.00     0.038 C 
ATOM      4  C   LIG d   1      -0.901  79.471 111.371  0.00  0.00     0.028 C 
ATOM      5  C   LIG d   1      -0.123  80.657 110.813  0.00  0.00    -0.047 C 
ATOM      6  C   LIG d   1       1.086  80.942 111.734  0.00  0.00     0.091 C 
ENDROOT
BRANCH   1   7
ATOM      7  O   LIG d   1       1.764  80.984 114.088  0.00  0.00    -0.368 OA
BRANCH   7   8
ATOM      8  C   LIG d   1       2.045  82.082 114.990  0.00  0.00     0.119 C 
BRANCH   8   9
ATOM      9  C   LIG d   1       1.594  81.651 116.399  0.00  0.00     0.028 C 
ATOM     10  C   LIG d   1       1.647  82.808 117.412  0.00  0.00     0.006 C 
ENDBRANCH   8   9
BRANCH   8  11
ATOM     11  C   LIG d   1       1.197  83.312 114.651  0.00  0.00     0.028 C 
ATOM     12  C   LIG d   1       2.041  84.506 114.177  0.00  0.00     0.006 C 
ENDBRANCH   8  11
ENDBRANCH   7   8
ENDBRANCH   1   7
BRANCH   6  13
ATOM     13  N   LIG d   1       1.853  82.141 111.307  0.00  0.00    -0.311 N 
ATOM     14  C   LIG d   1       1.283  83.240 110.815  0.00  0.00     0.210 C 
ATOM     15  C   LIG d   1       2.259  84.352 110.417  0.00  0.00     0.109 C 
ATOM     16  O   LIG d   1       0.060  83.411 110.700  0.00  0.00    -0.276 OA
ATOM     17  H   LIG d   1       2.850  82.100 111.394  0.00  0.00     0.149 HD
ENDBRANCH   6  13
BRANCH   5  18
ATOM     18  N   LIG d   1       0.269  80.323 109.431  0.00  0.00     0.381 N 
ATOM     19  H   LIG d   1      -0.177  80.949 108.791  0.00  0.00    -0.090 HD
ATOM     20  H   LIG d   1      -0.038  79.389 109.223  0.00  0.00    -0.090 HD
ATOM     21  H   LIG d   1       1.259  80.385 109.333  0.00  0.00    -0.090 HD
ENDBRANCH   5  18
BRANCH   3  22
ATOM     22  C   LIG d   1      -2.386  79.003 113.192  0.00  0.00     0.382 C 
ATOM     23  O   LIG d   1      -3.111  78.349 112.404  0.00  0.00    -0.241 OA
ATOM     24  O   LIG d   1      -2.739  79.140 114.379  0.00  0.00    -0.241 OA
ENDBRANCH   3  22
TORSDOF 7
ENDMDL
MODEL 7
REMARK VINA RESULT:      -3.6      2.479      5.042
REMARK  7 active torsions:
REMARK  status: ('A' for Active; 'I' for Inactive)
REMARK    1  A    between atoms: C_2  and  C_3 
REMARK    2  A    between atoms: C_3  and  O_6 
REMARK    3  A    between atoms: C_3  and  C_4 
REMARK    4  A    between atoms: C_7  and  O_6 
REMARK    5  A    between atoms: C_9  and  C_10 
REMARK    6  A    between atoms: N_15  and  C_14 
REMARK    7  A    between atoms: N_20  and  C_19 
REMARK       I    between atoms: C_22  and  N_20 
ROOT
ATOM      1  C   LIG d   1       0.932  80.792 113.964  0.00  0.00     0.161 C 
ATOM      2  C   LIG d   1       1.240  82.098 113.549  0.00  0.00     0.016 C 
ATOM      3  C   LIG d   1       0.338  82.922 112.837  0.00  0.00     0.038 C 
ATOM      4  C   LIG d   1      -0.997  82.546 112.621  0.00  0.00     0.028 C 
ATOM      5  C   LIG d   1      -1.202  81.036 112.579  0.00  0.00    -0.047 C 
ATOM      6  C   LIG d   1      -0.557  80.407 113.835  0.00  0.00     0.091 C 
ENDROOT
BRANCH   1   7
ATOM      7  O   LIG d   1       1.387  80.589 115.316  0.00  0.00    -0.368 OA
BRANCH   7   8
ATOM      8  C   LIG d   1       2.206  81.643 115.878  0.00  0.00     0.119 C 
BRANCH   8   9
ATOM      9  C   LIG d   1       3.429  80.977 116.539  0.00  0.00     0.028 C 
ATOM     10  C   LIG d   1       3.076  80.291 117.869  0.00  0.00     0.006 C 
ENDBRANCH   8   9
BRANCH   8  11
ATOM     11  C   LIG d   1       1.479  82.370 117.013  0.00  0.00     0.028 C 
ATOM     12  C   LIG d   1       1.500  83.898 116.852  0.00  0.00     0.006 C 
ENDBRANCH   8  11
ENDBRANCH   7   8
ENDBRANCH   1   7
BRANCH   6  13
ATOM     13  N   LIG d   1      -0.639  78.923 113.832  0.00  0.00    -0.311 N 
ATOM     14  C   LIG d   1      -1.680  78.245 114.312  0.00  0.00     0.210 C 
ATOM     15  C   LIG d   1      -1.553  76.721 114.230  0.00  0.00     0.109 C 
ATOM     16  O   LIG d   1      -2.711  78.762 114.769  0.00  0.00    -0.276 OA
ATOM     17  H   LIG d   1       0.141  78.424 113.450  0.00  0.00     0.149 HD
ENDBRANCH   6  13
BRANCH   5  18
ATOM     18  N   LIG d   1      -2.653  80.786 112.487  0.00  0.00     0.381 N 
ATOM     19  H   LIG d   1      -3.064  81.416 111.828  0.00  0.00    -0.090 HD
ATOM     20  H   LIG d   1      -3.069  80.954 113.386  0.00  0.00    -0.090 HD
ATOM     21  H   LIG d   1      -2.820  79.844 112.207  0.00  0.00    -0.090 HD
ENDBRANCH   5  18
BRANCH   3  22
ATOM     22  C   LIG d   1       0.781  84.119 112.296  0.00  0.00     0.382 C 
ATOM     23  O   LIG d   1       0.183  84.623 111.315  0.00  0.00    -0.241 OA
ATOM     24  O   LIG d   1       1.797  84.679 112.749  0.00  0.00    -0.241 OA
ENDBRANCH   3  22
TORSDOF 7
ENDMDL
MODEL 8
REMARK VINA RESULT:      -3.4      2.331      4.626
REMARK  7 active torsions:
REMARK  status: ('A' for Active; 'I' for Inactive)
REMARK    1  A    between atoms: C_2  and  C_3 
REMARK    2  A    between atoms: C_3  and  O_6 
REMARK    3  A    between atoms: C_3  and  C_4 
REMARK    4  A    between atoms: C_7  and  O_6 
REMARK    5  A    between atoms: C_9  and  C_10 
REMARK    6  A    between atoms: N_15  and  C_14 
REMARK    7  A    between atoms: N_20  and  C_19 
REMARK       I    between atoms: C_22  and  N_20 
ROOT
ATOM      1  C   LIG d   1       1.319  80.990 112.783  0.00  0.00     0.161 C 
ATOM      2  C   LIG d   1       1.647  82.043 111.913  0.00  0.00     0.016 C 
ATOM      3  C   LIG d   1       0.692  82.938 111.378  0.00  0.00     0.038 C 
ATOM      4  C   LIG d   1      -0.646  82.933 111.800  0.00  0.00     0.028 C 
ATOM      5  C   LIG d   1      -1.121  81.570 112.292  0.00  0.00    -0.047 C 
ATOM      6  C   LIG d   1      -0.119  81.038 113.342  0.00  0.00     0.091 C 
ENDROOT
BRANCH   1   7
ATOM      7  O   LIG d   1       2.273  80.931 113.861  0.00  0.00    -0.368 OA
BRANCH   7   8
ATOM      8  C   LIG d   1       1.834  81.471 115.132  0.00  0.00     0.119 C 
BRANCH   8   9
ATOM      9  C   LIG d   1       2.471  82.866 115.287  0.00  0.00     0.028 C 
ATOM     10  C   LIG d   1       1.443  84.000 115.137  0.00  0.00     0.006 C 
ENDBRANCH   8   9
BRANCH   8  11
ATOM     11  C   LIG d   1       2.374  80.646 116.304  0.00  0.00     0.028 C 
ATOM     12  C   LIG d   1       1.654  80.950 117.627  0.00  0.00     0.006 C 
ENDBRANCH   8  11
ENDBRANCH   7   8
ENDBRANCH   1   7
BRANCH   6  13
ATOM     13  N   LIG d   1      -0.464  79.672 113.813  0.00  0.00    -0.311 N 
ATOM     14  C   LIG d   1      -1.244  78.836 113.130  0.00  0.00     0.210 C 
ATOM     15  C   LIG d   1      -1.489  77.483 113.805  0.00  0.00     0.109 C 
ATOM     16  O   LIG d   1      -1.730  79.074 112.014  0.00  0.00    -0.276 OA
ATOM     17  H   LIG d   1      -0.087  79.384 114.695  0.00  0.00     0.149 HD
ENDBRANCH   6  13
BRANCH   5  18
ATOM     18  N   LIG d   1      -2.484  81.741 112.829  0.00  0.00     0.381 N 
ATOM     19  H   LIG d   1      -2.655  81.062 113.543  0.00  0.00    -0.090 HD
ATOM     20  H   LIG d   1      -3.147  81.592 112.087  0.00  0.00    -0.090 HD
ATOM     21  H   LIG d   1      -2.592  82.659 113.200  0.00  0.00    -0.090 HD
ENDBRANCH   5  18
BRANCH   3  22
ATOM     22  C   LIG d   1       1.065  83.825 110.380  0.00  0.00     0.382 C 
ATOM     23  O   LIG d   1       2.255  83.860 109.984  0.00  0.00    -0.241 OA
ATOM     24  O   LIG d   1       0.236  84.622 109.901  0.00  0.00    -0.241 OA
ENDBRANCH   3  22
TORSDOF 7
ENDMDL
MODEL 9
REMARK VINA RESULT:      -3.4      5.685      7.298
REMARK  7 active torsions:
REMARK  status: ('A' for Active; 'I' for Inactive)
REMARK    1  A    between atoms: C_2  and  C_3 
REMARK    2  A    between atoms: C_3  and  O_6 
REMARK    3  A    between atoms: C_3  and  C_4 
REMARK    4  A    between atoms: C_7  and  O_6 
REMARK    5  A    between atoms: C_9  and  C_10 
REMARK    6  A    between atoms: N_15  and  C_14 
REMARK    7  A    between atoms: N_20  and  C_19 
REMARK       I    between atoms: C_22  and  N_20 
ROOT
ATOM      1  C   LIG d   1       1.528  79.111 119.051  0.00  0.00     0.161 C 
ATOM      2  C   LIG d   1       1.152  77.861 119.570  0.00  0.00     0.016 C 
ATOM      3  C   LIG d   1       0.349  76.935 118.865  0.00  0.00     0.038 C 
ATOM      4  C   LIG d   1      -0.010  77.135 117.524  0.00  0.00     0.028 C 
ATOM      5  C   LIG d   1      -0.077  78.606 117.128  0.00  0.00    -0.047 C 
ATOM      6  C   LIG d   1       1.239  79.300 117.547  0.00  0.00     0.091 C 
ENDROOT
BRANCH   1   7
ATOM      7  O   LIG d   1       2.921  79.356 119.328  0.00  0.00    -0.368 OA
BRANCH   7   8
ATOM      8  C   LIG d   1       3.869  78.515 118.625  0.00  0.00     0.119 C 
BRANCH   8   9
ATOM      9  C   LIG d   1       4.710  77.779 119.685  0.00  0.00     0.028 C 
ATOM     10  C   LIG d   1       6.069  78.457 119.930  0.00  0.00     0.006 C 
ENDBRANCH   8   9
BRANCH   8  11
ATOM     11  C   LIG d   1       4.869  79.353 117.823  0.00  0.00     0.028 C 
ATOM     12  C   LIG d   1       5.127  78.788 116.417  0.00  0.00     0.006 C 
ENDBRANCH   8  11
ENDBRANCH   7   8
ENDBRANCH   1   7
BRANCH   6  13
ATOM     13  N   LIG d   1       1.223  80.760 117.273  0.00  0.00    -0.311 N 
ATOM     14  C   LIG d   1       1.808  81.313 116.212  0.00  0.00     0.210 C 
ATOM     15  C   LIG d   1       1.689  82.838 116.129  0.00  0.00     0.109 C 
ATOM     16  O   LIG d   1       2.387  80.682 115.314  0.00  0.00    -0.276 OA
ATOM     17  H   LIG d   1       0.748  81.344 117.934  0.00  0.00     0.149 HD
ENDBRANCH   6  13
BRANCH   5  18
ATOM     18  N   LIG d   1      -0.325  78.666 115.675  0.00  0.00     0.381 N 
ATOM     19  H   LIG d   1      -0.202  77.759 115.273  0.00  0.00    -0.090 HD
ATOM     20  H   LIG d   1       0.342  79.290 115.257  0.00  0.00    -0.090 HD
ATOM     21  H   LIG d   1      -1.250  78.992 115.500  0.00  0.00    -0.090 HD
ENDBRANCH   5  18
BRANCH   3  22
ATOM     22  C   LIG d   1      -0.138  75.812 119.516  0.00  0.00     0.382 C 
ATOM     23  O   LIG d   1       0.657  74.933 119.929  0.00  0.00    -0.241 OA
ATOM     24  O   LIG d   1      -1.364  75.644 119.657  0.00  0.00    -0.241 OA
ENDBRANCH   3  22
TORSDOF 7
ENDMDL
