MODEL 1
REMARK VINA RESULT:      -4.6      0.000      0.000
REMARK  7 active torsions:
REMARK  status: ('A' for Active; 'I' for Inactive)
REMARK    1  A    between atoms: C_2  and  C_3 
REMARK    2  A    between atoms: C_3  and  O_6 
REMARK    3  A    between atoms: C_3  and  C_4 
REMARK    4  A    between atoms: C_7  and  O_6 
REMARK    5  A    between atoms: C_9  and  C_10 
REMARK    6  A    between atoms: N_15  and  C_14 
REMARK    7  A    between atoms: N_20  and  C_19 
REMARK       I    between atoms: C_22  and  N_20 
ROOT
ATOM      1  C   LIG d   1      -0.325  78.327 116.149  0.00  0.00     0.161 C 
ATOM      2  C   LIG d   1      -1.295  78.744 115.222  0.00  0.00     0.016 C 
ATOM      3  C   LIG d   1      -1.912  77.872 114.296  0.00  0.00     0.038 C 
ATOM      4  C   LIG d   1      -1.710  76.484 114.336  0.00  0.00     0.028 C 
ATOM      5  C   LIG d   1      -0.360  76.085 114.923  0.00  0.00    -0.047 C 
ATOM      6  C   LIG d   1      -0.174  76.797 116.282  0.00  0.00     0.091 C 
ENDROOT
BRANCH   1   7
ATOM      7  O   LIG d   1      -0.594  78.918 117.436  0.00  0.00    -0.368 OA
BRANCH   7   8
ATOM      8  C   LIG d   1      -1.989  79.141 117.756  0.00  0.00     0.119 C 
BRANCH   8   9
ATOM      9  C   LIG d   1      -2.047  80.243 118.832  0.00  0.00     0.028 C 
ATOM     10  C   LIG d   1      -0.737  81.043 118.923  0.00  0.00     0.006 C 
ENDBRANCH   8   9
BRANCH   8  11
ATOM     11  C   LIG d   1      -2.616  77.905 118.407  0.00  0.00     0.028 C 
ATOM     12  C   LIG d   1      -2.412  77.866 119.930  0.00  0.00     0.006 C 
ENDBRANCH   8  11
ENDBRANCH   7   8
ENDBRANCH   1   7
BRANCH   6  13
ATOM     13  N   LIG d   1       1.158  76.528 116.885  0.00  0.00    -0.311 N 
ATOM     14  C   LIG d   1       1.325  76.121 118.142  0.00  0.00     0.210 C 
ATOM     15  C   LIG d   1       2.782  75.922 118.569  0.00  0.00     0.109 C 
ATOM     16  O   LIG d   1       0.402  75.875 118.934  0.00  0.00    -0.276 OA
ATOM     17  H   LIG d   1       1.960  76.673 116.303  0.00  0.00     0.149 HD
ENDBRANCH   6  13
BRANCH   5  18
ATOM     18  N   LIG d   1      -0.339  74.615 115.033  0.00  0.00     0.381 N 
ATOM     19  H   LIG d   1      -1.131  74.228 114.561  0.00  0.00    -0.090 HD
ATOM     20  H   LIG d   1      -0.395  74.360 116.003  0.00  0.00    -0.090 HD
ATOM     21  H   LIG d   1       0.501  74.255 114.636  0.00  0.00    -0.090 HD
ENDBRANCH   5  18
BRANCH   3  22
ATOM     22  C   LIG d   1      -2.712  78.392 113.290  0.00  0.00     0.382 C 
ATOM     23  O   LIG d   1      -3.032  79.605 113.307  0.00  0.00    -0.241 OA
ATOM     24  O   LIG d   1      -3.154  77.653 112.389  0.00  0.00    -0.241 OA
ENDBRANCH   3  22
TORSDOF 7
ENDMDL
MODEL 2
REMARK VINA RESULT:      -4.5      2.326      3.612
REMARK  7 active torsions:
REMARK  status: ('A' for Active; 'I' for Inactive)
REMARK    1  A    between atoms: C_2  and  C_3 
REMARK    2  A    between atoms: C_3  and  O_6 
REMARK    3  A    between atoms: C_3  and  C_4 
REMARK    4  A    between atoms: C_7  and  O_6 
REMARK    5  A    between atoms: C_9  and  C_10 
REMARK    6  A    between atoms: N_15  and  C_14 
REMARK    7  A    between atoms: N_20  and  C_19 
REMARK       I    between atoms: C_22  and  N_20 
ROOT
ATOM      1  C   LIG d   1      -1.988  77.431 116.323  0.00  0.00     0.161 C 
ATOM      2  C   LIG d   1      -2.591  77.586 115.064  0.00  0.00     0.016 C 
ATOM      3  C   LIG d   1      -2.062  78.410 114.044  0.00  0.00     0.038 C 
ATOM      4  C   LIG d   1      -0.805  79.021 114.161  0.00  0.00     0.028 C 
ATOM      5  C   LIG d   1      -0.399  79.299 115.605  0.00  0.00    -0.047 C 
ATOM      6  C   LIG d   1      -0.558  78.001 116.430  0.00  0.00     0.091 C 
ENDROOT
BRANCH   1   7
ATOM      7  O   LIG d   1      -2.002  76.041 116.703  0.00  0.00    -0.368 OA
BRANCH   7   8
ATOM      8  C   LIG d   1      -0.793  75.291 116.426  0.00  0.00     0.119 C 
BRANCH   8   9
ATOM      9  C   LIG d   1      -0.997  74.565 115.082  0.00  0.00     0.028 C 
ATOM     10  C   LIG d   1      -0.064  75.096 113.981  0.00  0.00     0.006 C 
ENDBRANCH   8   9
BRANCH   8  11
ATOM     11  C   LIG d   1      -0.577  74.181 117.458  0.00  0.00     0.028 C 
ATOM     12  C   LIG d   1      -0.778  74.663 118.903  0.00  0.00     0.006 C 
ENDBRANCH   8  11
ENDBRANCH   7   8
ENDBRANCH   1   7
BRANCH   6  13
ATOM     13  N   LIG d   1      -0.263  78.207 117.872  0.00  0.00    -0.311 N 
ATOM     14  C   LIG d   1       0.919  77.936 118.424  0.00  0.00     0.210 C 
ATOM     15  C   LIG d   1       1.005  78.201 119.930  0.00  0.00     0.109 C 
ATOM     16  O   LIG d   1       1.914  77.532 117.803  0.00  0.00    -0.276 OA
ATOM     17  H   LIG d   1      -1.004  78.561 118.443  0.00  0.00     0.149 HD
ENDBRANCH   6  13
BRANCH   5  18
ATOM     18  N   LIG d   1       0.985  79.808 115.589  0.00  0.00     0.381 N 
ATOM     19  H   LIG d   1       1.011  80.732 115.973  0.00  0.00    -0.090 HD
ATOM     20  H   LIG d   1       1.304  79.854 114.637  0.00  0.00    -0.090 HD
ATOM     21  H   LIG d   1       1.577  79.204 116.116  0.00  0.00    -0.090 HD
ENDBRANCH   5  18
BRANCH   3  22
ATOM     22  C   LIG d   1      -2.813  78.662 112.905  0.00  0.00     0.382 C 
ATOM     23  O   LIG d   1      -3.172  77.712 112.169  0.00  0.00    -0.241 OA
ATOM     24  O   LIG d   1      -3.097  79.831 112.582  0.00  0.00    -0.241 OA
ENDBRANCH   3  22
TORSDOF 7
ENDMDL
MODEL 3
REMARK VINA RESULT:      -4.5      1.540      2.219
REMARK  7 active torsions:
REMARK  status: ('A' for Active; 'I' for Inactive)
REMARK    1  A    between atoms: C_2  and  C_3 
REMARK    2  A    between atoms: C_3  and  O_6 
REMARK    3  A    between atoms: C_3  and  C_4 
REMARK    4  A    between atoms: C_7  and  O_6 
REMARK    5  A    between atoms: C_9  and  C_10 
REMARK    6  A    between atoms: N_15  and  C_14 
REMARK    7  A    between atoms: N_20  and  C_19 
REMARK       I    between atoms: C_22  and  N_20 
ROOT
ATOM      1  C   LIG d   1      -0.111  77.731 116.443  0.00  0.00     0.161 C 
ATOM      2  C   LIG d   1      -1.014  78.270 115.511  0.00  0.00     0.016 C 
ATOM      3  C   LIG d   1      -2.061  77.524 114.921  0.00  0.00     0.038 C 
ATOM      4  C   LIG d   1      -2.371  76.222 115.341  0.00  0.00     0.028 C 
ATOM      5  C   LIG d   1      -1.175  75.469 115.913  0.00  0.00    -0.047 C 
ATOM      6  C   LIG d   1      -0.502  76.345 116.995  0.00  0.00     0.091 C 
ENDROOT
BRANCH   1   7
ATOM      7  O   LIG d   1       0.088  78.663 117.524  0.00  0.00    -0.368 OA
BRANCH   7   8
ATOM      8  C   LIG d   1       1.040  79.728 117.280  0.00  0.00     0.119 C 
BRANCH   8   9
ATOM      9  C   LIG d   1       2.435  79.201 117.671  0.00  0.00     0.028 C 
ATOM     10  C   LIG d   1       2.523  78.822 119.159  0.00  0.00     0.006 C 
ENDBRANCH   8   9
BRANCH   8  11
ATOM     11  C   LIG d   1       0.786  80.924 118.202  0.00  0.00     0.028 C 
ATOM     12  C   LIG d   1      -0.613  80.902 118.836  0.00  0.00     0.006 C 
ENDBRANCH   8  11
ENDBRANCH   7   8
ENDBRANCH   1   7
BRANCH   6  13
ATOM     13  N   LIG d   1       0.727  75.718 117.548  0.00  0.00    -0.311 N 
ATOM     14  C   LIG d   1       0.938  75.544 118.851  0.00  0.00     0.210 C 
ATOM     15  C   LIG d   1       2.280  74.896 119.208  0.00  0.00     0.109 C 
ATOM     16  O   LIG d   1       0.128  75.834 119.744  0.00  0.00    -0.276 OA
ATOM     17  H   LIG d   1       1.424  75.424 116.892  0.00  0.00     0.149 HD
ENDBRANCH   6  13
BRANCH   5  18
ATOM     18  N   LIG d   1      -1.667  74.181 116.436  0.00  0.00     0.381 N 
ATOM     19  H   LIG d   1      -2.403  73.837 115.852  0.00  0.00    -0.090 HD
ATOM     20  H   LIG d   1      -2.039  74.325 117.359  0.00  0.00    -0.090 HD
ATOM     21  H   LIG d   1      -0.923  73.519 116.470  0.00  0.00    -0.090 HD
ENDBRANCH   5  18
BRANCH   3  22
ATOM     22  C   LIG d   1      -2.786  78.068 113.872  0.00  0.00     0.382 C 
ATOM     23  O   LIG d   1      -3.087  79.286 113.883  0.00  0.00    -0.241 OA
ATOM     24  O   LIG d   1      -3.181  77.347 112.936  0.00  0.00    -0.241 OA
ENDBRANCH   3  22
TORSDOF 7
ENDMDL
MODEL 4
REMARK VINA RESULT:      -4.4      2.575      4.620
REMARK  7 active torsions:
REMARK  status: ('A' for Active; 'I' for Inactive)
REMARK    1  A    between atoms: C_2  and  C_3 
REMARK    2  A    between atoms: C_3  and  O_6 
REMARK    3  A    between atoms: C_3  and  C_4 
REMARK    4  A    between atoms: C_7  and  O_6 
REMARK    5  A    between atoms: C_9  and  C_10 
REMARK    6  A    between atoms: N_15  and  C_14 
REMARK    7  A    between atoms: N_20  and  C_19 
REMARK       I    between atoms: C_22  and  N_20 
ROOT
ATOM      1  C   LIG d   1      -0.208  77.737 117.832  0.00  0.00     0.161 C 
ATOM      2  C   LIG d   1      -0.813  76.556 117.369  0.00  0.00     0.016 C 
ATOM      3  C   LIG d   1      -1.200  76.356 116.024  0.00  0.00     0.038 C 
ATOM      4  C   LIG d   1      -0.869  77.271 115.013  0.00  0.00     0.028 C 
ATOM      5  C   LIG d   1      -0.708  78.701 115.519  0.00  0.00    -0.047 C 
ATOM      6  C   LIG d   1       0.262  78.701 116.723  0.00  0.00     0.091 C 
ENDROOT
BRANCH   1   7
ATOM      7  O   LIG d   1       0.887  77.412 118.711  0.00  0.00    -0.368 OA
BRANCH   7   8
ATOM      8  C   LIG d   1       1.621  76.203 118.396  0.00  0.00     0.119 C 
BRANCH   8   9
ATOM      9  C   LIG d   1       1.761  75.393 119.699  0.00  0.00     0.028 C 
ATOM     10  C   LIG d   1       0.794  74.198 119.754  0.00  0.00     0.006 C 
ENDBRANCH   8   9
BRANCH   8  11
ATOM     11  C   LIG d   1       3.054  76.519 117.958  0.00  0.00     0.028 C 
ATOM     12  C   LIG d   1       4.064  75.453 118.411  0.00  0.00     0.006 C 
ENDBRANCH   8  11
ENDBRANCH   7   8
ENDBRANCH   1   7
BRANCH   6  13
ATOM     13  N   LIG d   1       0.410  80.049 117.332  0.00  0.00    -0.311 N 
ATOM     14  C   LIG d   1       1.575  80.687 117.425  0.00  0.00     0.210 C 
ATOM     15  C   LIG d   1       1.508  82.058 118.105  0.00  0.00     0.109 C 
ATOM     16  O   LIG d   1       2.652  80.263 116.979  0.00  0.00    -0.276 OA
ATOM     17  H   LIG d   1      -0.419  80.480 117.691  0.00  0.00     0.149 HD
ENDBRANCH   6  13
BRANCH   5  18
ATOM     18  N   LIG d   1      -0.229  79.522 114.391  0.00  0.00     0.381 N 
ATOM     19  H   LIG d   1       0.587  79.104 113.990  0.00  0.00    -0.090 HD
ATOM     20  H   LIG d   1       0.020  80.433 114.734  0.00  0.00    -0.090 HD
ATOM     21  H   LIG d   1      -0.943  79.602 113.701  0.00  0.00    -0.090 HD
ENDBRANCH   5  18
BRANCH   3  22
ATOM     22  C   LIG d   1      -1.962  75.249 115.686  0.00  0.00     0.382 C 
ATOM     23  O   LIG d   1      -1.838  74.181 116.332  0.00  0.00    -0.241 OA
ATOM     24  O   LIG d   1      -2.740  75.290 114.714  0.00  0.00    -0.241 OA
ENDBRANCH   3  22
TORSDOF 7
ENDMDL
MODEL 5
REMARK VINA RESULT:      -4.3      1.994      2.970
REMARK  7 active torsions:
REMARK  status: ('A' for Active; 'I' for Inactive)
REMARK    1  A    between atoms: C_2  and  C_3 
REMARK    2  A    between atoms: C_3  and  O_6 
REMARK    3  A    between atoms: C_3  and  C_4 
REMARK    4  A    between atoms: C_7  and  O_6 
REMARK    5  A    between atoms: C_9  and  C_10 
REMARK    6  A    between atoms: N_15  and  C_14 
REMARK    7  A    between atoms: N_20  and  C_19 
REMARK       I    between atoms: C_22  and  N_20 
ROOT
ATOM      1  C   LIG d   1      -0.627  78.094 115.779  0.00  0.00     0.161 C 
ATOM      2  C   LIG d   1      -1.063  78.911 114.723  0.00  0.00     0.016 C 
ATOM      3  C   LIG d   1      -2.199  78.621 113.933  0.00  0.00     0.038 C 
ATOM      4  C   LIG d   1      -3.069  77.566 114.245  0.00  0.00     0.028 C 
ATOM      5  C   LIG d   1      -2.391  76.422 114.992  0.00  0.00    -0.047 C 
ATOM      6  C   LIG d   1      -1.627  76.999 116.205  0.00  0.00     0.091 C 
ENDROOT
BRANCH   1   7
ATOM      7  O   LIG d   1      -0.266  78.910 116.911  0.00  0.00    -0.368 OA
BRANCH   7   8
ATOM      8  C   LIG d   1       1.154  79.093 117.138  0.00  0.00     0.119 C 
BRANCH   8   9
ATOM      9  C   LIG d   1       1.476  78.523 118.534  0.00  0.00     0.028 C 
ATOM     10  C   LIG d   1       2.452  77.336 118.472  0.00  0.00     0.006 C 
ENDBRANCH   8   9
BRANCH   8  11
ATOM     11  C   LIG d   1       1.520  80.578 117.212  0.00  0.00     0.028 C 
ATOM     12  C   LIG d   1       2.554  80.990 116.153  0.00  0.00     0.006 C 
ENDBRANCH   8  11
ENDBRANCH   7   8
ENDBRANCH   1   7
BRANCH   6  13
ATOM     13  N   LIG d   1      -0.866  75.957 116.943  0.00  0.00    -0.311 N 
ATOM     14  C   LIG d   1      -1.004  75.734 118.249  0.00  0.00     0.210 C 
ATOM     15  C   LIG d   1      -0.109  74.627 118.814  0.00  0.00     0.109 C 
ATOM     16  O   LIG d   1      -1.805  76.327 118.986  0.00  0.00    -0.276 OA
ATOM     17  H   LIG d   1      -0.215  75.408 116.415  0.00  0.00     0.149 HD
ENDBRANCH   6  13
BRANCH   5  18
ATOM     18  N   LIG d   1      -3.439  75.456 115.374  0.00  0.00     0.381 N 
ATOM     19  H   LIG d   1      -4.277  75.945 115.619  0.00  0.00    -0.090 HD
ATOM     20  H   LIG d   1      -3.128  74.941 116.179  0.00  0.00    -0.090 HD
ATOM     21  H   LIG d   1      -3.619  74.832 114.620  0.00  0.00    -0.090 HD
ENDBRANCH   5  18
BRANCH   3  22
ATOM     22  C   LIG d   1      -2.452  79.368 112.792  0.00  0.00     0.382 C 
ATOM     23  O   LIG d   1      -3.060  80.461 112.881  0.00  0.00    -0.241 OA
ATOM     24  O   LIG d   1      -2.118  78.941 111.671  0.00  0.00    -0.241 OA
ENDBRANCH   3  22
TORSDOF 7
ENDMDL
MODEL 6
REMARK VINA RESULT:      -4.1      1.769      4.587
REMARK  7 active torsions:
REMARK  status: ('A' for Active; 'I' for Inactive)
REMARK    1  A    between atoms: C_2  and  C_3 
REMARK    2  A    between atoms: C_3  and  O_6 
REMARK    3  A    between atoms: C_3  and  C_4 
REMARK    4  A    between atoms: C_7  and  O_6 
REMARK    5  A    between atoms: C_9  and  C_10 
REMARK    6  A    between atoms: N_15  and  C_14 
REMARK    7  A    between atoms: N_20  and  C_19 
REMARK       I    between atoms: C_22  and  N_20 
ROOT
ATOM      1  C   LIG d   1      -1.551  78.194 116.567  0.00  0.00     0.161 C 
ATOM      2  C   LIG d   1      -1.499  77.412 117.733  0.00  0.00     0.016 C 
ATOM      3  C   LIG d   1      -0.880  76.143 117.792  0.00  0.00     0.038 C 
ATOM      4  C   LIG d   1      -0.133  75.632 116.720  0.00  0.00     0.028 C 
ATOM      5  C   LIG d   1      -0.584  76.159 115.362  0.00  0.00    -0.047 C 
ATOM      6  C   LIG d   1      -0.646  77.702 115.418  0.00  0.00     0.091 C 
ENDROOT
BRANCH   1   7
ATOM      7  O   LIG d   1      -1.253  79.568 116.886  0.00  0.00    -0.368 OA
BRANCH   7   8
ATOM      8  C   LIG d   1      -0.733  79.815 118.215  0.00  0.00     0.119 C 
BRANCH   8   9
ATOM      9  C   LIG d   1      -1.725  80.749 118.935  0.00  0.00     0.028 C 
ATOM     10  C   LIG d   1      -1.047  82.017 119.481  0.00  0.00     0.006 C 
ENDBRANCH   8   9
BRANCH   8  11
ATOM     11  C   LIG d   1       0.587  80.590 118.162  0.00  0.00     0.028 C 
ATOM     12  C   LIG d   1       1.717  79.796 117.487  0.00  0.00     0.006 C 
ENDBRANCH   8  11
ENDBRANCH   7   8
ENDBRANCH   1   7
BRANCH   6  13
ATOM     13  N   LIG d   1      -1.159  78.295 114.156  0.00  0.00    -0.311 N 
ATOM     14  C   LIG d   1      -2.238  77.843 113.519  0.00  0.00     0.210 C 
ATOM     15  C   LIG d   1      -2.583  78.585 112.224  0.00  0.00     0.109 C 
ATOM     16  O   LIG d   1      -2.961  76.919 113.921  0.00  0.00    -0.276 OA
ATOM     17  H   LIG d   1      -0.651  79.070 113.776  0.00  0.00     0.149 HD
ENDBRANCH   6  13
BRANCH   5  18
ATOM     18  N   LIG d   1       0.365  75.654 114.351  0.00  0.00     0.381 N 
ATOM     19  H   LIG d   1       1.199  75.332 114.800  0.00  0.00    -0.090 HD
ATOM     20  H   LIG d   1       0.610  76.407 113.732  0.00  0.00    -0.090 HD
ATOM     21  H   LIG d   1      -0.051  74.911 113.834  0.00  0.00    -0.090 HD
ENDBRANCH   5  18
BRANCH   3  22
ATOM     22  C   LIG d   1      -1.038  75.352 118.920  0.00  0.00     0.382 C 
ATOM     23  O   LIG d   1      -1.626  75.811 119.929  0.00  0.00    -0.241 OA
ATOM     24  O   LIG d   1      -0.562  74.202 118.958  0.00  0.00    -0.241 OA
ENDBRANCH   3  22
TORSDOF 7
ENDMDL
MODEL 7
REMARK VINA RESULT:      -3.9      2.625      4.826
REMARK  7 active torsions:
REMARK  status: ('A' for Active; 'I' for Inactive)
REMARK    1  A    between atoms: C_2  and  C_3 
REMARK    2  A    between atoms: C_3  and  O_6 
REMARK    3  A    between atoms: C_3  and  C_4 
REMARK    4  A    between atoms: C_7  and  O_6 
REMARK    5  A    between atoms: C_9  and  C_10 
REMARK    6  A    between atoms: N_15  and  C_14 
REMARK    7  A    between atoms: N_20  and  C_19 
REMARK       I    between atoms: C_22  and  N_20 
ROOT
ATOM      1  C   LIG d   1      -0.048  78.104 116.890  0.00  0.00     0.161 C 
ATOM      2  C   LIG d   1       0.543  79.286 116.413  0.00  0.00     0.016 C 
ATOM      3  C   LIG d   1       1.713  79.851 116.970  0.00  0.00     0.038 C 
ATOM      4  C   LIG d   1       2.462  79.187 117.953  0.00  0.00     0.028 C 
ATOM      5  C   LIG d   1       1.629  78.241 118.813  0.00  0.00    -0.047 C 
ATOM      6  C   LIG d   1       0.817  77.306 117.888  0.00  0.00     0.091 C 
ENDROOT
BRANCH   1   7
ATOM      7  O   LIG d   1      -0.433  77.268 115.781  0.00  0.00    -0.368 OA
BRANCH   7   8
ATOM      8  C   LIG d   1      -1.848  77.229 115.473  0.00  0.00     0.119 C 
BRANCH   8   9
ATOM      9  C   LIG d   1      -2.285  75.751 115.489  0.00  0.00     0.028 C 
ATOM     10  C   LIG d   1      -1.088  74.785 115.472  0.00  0.00     0.006 C 
ENDBRANCH   8   9
BRANCH   8  11
ATOM     11  C   LIG d   1      -2.121  77.717 114.047  0.00  0.00     0.028 C 
ATOM     12  C   LIG d   1      -2.468  79.213 113.985  0.00  0.00     0.006 C 
ENDBRANCH   8  11
ENDBRANCH   7   8
ENDBRANCH   1   7
BRANCH   6  13
ATOM     13  N   LIG d   1      -0.089  76.405 118.648  0.00  0.00    -0.311 N 
ATOM     14  C   LIG d   1       0.231  75.156 118.982  0.00  0.00     0.210 C 
ATOM     15  C   LIG d   1      -0.855  74.393 119.747  0.00  0.00     0.109 C 
ATOM     16  O   LIG d   1       1.324  74.619 118.746  0.00  0.00    -0.276 OA
ATOM     17  H   LIG d   1      -0.984  76.771 118.907  0.00  0.00     0.149 HD
ENDBRANCH   6  13
BRANCH   5  18
ATOM     18  N   LIG d   1       2.556  77.514 119.701  0.00  0.00     0.381 N 
ATOM     19  H   LIG d   1       2.402  76.529 119.617  0.00  0.00    -0.090 HD
ATOM     20  H   LIG d   1       2.373  77.783 120.652  0.00  0.00    -0.090 HD
ATOM     21  H   LIG d   1       3.498  77.732 119.462  0.00  0.00    -0.090 HD
ENDBRANCH   5  18
BRANCH   3  22
ATOM     22  C   LIG d   1       2.122  81.115 116.572  0.00  0.00     0.382 C 
ATOM     23  O   LIG d   1       3.157  81.248 115.875  0.00  0.00    -0.241 OA
ATOM     24  O   LIG d   1       1.495  82.127 116.939  0.00  0.00    -0.241 OA
ENDBRANCH   3  22
TORSDOF 7
ENDMDL
MODEL 8
REMARK VINA RESULT:      -3.7      3.245      5.646
REMARK  7 active torsions:
REMARK  status: ('A' for Active; 'I' for Inactive)
REMARK    1  A    between atoms: C_2  and  C_3 
REMARK    2  A    between atoms: C_3  and  O_6 
REMARK    3  A    between atoms: C_3  and  C_4 
REMARK    4  A    between atoms: C_7  and  O_6 
REMARK    5  A    between atoms: C_9  and  C_10 
REMARK    6  A    between atoms: N_15  and  C_14 
REMARK    7  A    between atoms: N_20  and  C_19 
REMARK       I    between atoms: C_22  and  N_20 
ROOT
ATOM      1  C   LIG d   1       1.590  78.166 118.889  0.00  0.00     0.161 C 
ATOM      2  C   LIG d   1       0.514  77.274 118.747  0.00  0.00     0.016 C 
ATOM      3  C   LIG d   1      -0.380  77.303 117.652  0.00  0.00     0.038 C 
ATOM      4  C   LIG d   1      -0.166  78.134 116.542  0.00  0.00     0.028 C 
ATOM      5  C   LIG d   1       0.617  79.399 116.874  0.00  0.00    -0.047 C 
ATOM      6  C   LIG d   1       1.905  79.006 117.634  0.00  0.00     0.091 C 
ENDROOT
BRANCH   1   7
ATOM      7  O   LIG d   1       2.765  77.449 119.320  0.00  0.00    -0.368 OA
BRANCH   7   8
ATOM      8  C   LIG d   1       3.532  76.799 118.277  0.00  0.00     0.119 C 
BRANCH   8   9
ATOM      9  C   LIG d   1       3.558  75.291 118.593  0.00  0.00     0.028 C 
ATOM     10  C   LIG d   1       4.616  74.932 119.651  0.00  0.00     0.006 C 
ENDBRANCH   8   9
BRANCH   8  11
ATOM     11  C   LIG d   1       4.997  77.244 118.303  0.00  0.00     0.028 C 
ATOM     12  C   LIG d   1       5.605  77.375 116.898  0.00  0.00     0.006 C 
ENDBRANCH   8  11
ENDBRANCH   7   8
ENDBRANCH   1   7
BRANCH   6  13
ATOM     13  N   LIG d   1       2.689  80.191 118.071  0.00  0.00    -0.311 N 
ATOM     14  C   LIG d   1       3.635  80.760 117.325  0.00  0.00     0.210 C 
ATOM     15  C   LIG d   1       4.335  81.958 117.973  0.00  0.00     0.109 C 
ATOM     16  O   LIG d   1       3.938  80.405 116.176  0.00  0.00    -0.276 OA
ATOM     17  H   LIG d   1       2.486  80.563 118.978  0.00  0.00     0.149 HD
ENDBRANCH   6  13
BRANCH   5  18
ATOM     18  N   LIG d   1       0.887  80.102 115.606  0.00  0.00     0.381 N 
ATOM     19  H   LIG d   1       0.756  81.086 115.730  0.00  0.00    -0.090 HD
ATOM     20  H   LIG d   1       0.234  79.783 114.912  0.00  0.00    -0.090 HD
ATOM     21  H   LIG d   1       1.819  79.919 115.305  0.00  0.00    -0.090 HD
ENDBRANCH   5  18
BRANCH   3  22
ATOM     22  C   LIG d   1      -1.525  76.521 117.679  0.00  0.00     0.382 C 
ATOM     23  O   LIG d   1      -1.472  75.320 117.322  0.00  0.00    -0.241 OA
ATOM     24  O   LIG d   1      -2.619  77.014 118.013  0.00  0.00    -0.241 OA
ENDBRANCH   3  22
TORSDOF 7
ENDMDL
MODEL 9
REMARK VINA RESULT:      -3.6      3.879      5.811
REMARK  7 active torsions:
REMARK  status: ('A' for Active; 'I' for Inactive)
REMARK    1  A    between atoms: C_2  and  C_3 
REMARK    2  A    between atoms: C_3  and  O_6 
REMARK    3  A    between atoms: C_3  and  C_4 
REMARK    4  A    between atoms: C_7  and  O_6 
REMARK    5  A    between atoms: C_9  and  C_10 
REMARK    6  A    between atoms: N_15  and  C_14 
REMARK    7  A    between atoms: N_20  and  C_19 
REMARK       I    between atoms: C_22  and  N_20 
ROOT
ATOM      1  C   LIG d   1       0.079  80.376 113.190  0.00  0.00     0.161 C 
ATOM      2  C   LIG d   1      -0.984  79.716 112.549  0.00  0.00     0.016 C 
ATOM      3  C   LIG d   1      -1.816  78.773 113.195  0.00  0.00     0.038 C 
ATOM      4  C   LIG d   1      -1.736  78.536 114.575  0.00  0.00     0.028 C 
ATOM      5  C   LIG d   1      -0.352  78.803 115.157  0.00  0.00    -0.047 C 
ATOM      6  C   LIG d   1       0.111  80.213 114.724  0.00  0.00     0.091 C 
ENDROOT
BRANCH   1   7
ATOM      7  O   LIG d   1       0.072  81.772 112.834  0.00  0.00    -0.368 OA
BRANCH   7   8
ATOM      8  C   LIG d   1       0.460  82.086 111.474  0.00  0.00     0.119 C 
BRANCH   8   9
ATOM      9  C   LIG d   1       1.852  81.470 111.235  0.00  0.00     0.028 C 
ATOM     10  C   LIG d   1       1.855  80.456 110.079  0.00  0.00     0.006 C 
ENDBRANCH   8   9
BRANCH   8  11
ATOM     11  C   LIG d   1       0.645  83.594 111.280  0.00  0.00     0.028 C 
ATOM     12  C   LIG d   1       1.101  83.961 109.859  0.00  0.00     0.006 C 
ENDBRANCH   8  11
ENDBRANCH   7   8
ENDBRANCH   1   7
BRANCH   6  13
ATOM     13  N   LIG d   1       1.491  80.521 115.180  0.00  0.00    -0.311 N 
ATOM     14  C   LIG d   1       1.770  81.033 116.378  0.00  0.00     0.210 C 
ATOM     15  C   LIG d   1       3.257  81.294 116.639  0.00  0.00     0.109 C 
ATOM     16  O   LIG d   1       0.931  81.266 117.260  0.00  0.00    -0.276 OA
ATOM     17  H   LIG d   1       2.237  80.334 114.538  0.00  0.00     0.149 HD
ENDBRANCH   6  13
BRANCH   5  18
ATOM     18  N   LIG d   1      -0.446  78.650 116.621  0.00  0.00     0.381 N 
ATOM     19  H   LIG d   1      -1.395  78.470 116.882  0.00  0.00    -0.090 HD
ATOM     20  H   LIG d   1      -0.157  79.508 117.057  0.00  0.00    -0.090 HD
ATOM     21  H   LIG d   1       0.137  77.901 116.924  0.00  0.00    -0.090 HD
ENDBRANCH   5  18
BRANCH   3  22
ATOM     22  C   LIG d   1      -2.715  78.026 112.449  0.00  0.00     0.382 C 
ATOM     23  O   LIG d   1      -2.834  78.235 111.218  0.00  0.00    -0.241 OA
ATOM     24  O   LIG d   1      -3.440  77.176 113.000  0.00  0.00    -0.241 OA
ENDBRANCH   3  22
TORSDOF 7
ENDMDL
