MODEL 1
REMARK VINA RESULT:      -5.6      0.000      0.000
REMARK  7 active torsions:
REMARK  status: ('A' for Active; 'I' for Inactive)
REMARK    1  A    between atoms: C_2  and  C_3 
REMARK    2  A    between atoms: C_3  and  O_6 
REMARK    3  A    between atoms: C_3  and  C_4 
REMARK    4  A    between atoms: C_7  and  O_6 
REMARK    5  A    between atoms: C_9  and  C_10 
REMARK    6  A    between atoms: N_15  and  C_14 
REMARK    7  A    between atoms: N_20  and  C_19 
REMARK       I    between atoms: C_22  and  N_20 
ROOT
ATOM      1  C   LIG d   1      -1.764  80.738 114.289  0.00  0.00     0.161 C 
ATOM      2  C   LIG d   1      -1.560  82.105 114.038  0.00  0.00     0.016 C 
ATOM      3  C   LIG d   1      -1.074  82.607 112.809  0.00  0.00     0.038 C 
ATOM      4  C   LIG d   1      -0.902  81.782 111.688  0.00  0.00     0.028 C 
ATOM      5  C   LIG d   1      -0.613  80.328 112.044  0.00  0.00    -0.047 C 
ATOM      6  C   LIG d   1      -1.686  79.834 113.041  0.00  0.00     0.091 C 
ENDROOT
BRANCH   1   7
ATOM      7  O   LIG d   1      -3.020  80.548 114.969  0.00  0.00    -0.368 OA
BRANCH   7   8
ATOM      8  C   LIG d   1      -2.939  80.142 116.357  0.00  0.00     0.119 C 
BRANCH   8   9
ATOM      9  C   LIG d   1      -3.283  81.371 117.220  0.00  0.00     0.028 C 
ATOM     10  C   LIG d   1      -2.056  81.933 117.958  0.00  0.00     0.006 C 
ENDBRANCH   8   9
BRANCH   8  11
ATOM     11  C   LIG d   1      -1.506  79.764 116.744  0.00  0.00     0.028 C 
ATOM     12  C   LIG d   1      -1.366  78.285 117.137  0.00  0.00     0.006 C 
ENDBRANCH   8  11
ENDBRANCH   7   8
ENDBRANCH   1   7
BRANCH   6  13
ATOM     13  N   LIG d   1      -1.431  78.446 113.507  0.00  0.00    -0.311 N 
ATOM     14  C   LIG d   1      -2.307  77.452 113.368  0.00  0.00     0.210 C 
ATOM     15  C   LIG d   1      -1.852  76.104 113.936  0.00  0.00     0.109 C 
ATOM     16  O   LIG d   1      -3.404  77.552 112.799  0.00  0.00    -0.276 OA
ATOM     17  H   LIG d   1      -0.551  78.269 113.953  0.00  0.00     0.149 HD
ENDBRANCH   6  13
BRANCH   5  18
ATOM     18  N   LIG d   1      -0.593  79.556 110.787  0.00  0.00     0.381 N 
ATOM     19  H   LIG d   1       0.171  79.860 110.216  0.00  0.00    -0.090 HD
ATOM     20  H   LIG d   1      -1.448  79.726 110.288  0.00  0.00    -0.090 HD
ATOM     21  H   LIG d   1      -0.503  78.584 110.986  0.00  0.00    -0.090 HD
ENDBRANCH   5  18
BRANCH   3  22
ATOM     22  C   LIG d   1      -0.718  83.943 112.705  0.00  0.00     0.382 C 
ATOM     23  O   LIG d   1      -1.108  84.621 111.724  0.00  0.00    -0.241 OA
ATOM     24  O   LIG d   1       0.025  84.467 113.556  0.00  0.00    -0.241 OA
ENDBRANCH   3  22
TORSDOF 7
ENDMDL
MODEL 2
REMARK VINA RESULT:      -5.4      2.782      3.640
REMARK  7 active torsions:
REMARK  status: ('A' for Active; 'I' for Inactive)
REMARK    1  A    between atoms: C_2  and  C_3 
REMARK    2  A    between atoms: C_3  and  O_6 
REMARK    3  A    between atoms: C_3  and  C_4 
REMARK    4  A    between atoms: C_7  and  O_6 
REMARK    5  A    between atoms: C_9  and  C_10 
REMARK    6  A    between atoms: N_15  and  C_14 
REMARK    7  A    between atoms: N_20  and  C_19 
REMARK       I    between atoms: C_22  and  N_20 
ROOT
ATOM      1  C   LIG d   1       0.861  81.691 112.983  0.00  0.00     0.161 C 
ATOM      2  C   LIG d   1       1.852  82.555 112.488  0.00  0.00     0.016 C 
ATOM      3  C   LIG d   1       2.222  82.615 111.124  0.00  0.00     0.038 C 
ATOM      4  C   LIG d   1       1.517  81.916 110.133  0.00  0.00     0.028 C 
ATOM      5  C   LIG d   1       0.841  80.650 110.649  0.00  0.00    -0.047 C 
ATOM      6  C   LIG d   1       0.004  81.002 111.900  0.00  0.00     0.091 C 
ENDROOT
BRANCH   1   7
ATOM      7  O   LIG d   1       0.018  82.396 113.915  0.00  0.00    -0.368 OA
BRANCH   7   8
ATOM      8  C   LIG d   1       0.136  82.002 115.304  0.00  0.00     0.119 C 
BRANCH   8   9
ATOM      9  C   LIG d   1      -1.291  81.807 115.852  0.00  0.00     0.028 C 
ATOM     10  C   LIG d   1      -2.339  82.608 115.060  0.00  0.00     0.006 C 
ENDBRANCH   8   9
BRANCH   8  11
ATOM     11  C   LIG d   1       0.745  83.123 116.152  0.00  0.00     0.028 C 
ATOM     12  C   LIG d   1       0.864  84.451 115.387  0.00  0.00     0.006 C 
ENDBRANCH   8  11
ENDBRANCH   7   8
ENDBRANCH   1   7
BRANCH   6  13
ATOM     13  N   LIG d   1      -0.623  79.804 112.517  0.00  0.00    -0.311 N 
ATOM     14  C   LIG d   1      -1.938  79.660 112.667  0.00  0.00     0.210 C 
ATOM     15  C   LIG d   1      -2.373  78.358 113.346  0.00  0.00     0.109 C 
ATOM     16  O   LIG d   1      -2.788  80.473 112.273  0.00  0.00    -0.276 OA
ATOM     17  H   LIG d   1      -0.008  79.081 112.837  0.00  0.00     0.149 HD
ENDBRANCH   6  13
BRANCH   5  18
ATOM     18  N   LIG d   1       0.031  80.097 109.548  0.00  0.00     0.381 N 
ATOM     19  H   LIG d   1       0.008  79.099 109.612  0.00  0.00    -0.090 HD
ATOM     20  H   LIG d   1       0.457  80.347 108.673  0.00  0.00    -0.090 HD
ATOM     21  H   LIG d   1      -0.896  80.461 109.590  0.00  0.00    -0.090 HD
ENDBRANCH   5  18
BRANCH   3  22
ATOM     22  C   LIG d   1       3.335  83.350 110.746  0.00  0.00     0.382 C 
ATOM     23  O   LIG d   1       4.193  83.674 111.603  0.00  0.00    -0.241 OA
ATOM     24  O   LIG d   1       3.471  83.730 109.568  0.00  0.00    -0.241 OA
ENDBRANCH   3  22
TORSDOF 7
ENDMDL
MODEL 3
REMARK VINA RESULT:      -5.3      3.094      5.532
REMARK  7 active torsions:
REMARK  status: ('A' for Active; 'I' for Inactive)
REMARK    1  A    between atoms: C_2  and  C_3 
REMARK    2  A    between atoms: C_3  and  O_6 
REMARK    3  A    between atoms: C_3  and  C_4 
REMARK    4  A    between atoms: C_7  and  O_6 
REMARK    5  A    between atoms: C_9  and  C_10 
REMARK    6  A    between atoms: N_15  and  C_14 
REMARK    7  A    between atoms: N_20  and  C_19 
REMARK       I    between atoms: C_22  and  N_20 
ROOT
ATOM      1  C   LIG d   1       0.073  83.496 112.238  0.00  0.00     0.161 C 
ATOM      2  C   LIG d   1      -1.094  82.988 112.833  0.00  0.00     0.016 C 
ATOM      3  C   LIG d   1      -1.506  81.641 112.713  0.00  0.00     0.038 C 
ATOM      4  C   LIG d   1      -0.694  80.668 112.112  0.00  0.00     0.028 C 
ATOM      5  C   LIG d   1       0.253  81.235 111.060  0.00  0.00    -0.047 C 
ATOM      6  C   LIG d   1       1.028  82.425 111.671  0.00  0.00     0.091 C 
ENDROOT
BRANCH   1   7
ATOM      7  O   LIG d   1       0.769  84.344 113.173  0.00  0.00    -0.368 OA
BRANCH   7   8
ATOM      8  C   LIG d   1       1.641  83.673 114.115  0.00  0.00     0.119 C 
BRANCH   8   9
ATOM      9  C   LIG d   1       1.136  84.006 115.532  0.00  0.00     0.028 C 
ATOM     10  C   LIG d   1       0.328  82.854 116.153  0.00  0.00     0.006 C 
ENDBRANCH   8   9
BRANCH   8  11
ATOM     11  C   LIG d   1       3.066  84.231 114.051  0.00  0.00     0.028 C 
ATOM     12  C   LIG d   1       3.756  84.264 115.424  0.00  0.00     0.006 C 
ENDBRANCH   8  11
ENDBRANCH   7   8
ENDBRANCH   1   7
BRANCH   6  13
ATOM     13  N   LIG d   1       1.916  83.091 110.683  0.00  0.00    -0.311 N 
ATOM     14  C   LIG d   1       3.184  82.737 110.482  0.00  0.00     0.210 C 
ATOM     15  C   LIG d   1       3.928  83.568 109.431  0.00  0.00     0.109 C 
ATOM     16  O   LIG d   1       3.755  81.794 111.050  0.00  0.00    -0.276 OA
ATOM     17  H   LIG d   1       1.525  83.847 110.155  0.00  0.00     0.149 HD
ENDBRANCH   6  13
BRANCH   5  18
ATOM     18  N   LIG d   1       1.133  80.139 110.615  0.00  0.00     0.381 N 
ATOM     19  H   LIG d   1       1.942  80.516 110.162  0.00  0.00    -0.090 HD
ATOM     20  H   LIG d   1       0.636  79.572 109.951  0.00  0.00    -0.090 HD
ATOM     21  H   LIG d   1       1.409  79.585 111.395  0.00  0.00    -0.090 HD
ENDBRANCH   5  18
BRANCH   3  22
ATOM     22  C   LIG d   1      -2.762  81.264 113.164  0.00  0.00     0.382 C 
ATOM     23  O   LIG d   1      -3.380  81.991 113.978  0.00  0.00    -0.241 OA
ATOM     24  O   LIG d   1      -3.265  80.184 112.801  0.00  0.00    -0.241 OA
ENDBRANCH   3  22
TORSDOF 7
ENDMDL
MODEL 4
REMARK VINA RESULT:      -5.1      3.215      6.780
REMARK  7 active torsions:
REMARK  status: ('A' for Active; 'I' for Inactive)
REMARK    1  A    between atoms: C_2  and  C_3 
REMARK    2  A    between atoms: C_3  and  O_6 
REMARK    3  A    between atoms: C_3  and  C_4 
REMARK    4  A    between atoms: C_7  and  O_6 
REMARK    5  A    between atoms: C_9  and  C_10 
REMARK    6  A    between atoms: N_15  and  C_14 
REMARK    7  A    between atoms: N_20  and  C_19 
REMARK       I    between atoms: C_22  and  N_20 
ROOT
ATOM      1  C   LIG d   1       0.255  81.932 111.366  0.00  0.00     0.161 C 
ATOM      2  C   LIG d   1      -0.638  80.852 111.466  0.00  0.00     0.016 C 
ATOM      3  C   LIG d   1      -1.657  80.773 112.443  0.00  0.00     0.038 C 
ATOM      4  C   LIG d   1      -1.951  81.846 113.296  0.00  0.00     0.028 C 
ATOM      5  C   LIG d   1      -0.753  82.751 113.566  0.00  0.00    -0.047 C 
ATOM      6  C   LIG d   1      -0.121  83.163 112.217  0.00  0.00     0.091 C 
ENDROOT
BRANCH   1   7
ATOM      7  O   LIG d   1       0.413  82.308 109.984  0.00  0.00    -0.368 OA
BRANCH   7   8
ATOM      8  C   LIG d   1       1.744  82.160 109.431  0.00  0.00     0.119 C 
BRANCH   8   9
ATOM      9  C   LIG d   1       2.539  81.242 110.379  0.00  0.00     0.028 C 
ATOM     10  C   LIG d   1       2.899  79.896 109.728  0.00  0.00     0.006 C 
ENDBRANCH   8   9
BRANCH   8  11
ATOM     11  C   LIG d   1       2.498  83.493 109.430  0.00  0.00     0.028 C 
ATOM     12  C   LIG d   1       3.997  83.330 109.731  0.00  0.00     0.006 C 
ENDBRANCH   8  11
ENDBRANCH   7   8
ENDBRANCH   1   7
BRANCH   6  13
ATOM     13  N   LIG d   1       1.107  83.980 112.393  0.00  0.00    -0.311 N 
ATOM     14  C   LIG d   1       2.123  83.619 113.176  0.00  0.00     0.210 C 
ATOM     15  C   LIG d   1       3.284  84.617 113.230  0.00  0.00     0.109 C 
ATOM     16  O   LIG d   1       2.186  82.552 113.805  0.00  0.00    -0.276 OA
ATOM     17  H   LIG d   1       1.154  84.847 111.894  0.00  0.00     0.149 HD
ENDBRANCH   6  13
BRANCH   5  18
ATOM     18  N   LIG d   1      -1.233  83.901 114.355  0.00  0.00     0.381 N 
ATOM     19  H   LIG d   1      -2.076  84.259 113.954  0.00  0.00    -0.090 HD
ATOM     20  H   LIG d   1      -0.538  84.627 114.328  0.00  0.00    -0.090 HD
ATOM     21  H   LIG d   1      -1.396  83.624 115.298  0.00  0.00    -0.090 HD
ENDBRANCH   5  18
BRANCH   3  22
ATOM     22  C   LIG d   1      -2.369  79.593 112.599  0.00  0.00     0.382 C 
ATOM     23  O   LIG d   1      -3.064  79.412 113.628  0.00  0.00    -0.241 OA
ATOM     24  O   LIG d   1      -2.290  78.690 111.745  0.00  0.00    -0.241 OA
ENDBRANCH   3  22
TORSDOF 7
ENDMDL
MODEL 5
REMARK VINA RESULT:      -5.1      2.982      5.221
REMARK  7 active torsions:
REMARK  status: ('A' for Active; 'I' for Inactive)
REMARK    1  A    between atoms: C_2  and  C_3 
REMARK    2  A    between atoms: C_3  and  O_6 
REMARK    3  A    between atoms: C_3  and  C_4 
REMARK    4  A    between atoms: C_7  and  O_6 
REMARK    5  A    between atoms: C_9  and  C_10 
REMARK    6  A    between atoms: N_15  and  C_14 
REMARK    7  A    between atoms: N_20  and  C_19 
REMARK       I    between atoms: C_22  and  N_20 
ROOT
ATOM      1  C   LIG d   1       0.868  81.977 112.615  0.00  0.00     0.161 C 
ATOM      2  C   LIG d   1      -0.440  81.710 113.052  0.00  0.00     0.016 C 
ATOM      3  C   LIG d   1      -1.271  80.727 112.468  0.00  0.00     0.038 C 
ATOM      4  C   LIG d   1      -0.792  79.833 111.498  0.00  0.00     0.028 C 
ATOM      5  C   LIG d   1       0.361  80.395 110.673  0.00  0.00    -0.047 C 
ATOM      6  C   LIG d   1       1.445  80.937 111.632  0.00  0.00     0.091 C 
ENDROOT
BRANCH   1   7
ATOM      7  O   LIG d   1       1.741  82.131 113.751  0.00  0.00    -0.368 OA
BRANCH   7   8
ATOM      8  C   LIG d   1       1.300  83.060 114.772  0.00  0.00     0.119 C 
BRANCH   8   9
ATOM      9  C   LIG d   1       2.295  84.237 114.788  0.00  0.00     0.028 C 
ATOM     10  C   LIG d   1       2.854  84.552 113.390  0.00  0.00     0.006 C 
ENDBRANCH   8   9
BRANCH   8  11
ATOM     11  C   LIG d   1       1.387  82.437 116.168  0.00  0.00     0.028 C 
ATOM     12  C   LIG d   1       1.842  80.969 116.138  0.00  0.00     0.006 C 
ENDBRANCH   8  11
ENDBRANCH   7   8
ENDBRANCH   1   7
BRANCH   6  13
ATOM     13  N   LIG d   1       2.572  81.581 110.907  0.00  0.00    -0.311 N 
ATOM     14  C   LIG d   1       2.419  82.624 110.093  0.00  0.00     0.210 C 
ATOM     15  C   LIG d   1       3.708  83.121 109.430  0.00  0.00     0.109 C 
ATOM     16  O   LIG d   1       1.344  83.204 109.881  0.00  0.00    -0.276 OA
ATOM     17  H   LIG d   1       3.485  81.193 111.046  0.00  0.00     0.149 HD
ENDBRANCH   6  13
BRANCH   5  18
ATOM     18  N   LIG d   1       0.851  79.313 109.798  0.00  0.00     0.381 N 
ATOM     19  H   LIG d   1       1.551  78.782 110.276  0.00  0.00    -0.090 HD
ATOM     20  H   LIG d   1       1.268  79.721 108.980  0.00  0.00    -0.090 HD
ATOM     21  H   LIG d   1       0.096  78.720 109.534  0.00  0.00    -0.090 HD
ENDBRANCH   5  18
BRANCH   3  22
ATOM     22  C   LIG d   1      -2.609  80.656 112.826  0.00  0.00     0.382 C 
ATOM     23  O   LIG d   1      -3.359  81.645 112.646  0.00  0.00    -0.241 OA
ATOM     24  O   LIG d   1      -3.065  79.631 113.367  0.00  0.00    -0.241 OA
ENDBRANCH   3  22
TORSDOF 7
ENDMDL
MODEL 6
REMARK VINA RESULT:      -4.8      2.327      4.155
REMARK  7 active torsions:
REMARK  status: ('A' for Active; 'I' for Inactive)
REMARK    1  A    between atoms: C_2  and  C_3 
REMARK    2  A    between atoms: C_3  and  O_6 
REMARK    3  A    between atoms: C_3  and  C_4 
REMARK    4  A    between atoms: C_7  and  O_6 
REMARK    5  A    between atoms: C_9  and  C_10 
REMARK    6  A    between atoms: N_15  and  C_14 
REMARK    7  A    between atoms: N_20  and  C_19 
REMARK       I    between atoms: C_22  and  N_20 
ROOT
ATOM      1  C   LIG d   1      -2.512  81.359 114.144  0.00  0.00     0.161 C 
ATOM      2  C   LIG d   1      -2.090  81.502 112.812  0.00  0.00     0.016 C 
ATOM      3  C   LIG d   1      -0.899  82.167 112.439  0.00  0.00     0.038 C 
ATOM      4  C   LIG d   1       0.034  82.604 113.391  0.00  0.00     0.028 C 
ATOM      5  C   LIG d   1      -0.588  82.930 114.745  0.00  0.00    -0.047 C 
ATOM      6  C   LIG d   1      -1.451  81.731 115.201  0.00  0.00     0.091 C 
ENDROOT
BRANCH   1   7
ATOM      7  O   LIG d   1      -2.988  80.016 114.364  0.00  0.00    -0.368 OA
BRANCH   7   8
ATOM      8  C   LIG d   1      -1.973  78.986 114.451  0.00  0.00     0.119 C 
BRANCH   8   9
ATOM      9  C   LIG d   1      -2.305  77.918 113.391  0.00  0.00     0.028 C 
ATOM     10  C   LIG d   1      -1.842  76.512 113.810  0.00  0.00     0.006 C 
ENDBRANCH   8   9
BRANCH   8  11
ATOM     11  C   LIG d   1      -2.035  78.256 115.796  0.00  0.00     0.028 C 
ATOM     12  C   LIG d   1      -3.359  78.490 116.541  0.00  0.00     0.006 C 
ENDBRANCH   8  11
ENDBRANCH   7   8
ENDBRANCH   1   7
BRANCH   6  13
ATOM     13  N   LIG d   1      -2.164  82.000 116.478  0.00  0.00    -0.311 N 
ATOM     14  C   LIG d   1      -1.717  81.597 117.666  0.00  0.00     0.210 C 
ATOM     15  C   LIG d   1      -2.615  81.961 118.852  0.00  0.00     0.109 C 
ATOM     16  O   LIG d   1      -0.646  81.000 117.853  0.00  0.00    -0.276 OA
ATOM     17  H   LIG d   1      -3.026  82.506 116.421  0.00  0.00     0.149 HD
ENDBRANCH   6  13
BRANCH   5  18
ATOM     18  N   LIG d   1       0.512  83.239 115.678  0.00  0.00     0.381 N 
ATOM     19  H   LIG d   1       1.366  82.846 115.336  0.00  0.00    -0.090 HD
ATOM     20  H   LIG d   1       0.308  82.823 116.570  0.00  0.00    -0.090 HD
ATOM     21  H   LIG d   1       0.608  84.225 115.777  0.00  0.00    -0.090 HD
ENDBRANCH   5  18
BRANCH   3  22
ATOM     22  C   LIG d   1      -0.651  82.435 111.102  0.00  0.00     0.382 C 
ATOM     23  O   LIG d   1      -1.063  83.505 110.590  0.00  0.00    -0.241 OA
ATOM     24  O   LIG d   1      -0.060  81.602 110.389  0.00  0.00    -0.241 OA
ENDBRANCH   3  22
TORSDOF 7
ENDMDL
MODEL 7
REMARK VINA RESULT:      -4.6      2.630      6.333
REMARK  7 active torsions:
REMARK  status: ('A' for Active; 'I' for Inactive)
REMARK    1  A    between atoms: C_2  and  C_3 
REMARK    2  A    between atoms: C_3  and  O_6 
REMARK    3  A    between atoms: C_3  and  C_4 
REMARK    4  A    between atoms: C_7  and  O_6 
REMARK    5  A    between atoms: C_9  and  C_10 
REMARK    6  A    between atoms: N_15  and  C_14 
REMARK    7  A    between atoms: N_20  and  C_19 
REMARK       I    between atoms: C_22  and  N_20 
ROOT
ATOM      1  C   LIG d   1      -0.431  81.191 112.417  0.00  0.00     0.161 C 
ATOM      2  C   LIG d   1      -1.109  79.965 112.513  0.00  0.00     0.016 C 
ATOM      3  C   LIG d   1      -1.841  79.568 113.656  0.00  0.00     0.038 C 
ATOM      4  C   LIG d   1      -2.072  80.442 114.729  0.00  0.00     0.028 C 
ATOM      5  C   LIG d   1      -0.986  81.501 114.892  0.00  0.00    -0.047 C 
ATOM      6  C   LIG d   1      -0.764  82.204 113.533  0.00  0.00     0.091 C 
ENDROOT
BRANCH   1   7
ATOM      7  O   LIG d   1      -0.666  81.779 111.122  0.00  0.00    -0.368 OA
BRANCH   7   8
ATOM      8  C   LIG d   1       0.474  81.831 110.229  0.00  0.00     0.119 C 
BRANCH   8   9
ATOM      9  C   LIG d   1       1.620  81.046 110.896  0.00  0.00     0.028 C 
ATOM     10  C   LIG d   1       3.006  81.573 110.490  0.00  0.00     0.006 C 
ENDBRANCH   8   9
BRANCH   8  11
ATOM     11  C   LIG d   1       0.997  83.262 110.077  0.00  0.00     0.028 C 
ATOM     12  C   LIG d   1      -0.115  84.318 110.182  0.00  0.00     0.006 C 
ENDBRANCH   8  11
ENDBRANCH   7   8
ENDBRANCH   1   7
BRANCH   6  13
ATOM     13  N   LIG d   1       0.341  83.197 113.583  0.00  0.00    -0.311 N 
ATOM     14  C   LIG d   1       1.577  82.899 113.981  0.00  0.00     0.210 C 
ATOM     15  C   LIG d   1       2.558  84.076 113.976  0.00  0.00     0.109 C 
ATOM     16  O   LIG d   1       1.961  81.767 114.308  0.00  0.00    -0.276 OA
ATOM     17  H   LIG d   1       0.125  84.134 113.305  0.00  0.00     0.149 HD
ENDBRANCH   6  13
BRANCH   5  18
ATOM     18  N   LIG d   1      -1.421  82.425 115.956  0.00  0.00     0.381 N 
ATOM     19  H   LIG d   1      -0.628  82.902 116.336  0.00  0.00    -0.090 HD
ATOM     20  H   LIG d   1      -1.852  81.893 116.692  0.00  0.00    -0.090 HD
ATOM     21  H   LIG d   1      -2.071  83.085 115.590  0.00  0.00    -0.090 HD
ENDBRANCH   5  18
BRANCH   3  22
ATOM     22  C   LIG d   1      -2.318  78.269 113.750  0.00  0.00     0.382 C 
ATOM     23  O   LIG d   1      -2.045  77.435 112.854  0.00  0.00    -0.241 OA
ATOM     24  O   LIG d   1      -3.055  77.934 114.697  0.00  0.00    -0.241 OA
ENDBRANCH   3  22
TORSDOF 7
ENDMDL
MODEL 8
REMARK VINA RESULT:      -4.4      2.621      4.210
REMARK  7 active torsions:
REMARK  status: ('A' for Active; 'I' for Inactive)
REMARK    1  A    between atoms: C_2  and  C_3 
REMARK    2  A    between atoms: C_3  and  O_6 
REMARK    3  A    between atoms: C_3  and  C_4 
REMARK    4  A    between atoms: C_7  and  O_6 
REMARK    5  A    between atoms: C_9  and  C_10 
REMARK    6  A    between atoms: N_15  and  C_14 
REMARK    7  A    between atoms: N_20  and  C_19 
REMARK       I    between atoms: C_22  and  N_20 
ROOT
ATOM      1  C   LIG d   1      -2.036  80.209 116.151  0.00  0.00     0.161 C 
ATOM      2  C   LIG d   1      -2.524  80.591 114.890  0.00  0.00     0.016 C 
ATOM      3  C   LIG d   1      -1.695  81.051 113.842  0.00  0.00     0.038 C 
ATOM      4  C   LIG d   1      -0.295  81.016 113.934  0.00  0.00     0.028 C 
ATOM      5  C   LIG d   1       0.220  81.114 115.366  0.00  0.00    -0.047 C 
ATOM      6  C   LIG d   1      -0.503  80.058 116.233  0.00  0.00     0.091 C 
ENDROOT
BRANCH   1   7
ATOM      7  O   LIG d   1      -2.682  78.992 116.576  0.00  0.00    -0.368 OA
BRANCH   7   8
ATOM      8  C   LIG d   1      -2.000  77.758 116.244  0.00  0.00     0.119 C 
BRANCH   8   9
ATOM      9  C   LIG d   1      -2.851  77.029 115.187  0.00  0.00     0.028 C 
ATOM     10  C   LIG d   1      -2.212  77.070 113.788  0.00  0.00     0.006 C 
ENDBRANCH   8   9
BRANCH   8  11
ATOM     11  C   LIG d   1      -1.946  76.810 117.446  0.00  0.00     0.028 C 
ATOM     12  C   LIG d   1      -2.412  77.475 118.750  0.00  0.00     0.006 C 
ENDBRANCH   8  11
ENDBRANCH   7   8
ENDBRANCH   1   7
BRANCH   6  13
ATOM     13  N   LIG d   1      -0.119  80.142 117.666  0.00  0.00    -0.311 N 
ATOM     14  C   LIG d   1       0.806  79.363 118.224  0.00  0.00     0.210 C 
ATOM     15  C   LIG d   1       1.035  79.600 119.720  0.00  0.00     0.109 C 
ATOM     16  O   LIG d   1       1.482  78.520 117.615  0.00  0.00    -0.276 OA
ATOM     17  H   LIG d   1      -0.595  80.821 118.227  0.00  0.00     0.149 HD
ENDBRANCH   6  13
BRANCH   5  18
ATOM     18  N   LIG d   1       1.683  80.927 115.327  0.00  0.00     0.381 N 
ATOM     19  H   LIG d   1       2.103  81.652 114.780  0.00  0.00    -0.090 HD
ATOM     20  H   LIG d   1       1.886  80.045 114.890  0.00  0.00    -0.090 HD
ATOM     21  H   LIG d   1       2.053  80.941 116.251  0.00  0.00    -0.090 HD
ENDBRANCH   5  18
BRANCH   3  22
ATOM     22  C   LIG d   1      -2.266  81.590 112.699  0.00  0.00     0.382 C 
ATOM     23  O   LIG d   1      -3.440  81.282 112.380  0.00  0.00    -0.241 OA
ATOM     24  O   LIG d   1      -1.608  82.346 111.960  0.00  0.00    -0.241 OA
ENDBRANCH   3  22
TORSDOF 7
ENDMDL
MODEL 9
REMARK VINA RESULT:      -4.4      1.463      2.106
REMARK  7 active torsions:
REMARK  status: ('A' for Active; 'I' for Inactive)
REMARK    1  A    between atoms: C_2  and  C_3 
REMARK    2  A    between atoms: C_3  and  O_6 
REMARK    3  A    between atoms: C_3  and  C_4 
REMARK    4  A    between atoms: C_7  and  O_6 
REMARK    5  A    between atoms: C_9  and  C_10 
REMARK    6  A    between atoms: N_15  and  C_14 
REMARK    7  A    between atoms: N_20  and  C_19 
REMARK       I    between atoms: C_22  and  N_20 
ROOT
ATOM      1  C   LIG d   1      -0.750  80.652 115.090  0.00  0.00     0.161 C 
ATOM      2  C   LIG d   1      -0.662  81.989 114.670  0.00  0.00     0.016 C 
ATOM      3  C   LIG d   1      -1.082  82.433 113.395  0.00  0.00     0.038 C 
ATOM      4  C   LIG d   1      -1.764  81.591 112.504  0.00  0.00     0.028 C 
ATOM      5  C   LIG d   1      -1.423  80.116 112.684  0.00  0.00    -0.047 C 
ATOM      6  C   LIG d   1      -1.593  79.740 114.174  0.00  0.00     0.091 C 
ENDROOT
BRANCH   1   7
ATOM      7  O   LIG d   1      -1.245  80.596 116.443  0.00  0.00    -0.368 OA
BRANCH   7   8
ATOM      8  C   LIG d   1      -0.785  81.643 117.333  0.00  0.00     0.119 C 
BRANCH   8   9
ATOM      9  C   LIG d   1       0.405  81.079 118.135  0.00  0.00     0.028 C 
ATOM     10  C   LIG d   1      -0.045  80.297 119.380  0.00  0.00     0.006 C 
ENDBRANCH   8   9
BRANCH   8  11
ATOM     11  C   LIG d   1      -1.848  81.993 118.378  0.00  0.00     0.028 C 
ATOM     12  C   LIG d   1      -3.270  81.623 117.928  0.00  0.00     0.006 C 
ENDBRANCH   8  11
ENDBRANCH   7   8
ENDBRANCH   1   7
BRANCH   6  13
ATOM     13  N   LIG d   1      -1.198  78.334 114.452  0.00  0.00    -0.311 N 
ATOM     14  C   LIG d   1      -2.069  77.378 114.773  0.00  0.00     0.210 C 
ATOM     15  C   LIG d   1      -1.449  76.003 115.040  0.00  0.00     0.109 C 
ATOM     16  O   LIG d   1      -3.298  77.531 114.830  0.00  0.00    -0.276 OA
ATOM     17  H   LIG d   1      -0.223  78.115 114.398  0.00  0.00     0.149 HD
ENDBRANCH   6  13
BRANCH   5  18
ATOM     18  N   LIG d   1      -2.303  79.342 111.788  0.00  0.00     0.381 N 
ATOM     19  H   LIG d   1      -3.053  78.940 112.315  0.00  0.00    -0.090 HD
ATOM     20  H   LIG d   1      -1.772  78.596 111.376  0.00  0.00    -0.090 HD
ATOM     21  H   LIG d   1      -2.669  79.934 111.075  0.00  0.00    -0.090 HD
ENDBRANCH   5  18
BRANCH   3  22
ATOM     22  C   LIG d   1      -0.786  83.724 112.985  0.00  0.00     0.382 C 
ATOM     23  O   LIG d   1      -0.227  84.521 113.777  0.00  0.00    -0.241 OA
ATOM     24  O   LIG d   1      -1.110  84.116 111.848  0.00  0.00    -0.241 OA
ENDBRANCH   3  22
TORSDOF 7
ENDMDL
