MODEL 1
REMARK VINA RESULT:      -5.2      0.000      0.000
REMARK  7 active torsions:
REMARK  status: ('A' for Active; 'I' for Inactive)
REMARK    1  A    between atoms: C_2  and  C_3 
REMARK    2  A    between atoms: C_3  and  O_6 
REMARK    3  A    between atoms: C_3  and  C_4 
REMARK    4  A    between atoms: C_7  and  O_6 
REMARK    5  A    between atoms: C_9  and  C_10 
REMARK    6  A    between atoms: N_15  and  C_14 
REMARK    7  A    between atoms: N_20  and  C_19 
REMARK       I    between atoms: C_22  and  N_20 
ROOT
ATOM      1  C   LIG d   1       0.782  82.685 112.129  0.00  0.00     0.161 C 
ATOM      2  C   LIG d   1      -0.505  82.496 112.659  0.00  0.00     0.016 C 
ATOM      3  C   LIG d   1      -1.287  81.344 112.410  0.00  0.00     0.038 C 
ATOM      4  C   LIG d   1      -0.771  80.230 111.733  0.00  0.00     0.028 C 
ATOM      5  C   LIG d   1       0.342  80.580 110.750  0.00  0.00    -0.047 C 
ATOM      6  C   LIG d   1       1.405  81.432 111.479  0.00  0.00     0.091 C 
ENDROOT
BRANCH   1   7
ATOM      7  O   LIG d   1       1.658  83.209 113.147  0.00  0.00    -0.368 OA
BRANCH   7   8
ATOM      8  C   LIG d   1       2.090  82.269 114.161  0.00  0.00     0.119 C 
BRANCH   8   9
ATOM      9  C   LIG d   1       1.819  82.913 115.535  0.00  0.00     0.028 C 
ATOM     10  C   LIG d   1       1.281  84.349 115.414  0.00  0.00     0.006 C 
ENDBRANCH   8   9
BRANCH   8  11
ATOM     11  C   LIG d   1       3.605  82.050 114.108  0.00  0.00     0.028 C 
ATOM     12  C   LIG d   1       4.355  83.226 113.461  0.00  0.00     0.006 C 
ENDBRANCH   8  11
ENDBRANCH   7   8
ENDBRANCH   1   7
BRANCH   6  13
ATOM     13  N   LIG d   1       2.488  81.888 110.568  0.00  0.00    -0.311 N 
ATOM     14  C   LIG d   1       3.631  81.227 110.400  0.00  0.00     0.210 C 
ATOM     15  C   LIG d   1       4.620  81.882 109.430  0.00  0.00     0.109 C 
ATOM     16  O   LIG d   1       3.908  80.144 110.937  0.00  0.00    -0.276 OA
ATOM     17  H   LIG d   1       2.334  82.742 110.069  0.00  0.00     0.149 HD
ENDBRANCH   6  13
BRANCH   5  18
ATOM     18  N   LIG d   1       0.880  79.314 110.218  0.00  0.00     0.381 N 
ATOM     19  H   LIG d   1       0.211  78.581 110.344  0.00  0.00    -0.090 HD
ATOM     20  H   LIG d   1       1.711  79.073 110.730  0.00  0.00    -0.090 HD
ATOM     21  H   LIG d   1       1.095  79.415 109.250  0.00  0.00    -0.090 HD
ENDBRANCH   5  18
BRANCH   3  22
ATOM     22  C   LIG d   1      -2.615  81.317 112.808  0.00  0.00     0.382 C 
ATOM     23  O   LIG d   1      -3.003  80.462 113.640  0.00  0.00    -0.241 OA
ATOM     24  O   LIG d   1      -3.439  82.108 112.311  0.00  0.00    -0.241 OA
ENDBRANCH   3  22
TORSDOF 7
ENDMDL
MODEL 2
REMARK VINA RESULT:      -4.5      1.585      4.983
REMARK  7 active torsions:
REMARK  status: ('A' for Active; 'I' for Inactive)
REMARK    1  A    between atoms: C_2  and  C_3 
REMARK    2  A    between atoms: C_3  and  O_6 
REMARK    3  A    between atoms: C_3  and  C_4 
REMARK    4  A    between atoms: C_7  and  O_6 
REMARK    5  A    between atoms: C_9  and  C_10 
REMARK    6  A    between atoms: N_15  and  C_14 
REMARK    7  A    between atoms: N_20  and  C_19 
REMARK       I    between atoms: C_22  and  N_20 
ROOT
ATOM      1  C   LIG d   1       1.838  81.659 112.377  0.00  0.00     0.161 C 
ATOM      2  C   LIG d   1       3.048  81.672 111.664  0.00  0.00     0.016 C 
ATOM      3  C   LIG d   1       3.166  81.243 110.322  0.00  0.00     0.038 C 
ATOM      4  C   LIG d   1       2.044  80.913 109.548  0.00  0.00     0.028 C 
ATOM      5  C   LIG d   1       0.867  80.404 110.374  0.00  0.00    -0.047 C 
ATOM      6  C   LIG d   1       0.583  81.407 111.515  0.00  0.00     0.091 C 
ENDROOT
BRANCH   1   7
ATOM      7  O   LIG d   1       1.696  82.885 113.121  0.00  0.00    -0.368 OA
BRANCH   7   8
ATOM      8  C   LIG d   1       2.139  82.848 114.500  0.00  0.00     0.119 C 
BRANCH   8   9
ATOM      9  C   LIG d   1       1.979  81.399 114.999  0.00  0.00     0.028 C 
ATOM     10  C   LIG d   1       3.247  80.872 115.691  0.00  0.00     0.006 C 
ENDBRANCH   8   9
BRANCH   8  11
ATOM     11  C   LIG d   1       1.230  83.690 115.400  0.00  0.00     0.028 C 
ATOM     12  C   LIG d   1      -0.062  82.957 115.794  0.00  0.00     0.006 C 
ENDBRANCH   8  11
ENDBRANCH   7   8
ENDBRANCH   1   7
BRANCH   6  13
ATOM     13  N   LIG d   1      -0.500  80.944 112.421  0.00  0.00    -0.311 N 
ATOM     14  C   LIG d   1      -1.615  81.636 112.646  0.00  0.00     0.210 C 
ATOM     15  C   LIG d   1      -2.592  80.987 113.630  0.00  0.00     0.109 C 
ATOM     16  O   LIG d   1      -1.902  82.711 112.098  0.00  0.00    -0.276 OA
ATOM     17  H   LIG d   1      -0.363  80.066 112.883  0.00  0.00     0.149 HD
ENDBRANCH   6  13
BRANCH   5  18
ATOM     18  N   LIG d   1      -0.277  80.229 109.459  0.00  0.00     0.381 N 
ATOM     19  H   LIG d   1      -0.643  79.302 109.548  0.00  0.00    -0.090 HD
ATOM     20  H   LIG d   1       0.040  80.354 108.514  0.00  0.00    -0.090 HD
ATOM     21  H   LIG d   1      -0.987  80.895 109.670  0.00  0.00    -0.090 HD
ENDBRANCH   5  18
BRANCH   3  22
ATOM     22  C   LIG d   1       4.423  81.104 109.753  0.00  0.00     0.382 C 
ATOM     23  O   LIG d   1       5.081  82.122 109.430  0.00  0.00    -0.241 OA
ATOM     24  O   LIG d   1       4.887  79.972 109.517  0.00  0.00    -0.241 OA
ENDBRANCH   3  22
TORSDOF 7
ENDMDL
MODEL 3
REMARK VINA RESULT:      -4.5      1.830      4.888
REMARK  7 active torsions:
REMARK  status: ('A' for Active; 'I' for Inactive)
REMARK    1  A    between atoms: C_2  and  C_3 
REMARK    2  A    between atoms: C_3  and  O_6 
REMARK    3  A    between atoms: C_3  and  C_4 
REMARK    4  A    between atoms: C_7  and  O_6 
REMARK    5  A    between atoms: C_9  and  C_10 
REMARK    6  A    between atoms: N_15  and  C_14 
REMARK    7  A    between atoms: N_20  and  C_19 
REMARK       I    between atoms: C_22  and  N_20 
ROOT
ATOM      1  C   LIG d   1       1.818  81.402 112.551  0.00  0.00     0.161 C 
ATOM      2  C   LIG d   1       2.835  82.043 111.825  0.00  0.00     0.016 C 
ATOM      3  C   LIG d   1       2.880  82.078 110.413  0.00  0.00     0.038 C 
ATOM      4  C   LIG d   1       1.821  81.601 109.626  0.00  0.00     0.028 C 
ATOM      5  C   LIG d   1       1.014  80.497 110.301  0.00  0.00    -0.047 C 
ATOM      6  C   LIG d   1       0.597  80.972 111.711  0.00  0.00     0.091 C 
ENDROOT
BRANCH   1   7
ATOM      7  O   LIG d   1       1.401  82.236 113.650  0.00  0.00    -0.368 OA
BRANCH   7   8
ATOM      8  C   LIG d   1       1.450  83.666 113.419  0.00  0.00     0.119 C 
BRANCH   8   9
ATOM      9  C   LIG d   1       1.916  84.331 114.728  0.00  0.00     0.028 C 
ATOM     10  C   LIG d   1       2.701  83.364 115.630  0.00  0.00     0.006 C 
ENDBRANCH   8   9
BRANCH   8  11
ATOM     11  C   LIG d   1       0.053  84.234 113.150  0.00  0.00     0.028 C 
ATOM     12  C   LIG d   1      -0.983  83.788 114.194  0.00  0.00     0.006 C 
ENDBRANCH   8  11
ENDBRANCH   7   8
ENDBRANCH   1   7
BRANCH   6  13
ATOM     13  N   LIG d   1      -0.125  79.919 112.473  0.00  0.00    -0.311 N 
ATOM     14  C   LIG d   1      -1.453  79.816 112.503  0.00  0.00     0.210 C 
ATOM     15  C   LIG d   1      -1.993  78.671 113.365  0.00  0.00     0.109 C 
ATOM     16  O   LIG d   1      -2.233  80.544 111.870  0.00  0.00    -0.276 OA
ATOM     17  H   LIG d   1       0.432  79.267 112.990  0.00  0.00     0.149 HD
ENDBRANCH   6  13
BRANCH   5  18
ATOM     18  N   LIG d   1      -0.136  80.190 109.430  0.00  0.00     0.381 N 
ATOM     19  H   LIG d   1      -0.334  80.974 108.841  0.00  0.00    -0.090 HD
ATOM     20  H   LIG d   1      -0.942  80.017 110.005  0.00  0.00    -0.090 HD
ATOM     21  H   LIG d   1       0.062  79.388 108.873  0.00  0.00    -0.090 HD
ENDBRANCH   5  18
BRANCH   3  22
ATOM     22  C   LIG d   1       4.011  82.560 109.773  0.00  0.00     0.382 C 
ATOM     23  O   LIG d   1       4.102  83.780 109.494  0.00  0.00    -0.241 OA
ATOM     24  O   LIG d   1       4.923  81.783 109.430  0.00  0.00    -0.241 OA
ENDBRANCH   3  22
TORSDOF 7
ENDMDL
MODEL 4
REMARK VINA RESULT:      -4.5      1.574      4.797
REMARK  7 active torsions:
REMARK  status: ('A' for Active; 'I' for Inactive)
REMARK    1  A    between atoms: C_2  and  C_3 
REMARK    2  A    between atoms: C_3  and  O_6 
REMARK    3  A    between atoms: C_3  and  C_4 
REMARK    4  A    between atoms: C_7  and  O_6 
REMARK    5  A    between atoms: C_9  and  C_10 
REMARK    6  A    between atoms: N_15  and  C_14 
REMARK    7  A    between atoms: N_20  and  C_19 
REMARK       I    between atoms: C_22  and  N_20 
ROOT
ATOM      1  C   LIG d   1       1.906  81.744 112.519  0.00  0.00     0.161 C 
ATOM      2  C   LIG d   1       3.076  81.633 111.750  0.00  0.00     0.016 C 
ATOM      3  C   LIG d   1       3.097  81.114 110.435  0.00  0.00     0.038 C 
ATOM      4  C   LIG d   1       1.917  80.810 109.739  0.00  0.00     0.028 C 
ATOM      5  C   LIG d   1       0.756  80.431 110.652  0.00  0.00    -0.047 C 
ATOM      6  C   LIG d   1       0.594  81.521 111.737  0.00  0.00     0.091 C 
ENDROOT
BRANCH   1   7
ATOM      7  O   LIG d   1       1.879  83.020 113.188  0.00  0.00    -0.368 OA
BRANCH   7   8
ATOM      8  C   LIG d   1       2.134  82.998 114.614  0.00  0.00     0.119 C 
BRANCH   8   9
ATOM      9  C   LIG d   1       3.592  83.449 114.831  0.00  0.00     0.028 C 
ATOM     10  C   LIG d   1       3.992  84.609 113.903  0.00  0.00     0.006 C 
ENDBRANCH   8   9
BRANCH   8  11
ATOM     11  C   LIG d   1       2.063  81.574 115.171  0.00  0.00     0.028 C 
ATOM     12  C   LIG d   1       3.323  81.178 115.957  0.00  0.00     0.006 C 
ENDBRANCH   8  11
ENDBRANCH   7   8
ENDBRANCH   1   7
BRANCH   6  13
ATOM     13  N   LIG d   1      -0.466  81.186 112.723  0.00  0.00    -0.311 N 
ATOM     14  C   LIG d   1      -1.609  81.862 112.829  0.00  0.00     0.210 C 
ATOM     15  C   LIG d   1      -2.556  81.364 113.925  0.00  0.00     0.109 C 
ATOM     16  O   LIG d   1      -1.941  82.808 112.098  0.00  0.00    -0.276 OA
ATOM     17  H   LIG d   1      -0.292  80.413 113.335  0.00  0.00     0.149 HD
ENDBRANCH   6  13
BRANCH   5  18
ATOM     18  N   LIG d   1      -0.443  80.275 109.807  0.00  0.00     0.381 N 
ATOM     19  H   LIG d   1      -1.099  81.002 110.012  0.00  0.00    -0.090 HD
ATOM     20  H   LIG d   1      -0.875  79.392 110.016  0.00  0.00    -0.090 HD
ATOM     21  H   LIG d   1      -0.188  80.309 108.844  0.00  0.00    -0.090 HD
ENDBRANCH   5  18
BRANCH   3  22
ATOM     22  C   LIG d   1       4.311  80.858 109.816  0.00  0.00     0.382 C 
ATOM     23  O   LIG d   1       4.708  79.676 109.680  0.00  0.00    -0.241 OA
ATOM     24  O   LIG d   1       5.035  81.796 109.433  0.00  0.00    -0.241 OA
ENDBRANCH   3  22
TORSDOF 7
ENDMDL
MODEL 5
REMARK VINA RESULT:      -4.4      2.133      5.136
REMARK  7 active torsions:
REMARK  status: ('A' for Active; 'I' for Inactive)
REMARK    1  A    between atoms: C_2  and  C_3 
REMARK    2  A    between atoms: C_3  and  O_6 
REMARK    3  A    between atoms: C_3  and  C_4 
REMARK    4  A    between atoms: C_7  and  O_6 
REMARK    5  A    between atoms: C_9  and  C_10 
REMARK    6  A    between atoms: N_15  and  C_14 
REMARK    7  A    between atoms: N_20  and  C_19 
REMARK       I    between atoms: C_22  and  N_20 
ROOT
ATOM      1  C   LIG d   1       1.972  81.407 111.962  0.00  0.00     0.161 C 
ATOM      2  C   LIG d   1       3.129  81.955 111.383  0.00  0.00     0.016 C 
ATOM      3  C   LIG d   1       3.106  83.037 110.473  0.00  0.00     0.038 C 
ATOM      4  C   LIG d   1       1.929  83.748 110.196  0.00  0.00     0.028 C 
ATOM      5  C   LIG d   1       0.663  82.914 110.366  0.00  0.00    -0.047 C 
ATOM      6  C   LIG d   1       0.689  82.240 111.757  0.00  0.00     0.091 C 
ENDROOT
BRANCH   1   7
ATOM      7  O   LIG d   1       2.195  81.167 113.365  0.00  0.00    -0.368 OA
BRANCH   7   8
ATOM      8  C   LIG d   1       2.260  82.342 114.210  0.00  0.00     0.119 C 
BRANCH   8   9
ATOM      9  C   LIG d   1       3.610  82.304 114.953  0.00  0.00     0.028 C 
ATOM     10  C   LIG d   1       3.662  83.296 116.127  0.00  0.00     0.006 C 
ENDBRANCH   8   9
BRANCH   8  11
ATOM     11  C   LIG d   1       1.193  82.299 115.308  0.00  0.00     0.028 C 
ATOM     12  C   LIG d   1       0.526  80.920 115.437  0.00  0.00     0.006 C 
ENDBRANCH   8  11
ENDBRANCH   7   8
ENDBRANCH   1   7
BRANCH   6  13
ATOM     13  N   LIG d   1      -0.472  81.338 111.972  0.00  0.00    -0.311 N 
ATOM     14  C   LIG d   1      -1.633  81.747 112.482  0.00  0.00     0.210 C 
ATOM     15  C   LIG d   1      -2.692  80.651 112.638  0.00  0.00     0.109 C 
ATOM     16  O   LIG d   1      -1.897  82.919 112.790  0.00  0.00    -0.276 OA
ATOM     17  H   LIG d   1      -0.355  80.376 111.720  0.00  0.00     0.149 HD
ENDBRANCH   6  13
BRANCH   5  18
ATOM     18  N   LIG d   1      -0.491  83.813 110.181  0.00  0.00     0.381 N 
ATOM     19  H   LIG d   1      -0.908  83.649 109.286  0.00  0.00    -0.090 HD
ATOM     20  H   LIG d   1      -0.170  84.765 110.208  0.00  0.00    -0.090 HD
ATOM     21  H   LIG d   1      -1.162  83.660 110.901  0.00  0.00    -0.090 HD
ENDBRANCH   5  18
BRANCH   3  22
ATOM     22  C   LIG d   1       4.264  83.394 109.800  0.00  0.00     0.382 C 
ATOM     23  O   LIG d   1       4.435  84.580 109.430  0.00  0.00    -0.241 OA
ATOM     24  O   LIG d   1       5.121  82.534 109.519  0.00  0.00    -0.241 OA
ENDBRANCH   3  22
TORSDOF 7
ENDMDL
MODEL 6
REMARK VINA RESULT:      -4.3      2.660      5.261
REMARK  7 active torsions:
REMARK  status: ('A' for Active; 'I' for Inactive)
REMARK    1  A    between atoms: C_2  and  C_3 
REMARK    2  A    between atoms: C_3  and  O_6 
REMARK    3  A    between atoms: C_3  and  C_4 
REMARK    4  A    between atoms: C_7  and  O_6 
REMARK    5  A    between atoms: C_9  and  C_10 
REMARK    6  A    between atoms: N_15  and  C_14 
REMARK    7  A    between atoms: N_20  and  C_19 
REMARK       I    between atoms: C_22  and  N_20 
ROOT
ATOM      1  C   LIG d   1       2.818  82.171 112.783  0.00  0.00     0.161 C 
ATOM      2  C   LIG d   1       3.461  81.501 113.838  0.00  0.00     0.016 C 
ATOM      3  C   LIG d   1       2.902  81.367 115.130  0.00  0.00     0.038 C 
ATOM      4  C   LIG d   1       1.587  81.765 115.414  0.00  0.00     0.028 C 
ATOM      5  C   LIG d   1       1.091  82.897 114.520  0.00  0.00    -0.047 C 
ATOM      6  C   LIG d   1       1.337  82.515 113.043  0.00  0.00     0.091 C 
ENDROOT
BRANCH   1   7
ATOM      7  O   LIG d   1       2.950  81.408 111.568  0.00  0.00    -0.368 OA
BRANCH   7   8
ATOM      8  C   LIG d   1       3.449  82.128 110.414  0.00  0.00     0.119 C 
BRANCH   8   9
ATOM      9  C   LIG d   1       4.309  81.148 109.593  0.00  0.00     0.028 C 
ATOM     10  C   LIG d   1       4.202  79.702 110.105  0.00  0.00     0.006 C 
ENDBRANCH   8   9
BRANCH   8  11
ATOM     11  C   LIG d   1       4.400  83.254 110.828  0.00  0.00     0.028 C 
ATOM     12  C   LIG d   1       4.029  84.608 110.203  0.00  0.00     0.006 C 
ENDBRANCH   8  11
ENDBRANCH   7   8
ENDBRANCH   1   7
BRANCH   6  13
ATOM     13  N   LIG d   1       0.957  83.604 112.105  0.00  0.00    -0.311 N 
ATOM     14  C   LIG d   1       0.122  83.432 111.082  0.00  0.00     0.210 C 
ATOM     15  C   LIG d   1      -0.119  84.680 110.227  0.00  0.00     0.109 C 
ATOM     16  O   LIG d   1      -0.468  82.372 110.821  0.00  0.00    -0.276 OA
ATOM     17  H   LIG d   1       1.365  84.504 112.262  0.00  0.00     0.149 HD
ENDBRANCH   6  13
BRANCH   5  18
ATOM     18  N   LIG d   1      -0.334  83.118 114.831  0.00  0.00     0.381 N 
ATOM     19  H   LIG d   1      -0.864  83.153 113.983  0.00  0.00    -0.090 HD
ATOM     20  H   LIG d   1      -0.432  84.001 115.300  0.00  0.00    -0.090 HD
ATOM     21  H   LIG d   1      -0.674  82.385 115.413  0.00  0.00    -0.090 HD
ENDBRANCH   5  18
BRANCH   3  22
ATOM     22  C   LIG d   1       3.676  80.864 116.165  0.00  0.00     0.382 C 
ATOM     23  O   LIG d   1       4.630  81.540 116.619  0.00  0.00    -0.241 OA
ATOM     24  O   LIG d   1       3.459  79.725 116.620  0.00  0.00    -0.241 OA
ENDBRANCH   3  22
TORSDOF 7
ENDMDL
MODEL 7
REMARK VINA RESULT:      -4.2      2.386      4.083
REMARK  7 active torsions:
REMARK  status: ('A' for Active; 'I' for Inactive)
REMARK    1  A    between atoms: C_2  and  C_3 
REMARK    2  A    between atoms: C_3  and  O_6 
REMARK    3  A    between atoms: C_3  and  C_4 
REMARK    4  A    between atoms: C_7  and  O_6 
REMARK    5  A    between atoms: C_9  and  C_10 
REMARK    6  A    between atoms: N_15  and  C_14 
REMARK    7  A    between atoms: N_20  and  C_19 
REMARK       I    between atoms: C_22  and  N_20 
ROOT
ATOM      1  C   LIG d   1       1.185  81.344 113.441  0.00  0.00     0.161 C 
ATOM      2  C   LIG d   1      -0.017  81.083 112.761  0.00  0.00     0.016 C 
ATOM      3  C   LIG d   1      -1.226  81.764 113.028  0.00  0.00     0.038 C 
ATOM      4  C   LIG d   1      -1.280  82.866 113.895  0.00  0.00     0.028 C 
ATOM      5  C   LIG d   1      -0.206  82.840 114.977  0.00  0.00    -0.047 C 
ATOM      6  C   LIG d   1       1.172  82.618 114.311  0.00  0.00     0.091 C 
ENDROOT
BRANCH   1   7
ATOM      7  O   LIG d   1       2.277  81.389 112.502  0.00  0.00    -0.368 OA
BRANCH   7   8
ATOM      8  C   LIG d   1       2.505  82.663 111.850  0.00  0.00     0.119 C 
BRANCH   8   9
ATOM      9  C   LIG d   1       2.069  82.515 110.379  0.00  0.00     0.028 C 
ATOM     10  C   LIG d   1       0.850  83.389 110.038  0.00  0.00     0.006 C 
ENDBRANCH   8   9
BRANCH   8  11
ATOM     11  C   LIG d   1       3.997  83.004 111.799  0.00  0.00     0.028 C 
ATOM     12  C   LIG d   1       4.555  83.025 110.366  0.00  0.00     0.006 C 
ENDBRANCH   8  11
ENDBRANCH   7   8
ENDBRANCH   1   7
BRANCH   6  13
ATOM     13  N   LIG d   1       2.269  82.495 115.305  0.00  0.00    -0.311 N 
ATOM     14  C   LIG d   1       3.196  83.432 115.494  0.00  0.00     0.210 C 
ATOM     15  C   LIG d   1       4.249  83.097 116.555  0.00  0.00     0.109 C 
ATOM     16  O   LIG d   1       3.229  84.524 114.905  0.00  0.00    -0.276 OA
ATOM     17  H   LIG d   1       2.300  81.655 115.848  0.00  0.00     0.149 HD
ENDBRANCH   6  13
BRANCH   5  18
ATOM     18  N   LIG d   1      -0.291  84.111 115.721  0.00  0.00     0.381 N 
ATOM     19  H   LIG d   1      -1.236  84.439 115.723  0.00  0.00    -0.090 HD
ATOM     20  H   LIG d   1       0.280  84.796 115.259  0.00  0.00    -0.090 HD
ATOM     21  H   LIG d   1       0.026  83.980 116.656  0.00  0.00    -0.090 HD
ENDBRANCH   5  18
BRANCH   3  22
ATOM     22  C   LIG d   1      -2.407  81.319 112.455  0.00  0.00     0.382 C 
ATOM     23  O   LIG d   1      -2.471  80.165 111.966  0.00  0.00    -0.241 OA
ATOM     24  O   LIG d   1      -3.397  82.072 112.380  0.00  0.00    -0.241 OA
ENDBRANCH   3  22
TORSDOF 7
ENDMDL
MODEL 8
REMARK VINA RESULT:      -3.9      2.240      4.867
REMARK  7 active torsions:
REMARK  status: ('A' for Active; 'I' for Inactive)
REMARK    1  A    between atoms: C_2  and  C_3 
REMARK    2  A    between atoms: C_3  and  O_6 
REMARK    3  A    between atoms: C_3  and  C_4 
REMARK    4  A    between atoms: C_7  and  O_6 
REMARK    5  A    between atoms: C_9  and  C_10 
REMARK    6  A    between atoms: N_15  and  C_14 
REMARK    7  A    between atoms: N_20  and  C_19 
REMARK       I    between atoms: C_22  and  N_20 
ROOT
ATOM      1  C   LIG d   1       1.043  81.216 113.382  0.00  0.00     0.161 C 
ATOM      2  C   LIG d   1       1.971  82.093 112.797  0.00  0.00     0.016 C 
ATOM      3  C   LIG d   1       2.058  82.318 111.403  0.00  0.00     0.038 C 
ATOM      4  C   LIG d   1       1.114  81.792 110.508  0.00  0.00     0.028 C 
ATOM      5  C   LIG d   1       0.468  80.501 110.998  0.00  0.00    -0.047 C 
ATOM      6  C   LIG d   1      -0.066  80.720 112.431  0.00  0.00     0.091 C 
ENDROOT
BRANCH   1   7
ATOM      7  O   LIG d   1       0.463  81.829 114.551  0.00  0.00    -0.368 OA
BRANCH   7   8
ATOM      8  C   LIG d   1       1.103  81.521 115.815  0.00  0.00     0.119 C 
BRANCH   8   9
ATOM      9  C   LIG d   1       0.340  80.340 116.444  0.00  0.00     0.028 C 
ATOM     10  C   LIG d   1      -1.185  80.544 116.416  0.00  0.00     0.006 C 
ENDBRANCH   8   9
BRANCH   8  11
ATOM     11  C   LIG d   1       0.954  82.676 116.810  0.00  0.00     0.028 C 
ATOM     12  C   LIG d   1       1.936  82.577 117.988  0.00  0.00     0.006 C 
ENDBRANCH   8  11
ENDBRANCH   7   8
ENDBRANCH   1   7
BRANCH   6  13
ATOM     13  N   LIG d   1      -0.639  79.480 113.018  0.00  0.00    -0.311 N 
ATOM     14  C   LIG d   1      -1.942  79.200 113.012  0.00  0.00     0.210 C 
ATOM     15  C   LIG d   1      -2.322  77.879 113.687  0.00  0.00     0.109 C 
ATOM     16  O   LIG d   1      -2.814  79.905 112.483  0.00  0.00    -0.276 OA
ATOM     17  H   LIG d   1       0.001  78.837 113.441  0.00  0.00     0.149 HD
ENDBRANCH   6  13
BRANCH   5  18
ATOM     18  N   LIG d   1      -0.590  80.139 110.035  0.00  0.00     0.381 N 
ATOM     19  H   LIG d   1      -1.465  80.050 110.512  0.00  0.00    -0.090 HD
ATOM     20  H   LIG d   1      -0.364  79.251 109.622  0.00  0.00    -0.090 HD
ATOM     21  H   LIG d   1      -0.659  80.836 109.326  0.00  0.00    -0.090 HD
ENDBRANCH   5  18
BRANCH   3  22
ATOM     22  C   LIG d   1       3.121  83.045 110.889  0.00  0.00     0.382 C 
ATOM     23  O   LIG d   1       2.921  84.176 110.384  0.00  0.00    -0.241 OA
ATOM     24  O   LIG d   1       4.270  82.565 110.884  0.00  0.00    -0.241 OA
ENDBRANCH   3  22
TORSDOF 7
ENDMDL
MODEL 9
REMARK VINA RESULT:      -3.8      2.837      3.950
REMARK  7 active torsions:
REMARK  status: ('A' for Active; 'I' for Inactive)
REMARK    1  A    between atoms: C_2  and  C_3 
REMARK    2  A    between atoms: C_3  and  O_6 
REMARK    3  A    between atoms: C_3  and  C_4 
REMARK    4  A    between atoms: C_7  and  O_6 
REMARK    5  A    between atoms: C_9  and  C_10 
REMARK    6  A    between atoms: N_15  and  C_14 
REMARK    7  A    between atoms: N_20  and  C_19 
REMARK       I    between atoms: C_22  and  N_20 
ROOT
ATOM      1  C   LIG d   1      -0.148  82.771 115.015  0.00  0.00     0.161 C 
ATOM      2  C   LIG d   1      -1.331  82.267 114.449  0.00  0.00     0.016 C 
ATOM      3  C   LIG d   1      -1.352  81.413 113.323  0.00  0.00     0.038 C 
ATOM      4  C   LIG d   1      -0.176  80.879 112.775  0.00  0.00     0.028 C 
ATOM      5  C   LIG d   1       1.049  81.758 112.998  0.00  0.00    -0.047 C 
ATOM      6  C   LIG d   1       1.148  82.111 114.499  0.00  0.00     0.091 C 
ENDROOT
BRANCH   1   7
ATOM      7  O   LIG d   1      -0.217  82.683 116.452  0.00  0.00    -0.368 OA
BRANCH   7   8
ATOM      8  C   LIG d   1      -1.202  81.765 116.988  0.00  0.00     0.119 C 
BRANCH   8   9
ATOM      9  C   LIG d   1      -1.877  82.458 118.187  0.00  0.00     0.028 C 
ATOM     10  C   LIG d   1      -0.880  82.789 119.310  0.00  0.00     0.006 C 
ENDBRANCH   8   9
BRANCH   8  11
ATOM     11  C   LIG d   1      -0.539  80.510 117.564  0.00  0.00     0.028 C 
ATOM     12  C   LIG d   1      -0.593  79.313 116.602  0.00  0.00     0.006 C 
ENDBRANCH   8  11
ENDBRANCH   7   8
ENDBRANCH   1   7
BRANCH   6  13
ATOM     13  N   LIG d   1       2.272  83.038 114.791  0.00  0.00    -0.311 N 
ATOM     14  C   LIG d   1       3.497  82.626 115.113  0.00  0.00     0.210 C 
ATOM     15  C   LIG d   1       4.503  83.747 115.395  0.00  0.00     0.109 C 
ATOM     16  O   LIG d   1       3.855  81.440 115.162  0.00  0.00    -0.276 OA
ATOM     17  H   LIG d   1       2.078  84.019 114.745  0.00  0.00     0.149 HD
ENDBRANCH   6  13
BRANCH   5  18
ATOM     18  N   LIG d   1       2.224  81.019 112.499  0.00  0.00     0.381 N 
ATOM     19  H   LIG d   1       2.169  80.062 112.784  0.00  0.00    -0.090 HD
ATOM     20  H   LIG d   1       3.054  81.420 112.899  0.00  0.00    -0.090 HD
ATOM     21  H   LIG d   1       2.266  81.076 111.505  0.00  0.00    -0.090 HD
ENDBRANCH   5  18
BRANCH   3  22
ATOM     22  C   LIG d   1      -2.559  81.116 112.709  0.00  0.00     0.382 C 
ATOM     23  O   LIG d   1      -3.305  82.043 112.310  0.00  0.00    -0.241 OA
ATOM     24  O   LIG d   1      -2.933  79.934 112.588  0.00  0.00    -0.241 OA
ENDBRANCH   3  22
TORSDOF 7
ENDMDL
