MODEL 1
REMARK VINA RESULT:      -5.6      0.000      0.000
REMARK  7 active torsions:
REMARK  status: ('A' for Active; 'I' for Inactive)
REMARK    1  A    between atoms: C_2  and  C_3 
REMARK    2  A    between atoms: C_3  and  O_6 
REMARK    3  A    between atoms: C_3  and  C_4 
REMARK    4  A    between atoms: C_7  and  O_6 
REMARK    5  A    between atoms: C_9  and  C_10 
REMARK    6  A    between atoms: N_15  and  C_14 
REMARK    7  A    between atoms: N_20  and  C_19 
REMARK       I    between atoms: C_22  and  N_20 
ROOT
ATOM      1  C   LIG d   1       1.130  80.715 111.113  0.00  0.00     0.161 C 
ATOM      2  C   LIG d   1       0.316  79.668 110.649  0.00  0.00     0.016 C 
ATOM      3  C   LIG d   1      -0.402  78.803 111.507  0.00  0.00     0.038 C 
ATOM      4  C   LIG d   1      -0.475  79.023 112.890  0.00  0.00     0.028 C 
ATOM      5  C   LIG d   1       0.735  79.762 113.451  0.00  0.00    -0.047 C 
ATOM      6  C   LIG d   1       0.975  81.039 112.613  0.00  0.00     0.091 C 
ENDROOT
BRANCH   1   7
ATOM      7  O   LIG d   1       0.905  81.897 110.319  0.00  0.00    -0.368 OA
BRANCH   7   8
ATOM      8  C   LIG d   1       1.986  82.288 109.438  0.00  0.00     0.119 C 
BRANCH   8   9
ATOM      9  C   LIG d   1       3.169  81.337 109.705  0.00  0.00     0.028 C 
ATOM     10  C   LIG d   1       4.424  82.083 110.188  0.00  0.00     0.006 C 
ENDBRANCH   8   9
BRANCH   8  11
ATOM     11  C   LIG d   1       2.506  83.688 109.781  0.00  0.00     0.028 C 
ATOM     12  C   LIG d   1       1.377  84.679 110.107  0.00  0.00     0.006 C 
ENDBRANCH   8  11
ENDBRANCH   7   8
ENDBRANCH   1   7
BRANCH   6  13
ATOM     13  N   LIG d   1       2.191  81.779 113.042  0.00  0.00    -0.311 N 
ATOM     14  C   LIG d   1       2.173  83.047 113.447  0.00  0.00     0.210 C 
ATOM     15  C   LIG d   1       3.540  83.625 113.825  0.00  0.00     0.109 C 
ATOM     16  O   LIG d   1       1.150  83.740 113.559  0.00  0.00    -0.276 OA
ATOM     17  H   LIG d   1       3.060  81.283 113.012  0.00  0.00     0.149 HD
ENDBRANCH   6  13
BRANCH   5  18
ATOM     18  N   LIG d   1       0.465  80.046 114.873  0.00  0.00     0.381 N 
ATOM     19  H   LIG d   1       1.328  80.164 115.365  0.00  0.00    -0.090 HD
ATOM     20  H   LIG d   1      -0.021  79.263 115.274  0.00  0.00    -0.090 HD
ATOM     21  H   LIG d   1      -0.089  80.869 114.957  0.00  0.00    -0.090 HD
ENDBRANCH   5  18
BRANCH   3  22
ATOM     22  C   LIG d   1      -1.025  77.679 110.985  0.00  0.00     0.382 C 
ATOM     23  O   LIG d   1      -2.277  77.610 110.964  0.00  0.00    -0.241 OA
ATOM     24  O   LIG d   1      -0.350  76.716 110.575  0.00  0.00    -0.241 OA
ENDBRANCH   3  22
TORSDOF 7
ENDMDL
MODEL 2
REMARK VINA RESULT:      -5.5      1.976      3.272
REMARK  7 active torsions:
REMARK  status: ('A' for Active; 'I' for Inactive)
REMARK    1  A    between atoms: C_2  and  C_3 
REMARK    2  A    between atoms: C_3  and  O_6 
REMARK    3  A    between atoms: C_3  and  C_4 
REMARK    4  A    between atoms: C_7  and  O_6 
REMARK    5  A    between atoms: C_9  and  C_10 
REMARK    6  A    between atoms: N_15  and  C_14 
REMARK    7  A    between atoms: N_20  and  C_19 
REMARK       I    between atoms: C_22  and  N_20 
ROOT
ATOM      1  C   LIG d   1       0.209  81.312 111.728  0.00  0.00     0.161 C 
ATOM      2  C   LIG d   1      -0.928  80.637 112.202  0.00  0.00     0.016 C 
ATOM      3  C   LIG d   1      -1.163  79.260 111.984  0.00  0.00     0.038 C 
ATOM      4  C   LIG d   1      -0.197  78.426 111.403  0.00  0.00     0.028 C 
ATOM      5  C   LIG d   1       0.749  79.161 110.459  0.00  0.00    -0.047 C 
ATOM      6  C   LIG d   1       1.326  80.396 111.188  0.00  0.00     0.091 C 
ENDROOT
BRANCH   1   7
ATOM      7  O   LIG d   1       0.726  82.180 112.756  0.00  0.00    -0.368 OA
BRANCH   7   8
ATOM      8  C   LIG d   1       0.614  83.603 112.504  0.00  0.00     0.119 C 
BRANCH   8   9
ATOM      9  C   LIG d   1      -0.066  83.778 111.132  0.00  0.00     0.028 C 
ATOM     10  C   LIG d   1       0.788  84.605 110.156  0.00  0.00     0.006 C 
ENDBRANCH   8   9
BRANCH   8  11
ATOM     11  C   LIG d   1       1.993  84.253 112.359  0.00  0.00     0.028 C 
ATOM     12  C   LIG d   1       3.006  83.739 113.395  0.00  0.00     0.006 C 
ENDBRANCH   8  11
ENDBRANCH   7   8
ENDBRANCH   1   7
BRANCH   6  13
ATOM     13  N   LIG d   1       2.197  81.218 110.308  0.00  0.00    -0.311 N 
ATOM     14  C   LIG d   1       3.492  81.421 110.540  0.00  0.00     0.210 C 
ATOM     15  C   LIG d   1       4.200  82.317 109.519  0.00  0.00     0.109 C 
ATOM     16  O   LIG d   1       4.130  80.917 111.477  0.00  0.00    -0.276 OA
ATOM     17  H   LIG d   1       1.768  81.639 109.507  0.00  0.00     0.149 HD
ENDBRANCH   6  13
BRANCH   5  18
ATOM     18  N   LIG d   1       1.786  78.203 110.032  0.00  0.00     0.381 N 
ATOM     19  H   LIG d   1       1.939  78.286 109.047  0.00  0.00    -0.090 HD
ATOM     20  H   LIG d   1       1.467  77.271 110.225  0.00  0.00    -0.090 HD
ATOM     21  H   LIG d   1       2.635  78.379 110.523  0.00  0.00    -0.090 HD
ENDBRANCH   5  18
BRANCH   3  22
ATOM     22  C   LIG d   1      -2.394  78.712 112.314  0.00  0.00     0.382 C 
ATOM     23  O   LIG d   1      -2.906  78.951 113.434  0.00  0.00    -0.241 OA
ATOM     24  O   LIG d   1      -2.977  77.947 111.523  0.00  0.00    -0.241 OA
ENDBRANCH   3  22
TORSDOF 7
ENDMDL
MODEL 3
REMARK VINA RESULT:      -5.2      2.325      4.770
REMARK  7 active torsions:
REMARK  status: ('A' for Active; 'I' for Inactive)
REMARK    1  A    between atoms: C_2  and  C_3 
REMARK    2  A    between atoms: C_3  and  O_6 
REMARK    3  A    between atoms: C_3  and  C_4 
REMARK    4  A    between atoms: C_7  and  O_6 
REMARK    5  A    between atoms: C_9  and  C_10 
REMARK    6  A    between atoms: N_15  and  C_14 
REMARK    7  A    between atoms: N_20  and  C_19 
REMARK       I    between atoms: C_22  and  N_20 
ROOT
ATOM      1  C   LIG d   1       1.506  81.279 112.557  0.00  0.00     0.161 C 
ATOM      2  C   LIG d   1       2.586  81.701 111.763  0.00  0.00     0.016 C 
ATOM      3  C   LIG d   1       2.709  81.392 110.389  0.00  0.00     0.038 C 
ATOM      4  C   LIG d   1       1.677  80.765 109.675  0.00  0.00     0.028 C 
ATOM      5  C   LIG d   1       0.792  79.877 110.543  0.00  0.00    -0.047 C 
ATOM      6  C   LIG d   1       0.317  80.689 111.770  0.00  0.00     0.091 C 
ENDROOT
BRANCH   1   7
ATOM      7  O   LIG d   1       1.063  82.364 113.395  0.00  0.00    -0.368 OA
BRANCH   7   8
ATOM      8  C   LIG d   1       1.245  83.698 112.860  0.00  0.00     0.119 C 
BRANCH   8   9
ATOM      9  C   LIG d   1       1.773  84.587 114.003  0.00  0.00     0.028 C 
ATOM     10  C   LIG d   1       3.309  84.654 114.033  0.00  0.00     0.006 C 
ENDBRANCH   8   9
BRANCH   8  11
ATOM     11  C   LIG d   1      -0.092  84.321 112.447  0.00  0.00     0.028 C 
ATOM     12  C   LIG d   1      -0.372  84.185 110.942  0.00  0.00     0.006 C 
ENDBRANCH   8  11
ENDBRANCH   7   8
ENDBRANCH   1   7
BRANCH   6  13
ATOM     13  N   LIG d   1      -0.485  79.869 112.715  0.00  0.00    -0.311 N 
ATOM     14  C   LIG d   1      -1.753  80.137 113.024  0.00  0.00     0.210 C 
ATOM     15  C   LIG d   1      -2.389  79.178 114.035  0.00  0.00     0.109 C 
ATOM     16  O   LIG d   1      -2.421  81.059 112.531  0.00  0.00    -0.276 OA
ATOM     17  H   LIG d   1      -0.030  79.083 113.137  0.00  0.00     0.149 HD
ENDBRANCH   6  13
BRANCH   5  18
ATOM     18  N   LIG d   1      -0.320  79.397 109.702  0.00  0.00     0.381 N 
ATOM     19  H   LIG d   1      -0.344  78.397 109.711  0.00  0.00    -0.090 HD
ATOM     20  H   LIG d   1      -0.167  79.700 108.756  0.00  0.00    -0.090 HD
ATOM     21  H   LIG d   1      -1.184  79.760 110.039  0.00  0.00    -0.090 HD
ENDBRANCH   5  18
BRANCH   3  22
ATOM     22  C   LIG d   1       3.891  81.678 109.723  0.00  0.00     0.382 C 
ATOM     23  O   LIG d   1       4.697  80.755 109.452  0.00  0.00    -0.241 OA
ATOM     24  O   LIG d   1       4.184  82.852 109.430  0.00  0.00    -0.241 OA
ENDBRANCH   3  22
TORSDOF 7
ENDMDL
MODEL 4
REMARK VINA RESULT:      -5.0      2.155      5.090
REMARK  7 active torsions:
REMARK  status: ('A' for Active; 'I' for Inactive)
REMARK    1  A    between atoms: C_2  and  C_3 
REMARK    2  A    between atoms: C_3  and  O_6 
REMARK    3  A    between atoms: C_3  and  C_4 
REMARK    4  A    between atoms: C_7  and  O_6 
REMARK    5  A    between atoms: C_9  and  C_10 
REMARK    6  A    between atoms: N_15  and  C_14 
REMARK    7  A    between atoms: N_20  and  C_19 
REMARK       I    between atoms: C_22  and  N_20 
ROOT
ATOM      1  C   LIG d   1       0.046  81.024 111.937  0.00  0.00     0.161 C 
ATOM      2  C   LIG d   1       1.094  81.640 111.234  0.00  0.00     0.016 C 
ATOM      3  C   LIG d   1       2.415  81.730 111.728  0.00  0.00     0.038 C 
ATOM      4  C   LIG d   1       2.815  81.073 112.902  0.00  0.00     0.028 C 
ATOM      5  C   LIG d   1       1.678  80.867 113.897  0.00  0.00    -0.047 C 
ATOM      6  C   LIG d   1       0.487  80.204 113.168  0.00  0.00     0.091 C 
ENDROOT
BRANCH   1   7
ATOM      7  O   LIG d   1      -0.729  80.203 111.041  0.00  0.00    -0.368 OA
BRANCH   7   8
ATOM      8  C   LIG d   1      -0.309  78.822 110.917  0.00  0.00     0.119 C 
BRANCH   8   9
ATOM      9  C   LIG d   1       0.439  78.684 109.577  0.00  0.00     0.028 C 
ATOM     10  C   LIG d   1       1.958  78.537 109.765  0.00  0.00     0.006 C 
ENDBRANCH   8   9
BRANCH   8  11
ATOM     11  C   LIG d   1      -1.513  77.881 110.808  0.00  0.00     0.028 C 
ATOM     12  C   LIG d   1      -2.676  78.294 111.724  0.00  0.00     0.006 C 
ENDBRANCH   8  11
ENDBRANCH   7   8
ENDBRANCH   1   7
BRANCH   6  13
ATOM     13  N   LIG d   1      -0.699  80.043 114.050  0.00  0.00    -0.311 N 
ATOM     14  C   LIG d   1      -0.940  78.943 114.760  0.00  0.00     0.210 C 
ATOM     15  C   LIG d   1      -2.229  78.978 115.588  0.00  0.00     0.109 C 
ATOM     16  O   LIG d   1      -0.193  77.954 114.809  0.00  0.00    -0.276 OA
ATOM     17  H   LIG d   1      -1.341  80.810 114.095  0.00  0.00     0.149 HD
ENDBRANCH   6  13
BRANCH   5  18
ATOM     18  N   LIG d   1       2.202  80.051 115.009  0.00  0.00     0.381 N 
ATOM     19  H   LIG d   1       1.510  79.973 115.727  0.00  0.00    -0.090 HD
ATOM     20  H   LIG d   1       3.008  80.509 115.396  0.00  0.00    -0.090 HD
ATOM     21  H   LIG d   1       2.452  79.145 114.679  0.00  0.00    -0.090 HD
ENDBRANCH   5  18
BRANCH   3  22
ATOM     22  C   LIG d   1       3.344  82.519 111.066  0.00  0.00     0.382 C 
ATOM     23  O   LIG d   1       4.570  82.355 111.279  0.00  0.00    -0.241 OA
ATOM     24  O   LIG d   1       2.971  83.420 110.293  0.00  0.00    -0.241 OA
ENDBRANCH   3  22
TORSDOF 7
ENDMDL
MODEL 5
REMARK VINA RESULT:      -4.8      2.038      3.966
REMARK  7 active torsions:
REMARK  status: ('A' for Active; 'I' for Inactive)
REMARK    1  A    between atoms: C_2  and  C_3 
REMARK    2  A    between atoms: C_3  and  O_6 
REMARK    3  A    between atoms: C_3  and  C_4 
REMARK    4  A    between atoms: C_7  and  O_6 
REMARK    5  A    between atoms: C_9  and  C_10 
REMARK    6  A    between atoms: N_15  and  C_14 
REMARK    7  A    between atoms: N_20  and  C_19 
REMARK       I    between atoms: C_22  and  N_20 
ROOT
ATOM      1  C   LIG d   1       0.241  81.009 112.223  0.00  0.00     0.161 C 
ATOM      2  C   LIG d   1      -0.893  80.189 112.354  0.00  0.00     0.016 C 
ATOM      3  C   LIG d   1      -1.103  79.023 111.584  0.00  0.00     0.038 C 
ATOM      4  C   LIG d   1      -0.115  78.510 110.730  0.00  0.00     0.028 C 
ATOM      5  C   LIG d   1       0.833  79.576 110.192  0.00  0.00    -0.047 C 
ATOM      6  C   LIG d   1       1.381  80.405 111.376  0.00  0.00     0.091 C 
ENDROOT
BRANCH   1   7
ATOM      7  O   LIG d   1       0.728  81.381 113.527  0.00  0.00    -0.368 OA
BRANCH   7   8
ATOM      8  C   LIG d   1       1.661  80.461 114.145  0.00  0.00     0.119 C 
BRANCH   8   9
ATOM      9  C   LIG d   1       1.005  79.933 115.435  0.00  0.00     0.028 C 
ATOM     10  C   LIG d   1       0.149  78.680 115.188  0.00  0.00     0.006 C 
ENDBRANCH   8   9
BRANCH   8  11
ATOM     11  C   LIG d   1       2.934  81.181 114.602  0.00  0.00     0.028 C 
ATOM     12  C   LIG d   1       2.864  82.703 114.395  0.00  0.00     0.006 C 
ENDBRANCH   8  11
ENDBRANCH   7   8
ENDBRANCH   1   7
BRANCH   6  13
ATOM     13  N   LIG d   1       2.251  81.524 110.930  0.00  0.00    -0.311 N 
ATOM     14  C   LIG d   1       3.582  81.463 110.930  0.00  0.00     0.210 C 
ATOM     15  C   LIG d   1       4.287  82.735 110.450  0.00  0.00     0.109 C 
ATOM     16  O   LIG d   1       4.243  80.464 111.252  0.00  0.00    -0.276 OA
ATOM     17  H   LIG d   1       1.796  82.361 110.623  0.00  0.00     0.149 HD
ENDBRANCH   6  13
BRANCH   5  18
ATOM     18  N   LIG d   1       1.892  78.887 109.430  0.00  0.00     0.381 N 
ATOM     19  H   LIG d   1       1.986  79.305 108.526  0.00  0.00    -0.090 HD
ATOM     20  H   LIG d   1       1.630  77.925 109.306  0.00  0.00    -0.090 HD
ATOM     21  H   LIG d   1       2.757  78.942 109.922  0.00  0.00    -0.090 HD
ENDBRANCH   5  18
BRANCH   3  22
ATOM     22  C   LIG d   1      -2.330  78.378 111.634  0.00  0.00     0.382 C 
ATOM     23  O   LIG d   1      -2.670  77.605 110.706  0.00  0.00    -0.241 OA
ATOM     24  O   LIG d   1      -3.118  78.593 112.573  0.00  0.00    -0.241 OA
ENDBRANCH   3  22
TORSDOF 7
ENDMDL
MODEL 6
REMARK VINA RESULT:      -4.7      1.765      2.394
REMARK  7 active torsions:
REMARK  status: ('A' for Active; 'I' for Inactive)
REMARK    1  A    between atoms: C_2  and  C_3 
REMARK    2  A    between atoms: C_3  and  O_6 
REMARK    3  A    between atoms: C_3  and  C_4 
REMARK    4  A    between atoms: C_7  and  O_6 
REMARK    5  A    between atoms: C_9  and  C_10 
REMARK    6  A    between atoms: N_15  and  C_14 
REMARK    7  A    between atoms: N_20  and  C_19 
REMARK       I    between atoms: C_22  and  N_20 
ROOT
ATOM      1  C   LIG d   1       1.633  80.371 112.465  0.00  0.00     0.161 C 
ATOM      2  C   LIG d   1       0.640  79.831 111.630  0.00  0.00     0.016 C 
ATOM      3  C   LIG d   1      -0.519  79.184 112.117  0.00  0.00     0.038 C 
ATOM      4  C   LIG d   1      -0.839  79.166 113.483  0.00  0.00     0.028 C 
ATOM      5  C   LIG d   1       0.381  79.255 114.393  0.00  0.00    -0.047 C 
ATOM      6  C   LIG d   1       1.246  80.459 113.956  0.00  0.00     0.091 C 
ENDROOT
BRANCH   1   7
ATOM      7  O   LIG d   1       2.033  81.665 111.973  0.00  0.00    -0.368 OA
BRANCH   7   8
ATOM      8  C   LIG d   1       3.401  81.776 111.508  0.00  0.00     0.119 C 
BRANCH   8   9
ATOM      9  C   LIG d   1       3.935  83.148 111.961  0.00  0.00     0.028 C 
ATOM     10  C   LIG d   1       3.026  83.815 113.008  0.00  0.00     0.006 C 
ENDBRANCH   8   9
BRANCH   8  11
ATOM     11  C   LIG d   1       3.469  81.799 109.978  0.00  0.00     0.028 C 
ATOM     12  C   LIG d   1       4.760  81.169 109.430  0.00  0.00     0.006 C 
ENDBRANCH   8  11
ENDBRANCH   7   8
ENDBRANCH   1   7
BRANCH   6  13
ATOM     13  N   LIG d   1       2.504  80.569 114.741  0.00  0.00    -0.311 N 
ATOM     14  C   LIG d   1       2.622  81.319 115.835  0.00  0.00     0.210 C 
ATOM     15  C   LIG d   1       4.011  81.306 116.480  0.00  0.00     0.109 C 
ATOM     16  O   LIG d   1       1.700  81.969 116.350  0.00  0.00    -0.276 OA
ATOM     17  H   LIG d   1       3.293  80.049 114.411  0.00  0.00     0.149 HD
ENDBRANCH   6  13
BRANCH   5  18
ATOM     18  N   LIG d   1      -0.105  79.366 115.781  0.00  0.00     0.381 N 
ATOM     19  H   LIG d   1       0.536  78.913 116.401  0.00  0.00    -0.090 HD
ATOM     20  H   LIG d   1      -0.993  78.902 115.852  0.00  0.00    -0.090 HD
ATOM     21  H   LIG d   1      -0.201  80.325 116.033  0.00  0.00    -0.090 HD
ENDBRANCH   5  18
BRANCH   3  22
ATOM     22  C   LIG d   1      -1.352  78.510 111.237  0.00  0.00     0.382 C 
ATOM     23  O   LIG d   1      -2.131  77.625 111.664  0.00  0.00    -0.241 OA
ATOM     24  O   LIG d   1      -1.302  78.746 110.014  0.00  0.00    -0.241 OA
ENDBRANCH   3  22
TORSDOF 7
ENDMDL
MODEL 7
REMARK VINA RESULT:      -4.6      2.136      3.682
REMARK  7 active torsions:
REMARK  status: ('A' for Active; 'I' for Inactive)
REMARK    1  A    between atoms: C_2  and  C_3 
REMARK    2  A    between atoms: C_3  and  O_6 
REMARK    3  A    between atoms: C_3  and  C_4 
REMARK    4  A    between atoms: C_7  and  O_6 
REMARK    5  A    between atoms: C_9  and  C_10 
REMARK    6  A    between atoms: N_15  and  C_14 
REMARK    7  A    between atoms: N_20  and  C_19 
REMARK       I    between atoms: C_22  and  N_20 
ROOT
ATOM      1  C   LIG d   1       0.603  82.180 111.785  0.00  0.00     0.161 C 
ATOM      2  C   LIG d   1      -0.604  81.698 112.318  0.00  0.00     0.016 C 
ATOM      3  C   LIG d   1      -0.972  80.333 112.302  0.00  0.00     0.038 C 
ATOM      4  C   LIG d   1      -0.084  79.331 111.884  0.00  0.00     0.028 C 
ATOM      5  C   LIG d   1       0.946  79.818 110.871  0.00  0.00    -0.047 C 
ATOM      6  C   LIG d   1       1.633  81.088 111.425  0.00  0.00     0.091 C 
ENDROOT
BRANCH   1   7
ATOM      7  O   LIG d   1       1.187  83.141 112.687  0.00  0.00    -0.368 OA
BRANCH   7   8
ATOM      8  C   LIG d   1       2.479  82.791 113.242  0.00  0.00     0.119 C 
BRANCH   8   9
ATOM      9  C   LIG d   1       2.252  82.354 114.702  0.00  0.00     0.028 C 
ATOM     10  C   LIG d   1       2.368  80.831 114.884  0.00  0.00     0.006 C 
ENDBRANCH   8   9
BRANCH   8  11
ATOM     11  C   LIG d   1       3.400  84.012 113.323  0.00  0.00     0.028 C 
ATOM     12  C   LIG d   1       3.697  84.440 114.769  0.00  0.00     0.006 C 
ENDBRANCH   8  11
ENDBRANCH   7   8
ENDBRANCH   1   7
BRANCH   6  13
ATOM     13  N   LIG d   1       2.596  81.679 110.460  0.00  0.00    -0.311 N 
ATOM     14  C   LIG d   1       3.909  81.460 110.508  0.00  0.00     0.210 C 
ATOM     15  C   LIG d   1       4.724  82.182 109.430  0.00  0.00     0.109 C 
ATOM     16  O   LIG d   1       4.472  80.713 111.321  0.00  0.00    -0.276 OA
ATOM     17  H   LIG d   1       2.221  82.274 109.747  0.00  0.00     0.149 HD
ENDBRANCH   6  13
BRANCH   5  18
ATOM     18  N   LIG d   1       1.890  78.711 110.627  0.00  0.00     0.381 N 
ATOM     19  H   LIG d   1       1.383  77.861 110.480  0.00  0.00    -0.090 HD
ATOM     20  H   LIG d   1       2.472  78.595 111.438  0.00  0.00    -0.090 HD
ATOM     21  H   LIG d   1       2.453  78.912 109.831  0.00  0.00    -0.090 HD
ENDBRANCH   5  18
BRANCH   3  22
ATOM     22  C   LIG d   1      -2.257  79.964 112.671  0.00  0.00     0.382 C 
ATOM     23  O   LIG d   1      -2.902  80.667 113.486  0.00  0.00    -0.241 OA
ATOM     24  O   LIG d   1      -2.761  78.912 112.234  0.00  0.00    -0.241 OA
ENDBRANCH   3  22
TORSDOF 7
ENDMDL
MODEL 8
REMARK VINA RESULT:      -4.4      2.524      5.200
REMARK  7 active torsions:
REMARK  status: ('A' for Active; 'I' for Inactive)
REMARK    1  A    between atoms: C_2  and  C_3 
REMARK    2  A    between atoms: C_3  and  O_6 
REMARK    3  A    between atoms: C_3  and  C_4 
REMARK    4  A    between atoms: C_7  and  O_6 
REMARK    5  A    between atoms: C_9  and  C_10 
REMARK    6  A    between atoms: N_15  and  C_14 
REMARK    7  A    between atoms: N_20  and  C_19 
REMARK       I    between atoms: C_22  and  N_20 
ROOT
ATOM      1  C   LIG d   1       1.876  80.555 112.810  0.00  0.00     0.161 C 
ATOM      2  C   LIG d   1       2.821  81.175 111.975  0.00  0.00     0.016 C 
ATOM      3  C   LIG d   1       2.707  81.216 110.567  0.00  0.00     0.038 C 
ATOM      4  C   LIG d   1       1.554  80.770 109.903  0.00  0.00     0.028 C 
ATOM      5  C   LIG d   1       0.801  79.683 110.662  0.00  0.00    -0.047 C 
ATOM      6  C   LIG d   1       0.557  80.161 112.112  0.00  0.00     0.091 C 
ENDROOT
BRANCH   1   7
ATOM      7  O   LIG d   1       1.607  81.394 113.951  0.00  0.00    -0.368 OA
BRANCH   7   8
ATOM      8  C   LIG d   1       2.736  81.676 114.814  0.00  0.00     0.119 C 
BRANCH   8   9
ATOM      9  C   LIG d   1       2.616  80.759 116.047  0.00  0.00     0.028 C 
ATOM     10  C   LIG d   1       3.986  80.280 116.557  0.00  0.00     0.006 C 
ENDBRANCH   8   9
BRANCH   8  11
ATOM     11  C   LIG d   1       2.674  83.105 115.364  0.00  0.00     0.028 C 
ATOM     12  C   LIG d   1       3.884  83.956 114.948  0.00  0.00     0.006 C 
ENDBRANCH   8  11
ENDBRANCH   7   8
ENDBRANCH   1   7
BRANCH   6  13
ATOM     13  N   LIG d   1      -0.101  79.123 112.948  0.00  0.00    -0.311 N 
ATOM     14  C   LIG d   1      -1.265  79.310 113.567  0.00  0.00     0.210 C 
ATOM     15  C   LIG d   1      -1.757  78.117 114.393  0.00  0.00     0.109 C 
ATOM     16  O   LIG d   1      -1.954  80.338 113.483  0.00  0.00    -0.276 OA
ATOM     17  H   LIG d   1       0.374  78.247 113.044  0.00  0.00     0.149 HD
ENDBRANCH   6  13
BRANCH   5  18
ATOM     18  N   LIG d   1      -0.448  79.410 109.926  0.00  0.00     0.381 N 
ATOM     19  H   LIG d   1      -0.757  78.478 110.118  0.00  0.00    -0.090 HD
ATOM     20  H   LIG d   1      -0.268  79.486 108.941  0.00  0.00    -0.090 HD
ATOM     21  H   LIG d   1      -1.152  80.063 110.194  0.00  0.00    -0.090 HD
ENDBRANCH   5  18
BRANCH   3  22
ATOM     22  C   LIG d   1       3.771  81.673 109.804  0.00  0.00     0.382 C 
ATOM     23  O   LIG d   1       3.817  82.876 109.448  0.00  0.00    -0.241 OA
ATOM     24  O   LIG d   1       4.663  80.888 109.430  0.00  0.00    -0.241 OA
ENDBRANCH   3  22
TORSDOF 7
ENDMDL
MODEL 9
REMARK VINA RESULT:      -4.4      2.155      2.773
REMARK  7 active torsions:
REMARK  status: ('A' for Active; 'I' for Inactive)
REMARK    1  A    between atoms: C_2  and  C_3 
REMARK    2  A    between atoms: C_3  and  O_6 
REMARK    3  A    between atoms: C_3  and  C_4 
REMARK    4  A    between atoms: C_7  and  O_6 
REMARK    5  A    between atoms: C_9  and  C_10 
REMARK    6  A    between atoms: N_15  and  C_14 
REMARK    7  A    between atoms: N_20  and  C_19 
REMARK       I    between atoms: C_22  and  N_20 
ROOT
ATOM      1  C   LIG d   1       0.638  80.181 113.023  0.00  0.00     0.161 C 
ATOM      2  C   LIG d   1      -0.430  79.745 112.222  0.00  0.00     0.016 C 
ATOM      3  C   LIG d   1      -1.420  78.841 112.669  0.00  0.00     0.038 C 
ATOM      4  C   LIG d   1      -1.494  78.425 114.007  0.00  0.00     0.028 C 
ATOM      5  C   LIG d   1      -0.147  78.442 114.722  0.00  0.00    -0.047 C 
ATOM      6  C   LIG d   1       0.511  79.825 114.519  0.00  0.00     0.091 C 
ENDROOT
BRANCH   1   7
ATOM      7  O   LIG d   1       0.824  81.601 112.860  0.00  0.00    -0.368 OA
BRANCH   7   8
ATOM      8  C   LIG d   1       1.646  82.012 111.741  0.00  0.00     0.119 C 
BRANCH   8   9
ATOM      9  C   LIG d   1       2.926  82.649 112.316  0.00  0.00     0.028 C 
ATOM     10  C   LIG d   1       2.738  83.143 113.760  0.00  0.00     0.006 C 
ENDBRANCH   8   9
BRANCH   8  11
ATOM     11  C   LIG d   1       0.970  83.122 110.930  0.00  0.00     0.028 C 
ATOM     12  C   LIG d   1      -0.409  83.511 111.487  0.00  0.00     0.006 C 
ENDBRANCH   8  11
ENDBRANCH   7   8
ENDBRANCH   1   7
BRANCH   6  13
ATOM     13  N   LIG d   1       1.871  79.899 115.116  0.00  0.00    -0.311 N 
ATOM     14  C   LIG d   1       2.123  80.456 116.299  0.00  0.00     0.210 C 
ATOM     15  C   LIG d   1       3.596  80.444 116.719  0.00  0.00     0.109 C 
ATOM     16  O   LIG d   1       1.261  80.930 117.055  0.00  0.00    -0.276 OA
ATOM     17  H   LIG d   1       2.624  79.510 114.584  0.00  0.00     0.149 HD
ENDBRANCH   6  13
BRANCH   5  18
ATOM     18  N   LIG d   1      -0.392  78.120 116.141  0.00  0.00     0.381 N 
ATOM     19  H   LIG d   1      -1.044  78.772 116.528  0.00  0.00    -0.090 HD
ATOM     20  H   LIG d   1       0.473  78.200 116.646  0.00  0.00    -0.090 HD
ATOM     21  H   LIG d   1      -0.748  77.193 116.224  0.00  0.00    -0.090 HD
ENDBRANCH   5  18
BRANCH   3  22
ATOM     22  C   LIG d   1      -2.326  78.311 111.764  0.00  0.00     0.382 C 
ATOM     23  O   LIG d   1      -2.045  78.278 110.541  0.00  0.00    -0.241 OA
ATOM     24  O   LIG d   1      -3.440  77.906 112.148  0.00  0.00    -0.241 OA
ENDBRANCH   3  22
TORSDOF 7
ENDMDL
