MODEL 1
REMARK VINA RESULT:      -5.3      0.000      0.000
REMARK  7 active torsions:
REMARK  status: ('A' for Active; 'I' for Inactive)
REMARK    1  A    between atoms: C_2  and  C_3 
REMARK    2  A    between atoms: C_3  and  O_6 
REMARK    3  A    between atoms: C_3  and  C_4 
REMARK    4  A    between atoms: C_7  and  O_6 
REMARK    5  A    between atoms: C_9  and  C_10 
REMARK    6  A    between atoms: N_15  and  C_14 
REMARK    7  A    between atoms: N_20  and  C_19 
REMARK       I    between atoms: C_22  and  N_20 
ROOT
ATOM      1  C   LIG d   1       0.509  82.826 112.269  0.00  0.00     0.161 C 
ATOM      2  C   LIG d   1      -0.744  82.433 112.770  0.00  0.00     0.016 C 
ATOM      3  C   LIG d   1      -1.361  81.203 112.445  0.00  0.00     0.038 C 
ATOM      4  C   LIG d   1      -0.695  80.210 111.712  0.00  0.00     0.028 C 
ATOM      5  C   LIG d   1       0.366  80.764 110.766  0.00  0.00    -0.047 C 
ATOM      6  C   LIG d   1       1.300  81.708 111.557  0.00  0.00     0.091 C 
ENDROOT
BRANCH   1   7
ATOM      7  O   LIG d   1       1.299  83.403 113.327  0.00  0.00    -0.368 OA
BRANCH   7   8
ATOM      8  C   LIG d   1       0.933  83.022 114.676  0.00  0.00     0.119 C 
BRANCH   8   9
ATOM      9  C   LIG d   1       1.245  84.218 115.596  0.00  0.00     0.028 C 
ATOM     10  C   LIG d   1       0.553  84.103 116.964  0.00  0.00     0.006 C 
ENDBRANCH   8   9
BRANCH   8  11
ATOM     11  C   LIG d   1       1.811  81.876 115.189  0.00  0.00     0.028 C 
ATOM     12  C   LIG d   1       1.004  80.615 115.534  0.00  0.00     0.006 C 
ENDBRANCH   8  11
ENDBRANCH   7   8
ENDBRANCH   1   7
BRANCH   6  13
ATOM     13  N   LIG d   1       2.315  82.358 110.689  0.00  0.00    -0.311 N 
ATOM     14  C   LIG d   1       3.445  81.763 110.310  0.00  0.00     0.210 C 
ATOM     15  C   LIG d   1       4.363  82.619 109.431  0.00  0.00     0.109 C 
ATOM     16  O   LIG d   1       3.759  80.597 110.591  0.00  0.00    -0.276 OA
ATOM     17  H   LIG d   1       2.126  83.295 110.389  0.00  0.00     0.149 HD
ENDBRANCH   6  13
BRANCH   5  18
ATOM     18  N   LIG d   1       1.074  79.615 110.170  0.00  0.00     0.381 N 
ATOM     19  H   LIG d   1       1.805  79.313 110.783  0.00  0.00    -0.090 HD
ATOM     20  H   LIG d   1       1.490  79.905 109.303  0.00  0.00    -0.090 HD
ATOM     21  H   LIG d   1       0.436  78.867 110.008  0.00  0.00    -0.090 HD
ENDBRANCH   5  18
BRANCH   3  22
ATOM     22  C   LIG d   1      -2.676  80.974 112.822  0.00  0.00     0.382 C 
ATOM     23  O   LIG d   1      -3.131  79.805 112.828  0.00  0.00    -0.241 OA
ATOM     24  O   LIG d   1      -3.425  81.925 113.113  0.00  0.00    -0.241 OA
ENDBRANCH   3  22
TORSDOF 7
ENDMDL
MODEL 2
REMARK VINA RESULT:      -5.2      1.836      4.763
REMARK  7 active torsions:
REMARK  status: ('A' for Active; 'I' for Inactive)
REMARK    1  A    between atoms: C_2  and  C_3 
REMARK    2  A    between atoms: C_3  and  O_6 
REMARK    3  A    between atoms: C_3  and  C_4 
REMARK    4  A    between atoms: C_7  and  O_6 
REMARK    5  A    between atoms: C_9  and  C_10 
REMARK    6  A    between atoms: N_15  and  C_14 
REMARK    7  A    between atoms: N_20  and  C_19 
REMARK       I    between atoms: C_22  and  N_20 
ROOT
ATOM      1  C   LIG d   1       0.632  82.973 112.624  0.00  0.00     0.161 C 
ATOM      2  C   LIG d   1       1.695  83.363 111.793  0.00  0.00     0.016 C 
ATOM      3  C   LIG d   1       2.107  82.627 110.659  0.00  0.00     0.038 C 
ATOM      4  C   LIG d   1       1.381  81.523 110.188  0.00  0.00     0.028 C 
ATOM      5  C   LIG d   1       0.602  80.799 111.282  0.00  0.00    -0.047 C 
ATOM      6  C   LIG d   1      -0.242  81.831 112.063  0.00  0.00     0.091 C 
ENDROOT
BRANCH   1   7
ATOM      7  O   LIG d   1      -0.184  84.117 112.944  0.00  0.00    -0.368 OA
BRANCH   7   8
ATOM      8  C   LIG d   1      -0.095  84.603 114.306  0.00  0.00     0.119 C 
BRANCH   8   9
ATOM      9  C   LIG d   1       0.994  83.779 115.021  0.00  0.00     0.028 C 
ATOM     10  C   LIG d   1       2.164  84.651 115.509  0.00  0.00     0.006 C 
ENDBRANCH   8   9
BRANCH   8  11
ATOM     11  C   LIG d   1      -1.386  84.327 115.082  0.00  0.00     0.028 C 
ATOM     12  C   LIG d   1      -1.178  83.367 116.264  0.00  0.00     0.006 C 
ENDBRANCH   8  11
ENDBRANCH   7   8
ENDBRANCH   1   7
BRANCH   6  13
ATOM     13  N   LIG d   1      -0.970  81.220 113.205  0.00  0.00    -0.311 N 
ATOM     14  C   LIG d   1      -2.299  81.189 113.296  0.00  0.00     0.210 C 
ATOM     15  C   LIG d   1      -2.845  80.529 114.565  0.00  0.00     0.109 C 
ATOM     16  O   LIG d   1      -3.076  81.617 112.430  0.00  0.00    -0.276 OA
ATOM     17  H   LIG d   1      -0.417  80.821 113.938  0.00  0.00     0.149 HD
ENDBRANCH   6  13
BRANCH   5  18
ATOM     18  N   LIG d   1      -0.215  79.757 110.632  0.00  0.00     0.381 N 
ATOM     19  H   LIG d   1       0.346  78.948 110.454  0.00  0.00    -0.090 HD
ATOM     20  H   LIG d   1      -0.549  80.108 109.752  0.00  0.00    -0.090 HD
ATOM     21  H   LIG d   1      -0.985  79.515 111.215  0.00  0.00    -0.090 HD
ENDBRANCH   5  18
BRANCH   3  22
ATOM     22  C   LIG d   1       3.280  82.971 110.005  0.00  0.00     0.382 C 
ATOM     23  O   LIG d   1       4.068  82.075 109.618  0.00  0.00    -0.241 OA
ATOM     24  O   LIG d   1       3.582  84.168 109.836  0.00  0.00    -0.241 OA
ENDBRANCH   3  22
TORSDOF 7
ENDMDL
MODEL 3
REMARK VINA RESULT:      -5.2      2.020      4.773
REMARK  7 active torsions:
REMARK  status: ('A' for Active; 'I' for Inactive)
REMARK    1  A    between atoms: C_2  and  C_3 
REMARK    2  A    between atoms: C_3  and  O_6 
REMARK    3  A    between atoms: C_3  and  C_4 
REMARK    4  A    between atoms: C_7  and  O_6 
REMARK    5  A    between atoms: C_9  and  C_10 
REMARK    6  A    between atoms: N_15  and  C_14 
REMARK    7  A    between atoms: N_20  and  C_19 
REMARK       I    between atoms: C_22  and  N_20 
ROOT
ATOM      1  C   LIG d   1       0.483  81.834 112.967  0.00  0.00     0.161 C 
ATOM      2  C   LIG d   1       1.448  82.779 112.581  0.00  0.00     0.016 C 
ATOM      3  C   LIG d   1       1.923  82.910 111.256  0.00  0.00     0.038 C 
ATOM      4  C   LIG d   1       1.351  82.200 110.190  0.00  0.00     0.028 C 
ATOM      5  C   LIG d   1       0.726  80.875 110.611  0.00  0.00    -0.047 C 
ATOM      6  C   LIG d   1      -0.233  81.127 111.797  0.00  0.00     0.091 C 
ENDROOT
BRANCH   1   7
ATOM      7  O   LIG d   1      -0.480  82.449 113.845  0.00  0.00    -0.368 OA
BRANCH   7   8
ATOM      8  C   LIG d   1      -0.226  82.312 115.265  0.00  0.00     0.119 C 
BRANCH   8   9
ATOM      9  C   LIG d   1      -1.369  81.466 115.860  0.00  0.00     0.028 C 
ATOM     10  C   LIG d   1      -2.755  81.940 115.390  0.00  0.00     0.006 C 
ENDBRANCH   8   9
BRANCH   8  11
ATOM     11  C   LIG d   1      -0.309  83.664 115.979  0.00  0.00     0.028 C 
ATOM     12  C   LIG d   1      -0.206  83.539 117.507  0.00  0.00     0.006 C 
ENDBRANCH   8  11
ENDBRANCH   7   8
ENDBRANCH   1   7
BRANCH   6  13
ATOM     13  N   LIG d   1      -0.823  79.869 112.326  0.00  0.00    -0.311 N 
ATOM     14  C   LIG d   1      -2.132  79.688 112.494  0.00  0.00     0.210 C 
ATOM     15  C   LIG d   1      -2.527  78.325 113.070  0.00  0.00     0.109 C 
ATOM     16  O   LIG d   1      -3.005  80.514 112.190  0.00  0.00    -0.276 OA
ATOM     17  H   LIG d   1      -0.188  79.134 112.569  0.00  0.00     0.149 HD
ENDBRANCH   6  13
BRANCH   5  18
ATOM     18  N   LIG d   1       0.048  80.307 109.430  0.00  0.00     0.381 N 
ATOM     19  H   LIG d   1      -0.924  80.540 109.453  0.00  0.00    -0.090 HD
ATOM     20  H   LIG d   1       0.133  79.306 109.457  0.00  0.00    -0.090 HD
ATOM     21  H   LIG d   1       0.463  80.660 108.596  0.00  0.00    -0.090 HD
ENDBRANCH   5  18
BRANCH   3  22
ATOM     22  C   LIG d   1       3.010  83.730 110.994  0.00  0.00     0.382 C 
ATOM     23  O   LIG d   1       3.038  84.418 109.944  0.00  0.00    -0.241 OA
ATOM     24  O   LIG d   1       3.983  83.758 111.771  0.00  0.00    -0.241 OA
ENDBRANCH   3  22
TORSDOF 7
ENDMDL
MODEL 4
REMARK VINA RESULT:      -4.9      1.640      1.914
REMARK  7 active torsions:
REMARK  status: ('A' for Active; 'I' for Inactive)
REMARK    1  A    between atoms: C_2  and  C_3 
REMARK    2  A    between atoms: C_3  and  O_6 
REMARK    3  A    between atoms: C_3  and  C_4 
REMARK    4  A    between atoms: C_7  and  O_6 
REMARK    5  A    between atoms: C_9  and  C_10 
REMARK    6  A    between atoms: N_15  and  C_14 
REMARK    7  A    between atoms: N_20  and  C_19 
REMARK       I    between atoms: C_22  and  N_20 
ROOT
ATOM      1  C   LIG d   1      -0.997  82.702 112.212  0.00  0.00     0.161 C 
ATOM      2  C   LIG d   1      -1.901  81.720 112.651  0.00  0.00     0.016 C 
ATOM      3  C   LIG d   1      -1.681  80.333 112.490  0.00  0.00     0.038 C 
ATOM      4  C   LIG d   1      -0.464  79.826 112.011  0.00  0.00     0.028 C 
ATOM      5  C   LIG d   1       0.274  80.791 111.089  0.00  0.00    -0.047 C 
ATOM      6  C   LIG d   1       0.386  82.165 111.788  0.00  0.00     0.091 C 
ENDROOT
BRANCH   1   7
ATOM      7  O   LIG d   1      -0.851  83.719 113.223  0.00  0.00    -0.368 OA
BRANCH   7   8
ATOM      8  C   LIG d   1      -0.338  83.275 114.503  0.00  0.00     0.119 C 
BRANCH   8   9
ATOM      9  C   LIG d   1      -1.262  83.847 115.596  0.00  0.00     0.028 C 
ATOM     10  C   LIG d   1      -1.347  82.933 116.830  0.00  0.00     0.006 C 
ENDBRANCH   8   9
BRANCH   8  11
ATOM     11  C   LIG d   1       1.044  83.873 114.787  0.00  0.00     0.028 C 
ATOM     12  C   LIG d   1       2.103  82.803 115.096  0.00  0.00     0.006 C 
ENDBRANCH   8  11
ENDBRANCH   7   8
ENDBRANCH   1   7
BRANCH   6  13
ATOM     13  N   LIG d   1       1.021  83.192 110.920  0.00  0.00    -0.311 N 
ATOM     14  C   LIG d   1       2.315  83.500 110.976  0.00  0.00     0.210 C 
ATOM     15  C   LIG d   1       2.760  84.601 110.008  0.00  0.00     0.109 C 
ATOM     16  O   LIG d   1       3.144  82.943 111.712  0.00  0.00    -0.276 OA
ATOM     17  H   LIG d   1       0.427  83.671 110.271  0.00  0.00     0.149 HD
ENDBRANCH   6  13
BRANCH   5  18
ATOM     18  N   LIG d   1       1.585  80.193 110.775  0.00  0.00     0.381 N 
ATOM     19  H   LIG d   1       1.594  79.873 109.828  0.00  0.00    -0.090 HD
ATOM     20  H   LIG d   1       1.734  79.402 111.377  0.00  0.00    -0.090 HD
ATOM     21  H   LIG d   1       2.308  80.864 110.913  0.00  0.00    -0.090 HD
ENDBRANCH   5  18
BRANCH   3  22
ATOM     22  C   LIG d   1      -2.702  79.438 112.773  0.00  0.00     0.382 C 
ATOM     23  O   LIG d   1      -3.151  79.349 113.940  0.00  0.00    -0.241 OA
ATOM     24  O   LIG d   1      -3.148  78.688 111.884  0.00  0.00    -0.241 OA
ENDBRANCH   3  22
TORSDOF 7
ENDMDL
MODEL 5
REMARK VINA RESULT:      -4.8      2.020      4.793
REMARK  7 active torsions:
REMARK  status: ('A' for Active; 'I' for Inactive)
REMARK    1  A    between atoms: C_2  and  C_3 
REMARK    2  A    between atoms: C_3  and  O_6 
REMARK    3  A    between atoms: C_3  and  C_4 
REMARK    4  A    between atoms: C_7  and  O_6 
REMARK    5  A    between atoms: C_9  and  C_10 
REMARK    6  A    between atoms: N_15  and  C_14 
REMARK    7  A    between atoms: N_20  and  C_19 
REMARK       I    between atoms: C_22  and  N_20 
ROOT
ATOM      1  C   LIG d   1       0.573  81.708 113.503  0.00  0.00     0.161 C 
ATOM      2  C   LIG d   1       1.567  81.629 112.513  0.00  0.00     0.016 C 
ATOM      3  C   LIG d   1       1.412  80.901 111.311  0.00  0.00     0.038 C 
ATOM      4  C   LIG d   1       0.186  80.323 110.947  0.00  0.00     0.028 C 
ATOM      5  C   LIG d   1      -0.686  79.950 112.141  0.00  0.00    -0.047 C 
ATOM      6  C   LIG d   1      -0.811  81.176 113.074  0.00  0.00     0.091 C 
ENDROOT
BRANCH   1   7
ATOM      7  O   LIG d   1       0.463  83.064 113.977  0.00  0.00    -0.368 OA
BRANCH   7   8
ATOM      8  C   LIG d   1       0.876  83.296 115.347  0.00  0.00     0.119 C 
BRANCH   8   9
ATOM      9  C   LIG d   1      -0.301  83.971 116.077  0.00  0.00     0.028 C 
ATOM     10  C   LIG d   1      -0.613  83.305 117.428  0.00  0.00     0.006 C 
ENDBRANCH   8   9
BRANCH   8  11
ATOM     11  C   LIG d   1       2.029  84.301 115.419  0.00  0.00     0.028 C 
ATOM     12  C   LIG d   1       3.410  83.627 115.394  0.00  0.00     0.006 C 
ENDBRANCH   8  11
ENDBRANCH   7   8
ENDBRANCH   1   7
BRANCH   6  13
ATOM     13  N   LIG d   1      -1.579  80.872 114.309  0.00  0.00    -0.311 N 
ATOM     14  C   LIG d   1      -2.677  81.533 114.671  0.00  0.00     0.210 C 
ATOM     15  C   LIG d   1      -3.303  81.073 115.991  0.00  0.00     0.109 C 
ATOM     16  O   LIG d   1      -3.211  82.435 114.007  0.00  0.00    -0.276 OA
ATOM     17  H   LIG d   1      -1.234  80.134 114.891  0.00  0.00     0.149 HD
ENDBRANCH   6  13
BRANCH   5  18
ATOM     18  N   LIG d   1      -1.985  79.487 111.617  0.00  0.00     0.381 N 
ATOM     19  H   LIG d   1      -2.567  80.275 111.412  0.00  0.00    -0.090 HD
ATOM     20  H   LIG d   1      -2.440  78.932 112.320  0.00  0.00    -0.090 HD
ATOM     21  H   LIG d   1      -1.846  78.944 110.793  0.00  0.00    -0.090 HD
ENDBRANCH   5  18
BRANCH   3  22
ATOM     22  C   LIG d   1       2.503  80.712 110.476  0.00  0.00     0.382 C 
ATOM     23  O   LIG d   1       3.524  81.428 110.608  0.00  0.00    -0.241 OA
ATOM     24  O   LIG d   1       2.461  79.864 109.564  0.00  0.00    -0.241 OA
ENDBRANCH   3  22
TORSDOF 7
ENDMDL
MODEL 6
REMARK VINA RESULT:      -4.6      2.402      4.379
REMARK  7 active torsions:
REMARK  status: ('A' for Active; 'I' for Inactive)
REMARK    1  A    between atoms: C_2  and  C_3 
REMARK    2  A    between atoms: C_3  and  O_6 
REMARK    3  A    between atoms: C_3  and  C_4 
REMARK    4  A    between atoms: C_7  and  O_6 
REMARK    5  A    between atoms: C_9  and  C_10 
REMARK    6  A    between atoms: N_15  and  C_14 
REMARK    7  A    between atoms: N_20  and  C_19 
REMARK       I    between atoms: C_22  and  N_20 
ROOT
ATOM      1  C   LIG d   1       0.114  82.770 112.003  0.00  0.00     0.161 C 
ATOM      2  C   LIG d   1      -0.920  81.822 112.066  0.00  0.00     0.016 C 
ATOM      3  C   LIG d   1      -1.825  81.727 113.148  0.00  0.00     0.038 C 
ATOM      4  C   LIG d   1      -1.850  82.679 114.178  0.00  0.00     0.028 C 
ATOM      5  C   LIG d   1      -0.503  83.354 114.413  0.00  0.00    -0.047 C 
ATOM      6  C   LIG d   1       0.032  83.887 113.064  0.00  0.00     0.091 C 
ENDROOT
BRANCH   1   7
ATOM      7  O   LIG d   1       0.175  83.340 110.680  0.00  0.00    -0.368 OA
BRANCH   7   8
ATOM      8  C   LIG d   1       1.316  82.956 109.873  0.00  0.00     0.119 C 
BRANCH   8   9
ATOM      9  C   LIG d   1       2.004  81.771 110.578  0.00  0.00     0.028 C 
ATOM     10  C   LIG d   1       1.813  80.447 109.818  0.00  0.00     0.006 C 
ENDBRANCH   8   9
BRANCH   8  11
ATOM     11  C   LIG d   1       2.368  84.069 109.832  0.00  0.00     0.028 C 
ATOM     12  C   LIG d   1       3.789  83.555 110.111  0.00  0.00     0.006 C 
ENDBRANCH   8  11
ENDBRANCH   7   8
ENDBRANCH   1   7
BRANCH   6  13
ATOM     13  N   LIG d   1       1.386  84.488 113.190  0.00  0.00    -0.311 N 
ATOM     14  C   LIG d   1       2.443  83.823 113.651  0.00  0.00     0.210 C 
ATOM     15  C   LIG d   1       3.740  84.636 113.717  0.00  0.00     0.109 C 
ATOM     16  O   LIG d   1       2.438  82.628 113.982  0.00  0.00    -0.276 OA
ATOM     17  H   LIG d   1       1.487  85.446 112.914  0.00  0.00     0.149 HD
ENDBRANCH   6  13
BRANCH   5  18
ATOM     18  N   LIG d   1      -0.705  84.417 115.415  0.00  0.00     0.381 N 
ATOM     19  H   LIG d   1       0.092  84.471 116.018  0.00  0.00    -0.090 HD
ATOM     20  H   LIG d   1      -1.508  84.187 115.975  0.00  0.00    -0.090 HD
ATOM     21  H   LIG d   1      -0.847  85.292 114.961  0.00  0.00    -0.090 HD
ENDBRANCH   5  18
BRANCH   3  22
ATOM     22  C   LIG d   1      -2.691  80.647 113.228  0.00  0.00     0.382 C 
ATOM     23  O   LIG d   1      -3.166  80.305 114.337  0.00  0.00    -0.241 OA
ATOM     24  O   LIG d   1      -2.969  79.984 112.210  0.00  0.00    -0.241 OA
ENDBRANCH   3  22
TORSDOF 7
ENDMDL
MODEL 7
REMARK VINA RESULT:      -4.4      2.708      4.982
REMARK  7 active torsions:
REMARK  status: ('A' for Active; 'I' for Inactive)
REMARK    1  A    between atoms: C_2  and  C_3 
REMARK    2  A    between atoms: C_3  and  O_6 
REMARK    3  A    between atoms: C_3  and  C_4 
REMARK    4  A    between atoms: C_7  and  O_6 
REMARK    5  A    between atoms: C_9  and  C_10 
REMARK    6  A    between atoms: N_15  and  C_14 
REMARK    7  A    between atoms: N_20  and  C_19 
REMARK       I    between atoms: C_22  and  N_20 
ROOT
ATOM      1  C   LIG d   1      -0.684  80.774 112.441  0.00  0.00     0.161 C 
ATOM      2  C   LIG d   1      -1.342  79.543 112.279  0.00  0.00     0.016 C 
ATOM      3  C   LIG d   1      -2.157  78.958 113.276  0.00  0.00     0.038 C 
ATOM      4  C   LIG d   1      -2.493  79.642 114.453  0.00  0.00     0.028 C 
ATOM      5  C   LIG d   1      -1.448  80.668 114.878  0.00  0.00    -0.047 C 
ATOM      6  C   LIG d   1      -1.129  81.586 113.676  0.00  0.00     0.091 C 
ENDROOT
BRANCH   1   7
ATOM      7  O   LIG d   1      -0.824  81.564 111.244  0.00  0.00    -0.368 OA
BRANCH   7   8
ATOM      8  C   LIG d   1       0.393  81.814 110.500  0.00  0.00     0.119 C 
BRANCH   8   9
ATOM      9  C   LIG d   1       1.466  80.842 111.027  0.00  0.00     0.028 C 
ATOM     10  C   LIG d   1       1.911  79.826 109.961  0.00  0.00     0.006 C 
ENDBRANCH   8   9
BRANCH   8  11
ATOM     11  C   LIG d   1       0.942  83.216 110.783  0.00  0.00     0.028 C 
ATOM     12  C   LIG d   1       2.334  83.445 110.173  0.00  0.00     0.006 C 
ENDBRANCH   8  11
ENDBRANCH   7   8
ENDBRANCH   1   7
BRANCH   6  13
ATOM     13  N   LIG d   1      -0.054  82.566 113.980  0.00  0.00    -0.311 N 
ATOM     14  C   LIG d   1      -0.290  83.834 114.311  0.00  0.00     0.210 C 
ATOM     15  C   LIG d   1       0.962  84.680 114.566  0.00  0.00     0.109 C 
ATOM     16  O   LIG d   1      -1.418  84.331 114.450  0.00  0.00    -0.276 OA
ATOM     17  H   LIG d   1       0.891  82.239 113.922  0.00  0.00     0.149 HD
ENDBRANCH   6  13
BRANCH   5  18
ATOM     18  N   LIG d   1      -1.989  81.401 116.038  0.00  0.00     0.381 N 
ATOM     19  H   LIG d   1      -1.259  81.927 116.476  0.00  0.00    -0.090 HD
ATOM     20  H   LIG d   1      -2.344  80.739 116.704  0.00  0.00    -0.090 HD
ATOM     21  H   LIG d   1      -2.718  82.013 115.745  0.00  0.00    -0.090 HD
ENDBRANCH   5  18
BRANCH   3  22
ATOM     22  C   LIG d   1      -2.612  77.658 113.116  0.00  0.00     0.382 C 
ATOM     23  O   LIG d   1      -2.807  77.199 111.964  0.00  0.00    -0.241 OA
ATOM     24  O   LIG d   1      -2.872  76.954 114.109  0.00  0.00    -0.241 OA
ENDBRANCH   3  22
TORSDOF 7
ENDMDL
MODEL 8
REMARK VINA RESULT:      -4.4      2.394      3.550
REMARK  7 active torsions:
REMARK  status: ('A' for Active; 'I' for Inactive)
REMARK    1  A    between atoms: C_2  and  C_3 
REMARK    2  A    between atoms: C_3  and  O_6 
REMARK    3  A    between atoms: C_3  and  C_4 
REMARK    4  A    between atoms: C_7  and  O_6 
REMARK    5  A    between atoms: C_9  and  C_10 
REMARK    6  A    between atoms: N_15  and  C_14 
REMARK    7  A    between atoms: N_20  and  C_19 
REMARK       I    between atoms: C_22  and  N_20 
ROOT
ATOM      1  C   LIG d   1      -2.438  81.110 113.697  0.00  0.00     0.161 C 
ATOM      2  C   LIG d   1      -2.859  79.857 114.171  0.00  0.00     0.016 C 
ATOM      3  C   LIG d   1      -2.449  78.631 113.600  0.00  0.00     0.038 C 
ATOM      4  C   LIG d   1      -1.462  78.570 112.604  0.00  0.00     0.028 C 
ATOM      5  C   LIG d   1      -1.383  79.832 111.752  0.00  0.00    -0.047 C 
ATOM      6  C   LIG d   1      -1.275  81.061 112.684  0.00  0.00     0.091 C 
ENDROOT
BRANCH   1   7
ATOM      7  O   LIG d   1      -2.098  81.963 114.808  0.00  0.00    -0.368 OA
BRANCH   7   8
ATOM      8  C   LIG d   1      -0.695  82.016 115.166  0.00  0.00     0.119 C 
BRANCH   8   9
ATOM      9  C   LIG d   1      -0.516  81.195 116.458  0.00  0.00     0.028 C 
ATOM     10  C   LIG d   1       0.266  79.892 116.222  0.00  0.00     0.006 C 
ENDBRANCH   8   9
BRANCH   8  11
ATOM     11  C   LIG d   1      -0.265  83.440 115.527  0.00  0.00     0.028 C 
ATOM     12  C   LIG d   1      -0.223  83.684 117.044  0.00  0.00     0.006 C 
ENDBRANCH   8  11
ENDBRANCH   7   8
ENDBRANCH   1   7
BRANCH   6  13
ATOM     13  N   LIG d   1      -1.278  82.344 111.933  0.00  0.00    -0.311 N 
ATOM     14  C   LIG d   1      -0.167  82.978 111.562  0.00  0.00     0.210 C 
ATOM     15  C   LIG d   1      -0.394  84.296 110.815  0.00  0.00     0.109 C 
ATOM     16  O   LIG d   1       0.984  82.558 111.752  0.00  0.00    -0.276 OA
ATOM     17  H   LIG d   1      -2.170  82.740 111.710  0.00  0.00     0.149 HD
ENDBRANCH   6  13
BRANCH   5  18
ATOM     18  N   LIG d   1      -0.226  79.689 110.849  0.00  0.00     0.381 N 
ATOM     19  H   LIG d   1      -0.466  79.090 110.084  0.00  0.00    -0.090 HD
ATOM     20  H   LIG d   1       0.532  79.265 111.355  0.00  0.00    -0.090 HD
ATOM     21  H   LIG d   1       0.052  80.582 110.506  0.00  0.00    -0.090 HD
ENDBRANCH   5  18
BRANCH   3  22
ATOM     22  C   LIG d   1      -3.056  77.449 113.997  0.00  0.00     0.382 C 
ATOM     23  O   LIG d   1      -3.271  77.233 115.214  0.00  0.00    -0.241 OA
ATOM     24  O   LIG d   1      -3.353  76.578 113.158  0.00  0.00    -0.241 OA
ENDBRANCH   3  22
TORSDOF 7
ENDMDL
MODEL 9
REMARK VINA RESULT:      -4.3      3.079      5.082
REMARK  7 active torsions:
REMARK  status: ('A' for Active; 'I' for Inactive)
REMARK    1  A    between atoms: C_2  and  C_3 
REMARK    2  A    between atoms: C_3  and  O_6 
REMARK    3  A    between atoms: C_3  and  C_4 
REMARK    4  A    between atoms: C_7  and  O_6 
REMARK    5  A    between atoms: C_9  and  C_10 
REMARK    6  A    between atoms: N_15  and  C_14 
REMARK    7  A    between atoms: N_20  and  C_19 
REMARK       I    between atoms: C_22  and  N_20 
ROOT
ATOM      1  C   LIG d   1      -1.066  80.869 114.837  0.00  0.00     0.161 C 
ATOM      2  C   LIG d   1      -0.965  82.211 114.432  0.00  0.00     0.016 C 
ATOM      3  C   LIG d   1      -0.806  82.607 113.084  0.00  0.00     0.038 C 
ATOM      4  C   LIG d   1      -0.890  81.689 112.027  0.00  0.00     0.028 C 
ATOM      5  C   LIG d   1      -0.486  80.272 112.421  0.00  0.00    -0.047 C 
ATOM      6  C   LIG d   1      -1.271  79.861 113.687  0.00  0.00     0.091 C 
ENDROOT
BRANCH   1   7
ATOM      7  O   LIG d   1      -2.114  80.732 115.816  0.00  0.00    -0.368 OA
BRANCH   7   8
ATOM      8  C   LIG d   1      -1.710  80.846 117.203  0.00  0.00     0.119 C 
BRANCH   8   9
ATOM      9  C   LIG d   1      -2.450  79.748 117.992  0.00  0.00     0.028 C 
ATOM     10  C   LIG d   1      -3.074  78.685 117.073  0.00  0.00     0.006 C 
ENDBRANCH   8   9
BRANCH   8  11
ATOM     11  C   LIG d   1      -2.178  82.170 117.814  0.00  0.00     0.028 C 
ATOM     12  C   LIG d   1      -1.176  82.746 118.827  0.00  0.00     0.006 C 
ENDBRANCH   8  11
ENDBRANCH   7   8
ENDBRANCH   1   7
BRANCH   6  13
ATOM     13  N   LIG d   1      -0.874  78.520 114.190  0.00  0.00    -0.311 N 
ATOM     14  C   LIG d   1      -1.490  77.393 113.837  0.00  0.00     0.210 C 
ATOM     15  C   LIG d   1      -0.934  76.121 114.486  0.00  0.00     0.109 C 
ATOM     16  O   LIG d   1      -2.423  77.322 113.024  0.00  0.00    -0.276 OA
ATOM     17  H   LIG d   1      -0.105  78.482 114.830  0.00  0.00     0.149 HD
ENDBRANCH   6  13
BRANCH   5  18
ATOM     18  N   LIG d   1      -0.751  79.395 111.265  0.00  0.00     0.381 N 
ATOM     19  H   LIG d   1      -1.504  79.768 110.722  0.00  0.00    -0.090 HD
ATOM     20  H   LIG d   1      -1.024  78.488 111.601  0.00  0.00    -0.090 HD
ATOM     21  H   LIG d   1       0.067  79.316 110.702  0.00  0.00    -0.090 HD
ENDBRANCH   5  18
BRANCH   3  22
ATOM     22  C   LIG d   1      -0.521  83.931 112.786  0.00  0.00     0.382 C 
ATOM     23  O   LIG d   1      -0.837  84.404 111.668  0.00  0.00    -0.241 OA
ATOM     24  O   LIG d   1       0.089  84.645 113.604  0.00  0.00    -0.241 OA
ENDBRANCH   3  22
TORSDOF 7
ENDMDL
