MODEL 1
REMARK VINA RESULT:      -4.4      0.000      0.000
REMARK  7 active torsions:
REMARK  status: ('A' for Active; 'I' for Inactive)
REMARK    1  A    between atoms: C_2  and  C_3 
REMARK    2  A    between atoms: C_3  and  O_6 
REMARK    3  A    between atoms: C_3  and  C_4 
REMARK    4  A    between atoms: C_7  and  O_6 
REMARK    5  A    between atoms: C_9  and  C_10 
REMARK    6  A    between atoms: N_15  and  C_14 
REMARK    7  A    between atoms: N_20  and  C_19 
REMARK       I    between atoms: C_22  and  N_20 
ROOT
ATOM      1  C   LIG d   1      -1.509  80.104 114.548  0.00  0.00     0.161 C 
ATOM      2  C   LIG d   1      -2.056  78.942 115.118  0.00  0.00     0.016 C 
ATOM      3  C   LIG d   1      -2.387  77.789 114.370  0.00  0.00     0.038 C 
ATOM      4  C   LIG d   1      -2.051  77.664 113.014  0.00  0.00     0.028 C 
ATOM      5  C   LIG d   1      -1.958  79.001 112.287  0.00  0.00    -0.047 C 
ATOM      6  C   LIG d   1      -1.033  79.945 113.088  0.00  0.00     0.091 C 
ENDROOT
BRANCH   1   7
ATOM      7  O   LIG d   1      -0.435  80.595 115.374  0.00  0.00    -0.368 OA
BRANCH   7   8
ATOM      8  C   LIG d   1      -0.272  79.948 116.660  0.00  0.00     0.119 C 
BRANCH   8   9
ATOM      9  C   LIG d   1      -0.674  80.965 117.745  0.00  0.00     0.028 C 
ATOM     10  C   LIG d   1      -1.942  80.542 118.506  0.00  0.00     0.006 C 
ENDBRANCH   8   9
BRANCH   8  11
ATOM     11  C   LIG d   1       1.198  79.619 116.936  0.00  0.00     0.028 C 
ATOM     12  C   LIG d   1       2.167  80.558 116.199  0.00  0.00     0.006 C 
ENDBRANCH   8  11
ENDBRANCH   7   8
ENDBRANCH   1   7
BRANCH   6  13
ATOM     13  N   LIG d   1      -0.954  81.303 112.491  0.00  0.00    -0.311 N 
ATOM     14  C   LIG d   1      -0.012  81.668 111.622  0.00  0.00     0.210 C 
ATOM     15  C   LIG d   1      -0.101  83.120 111.144  0.00  0.00     0.109 C 
ATOM     16  O   LIG d   1       0.869  80.917 111.177  0.00  0.00    -0.276 OA
ATOM     17  H   LIG d   1      -1.648  81.967 112.772  0.00  0.00     0.149 HD
ENDBRANCH   6  13
BRANCH   5  18
ATOM     18  N   LIG d   1      -1.468  78.732 110.922  0.00  0.00     0.381 N 
ATOM     19  H   LIG d   1      -1.991  79.273 110.262  0.00  0.00    -0.090 HD
ATOM     20  H   LIG d   1      -1.606  77.759 110.712  0.00  0.00    -0.090 HD
ATOM     21  H   LIG d   1      -0.500  78.960 110.856  0.00  0.00    -0.090 HD
ENDBRANCH   5  18
BRANCH   3  22
ATOM     22  C   LIG d   1      -3.098  76.761 114.971  0.00  0.00     0.382 C 
ATOM     23  O   LIG d   1      -3.440  75.759 114.298  0.00  0.00    -0.241 OA
ATOM     24  O   LIG d   1      -3.440  76.844 116.166  0.00  0.00    -0.241 OA
ENDBRANCH   3  22
TORSDOF 7
ENDMDL
MODEL 2
REMARK VINA RESULT:      -4.3      2.014      4.990
REMARK  7 active torsions:
REMARK  status: ('A' for Active; 'I' for Inactive)
REMARK    1  A    between atoms: C_2  and  C_3 
REMARK    2  A    between atoms: C_3  and  O_6 
REMARK    3  A    between atoms: C_3  and  C_4 
REMARK    4  A    between atoms: C_7  and  O_6 
REMARK    5  A    between atoms: C_9  and  C_10 
REMARK    6  A    between atoms: N_15  and  C_14 
REMARK    7  A    between atoms: N_20  and  C_19 
REMARK       I    between atoms: C_22  and  N_20 
ROOT
ATOM      1  C   LIG d   1       0.243  80.407 113.205  0.00  0.00     0.161 C 
ATOM      2  C   LIG d   1       1.201  81.317 112.727  0.00  0.00     0.016 C 
ATOM      3  C   LIG d   1       1.354  81.638 111.358  0.00  0.00     0.038 C 
ATOM      4  C   LIG d   1       0.453  81.183 110.385  0.00  0.00     0.028 C 
ATOM      5  C   LIG d   1      -0.220  79.865 110.751  0.00  0.00    -0.047 C 
ATOM      6  C   LIG d   1      -0.822  79.986 112.170  0.00  0.00     0.091 C 
ENDROOT
BRANCH   1   7
ATOM      7  O   LIG d   1      -0.390  80.940 114.385  0.00  0.00    -0.368 OA
BRANCH   7   8
ATOM      8  C   LIG d   1      -0.179  80.197 115.611  0.00  0.00     0.119 C 
BRANCH   8   9
ATOM      9  C   LIG d   1      -1.535  80.106 116.337  0.00  0.00     0.028 C 
ATOM     10  C   LIG d   1      -1.721  78.765 117.067  0.00  0.00     0.006 C 
ENDBRANCH   8   9
BRANCH   8  11
ATOM     11  C   LIG d   1       0.744  80.955 116.571  0.00  0.00     0.028 C 
ATOM     12  C   LIG d   1       2.234  80.725 116.271  0.00  0.00     0.006 C 
ENDBRANCH   8  11
ENDBRANCH   7   8
ENDBRANCH   1   7
BRANCH   6  13
ATOM     13  N   LIG d   1      -1.426  78.712 112.640  0.00  0.00    -0.311 N 
ATOM     14  C   LIG d   1      -2.646  78.631 113.168  0.00  0.00     0.210 C 
ATOM     15  C   LIG d   1      -3.069  77.225 113.606  0.00  0.00     0.109 C 
ATOM     16  O   LIG d   1      -3.431  79.584 113.287  0.00  0.00    -0.276 OA
ATOM     17  H   LIG d   1      -0.870  77.884 112.553  0.00  0.00     0.149 HD
ENDBRANCH   6  13
BRANCH   5  18
ATOM     18  N   LIG d   1      -1.233  79.579 109.717  0.00  0.00     0.381 N 
ATOM     19  H   LIG d   1      -0.814  79.632 108.810  0.00  0.00    -0.090 HD
ATOM     20  H   LIG d   1      -1.958  80.272 109.771  0.00  0.00    -0.090 HD
ATOM     21  H   LIG d   1      -1.619  78.672 109.860  0.00  0.00    -0.090 HD
ENDBRANCH   5  18
BRANCH   3  22
ATOM     22  C   LIG d   1       2.443  82.392 110.947  0.00  0.00     0.382 C 
ATOM     23  O   LIG d   1       3.563  81.847 110.800  0.00  0.00    -0.241 OA
ATOM     24  O   LIG d   1       2.329  83.619 110.765  0.00  0.00    -0.241 OA
ENDBRANCH   3  22
TORSDOF 7
ENDMDL
MODEL 3
REMARK VINA RESULT:      -4.3      2.388      3.101
REMARK  7 active torsions:
REMARK  status: ('A' for Active; 'I' for Inactive)
REMARK    1  A    between atoms: C_2  and  C_3 
REMARK    2  A    between atoms: C_3  and  O_6 
REMARK    3  A    between atoms: C_3  and  C_4 
REMARK    4  A    between atoms: C_7  and  O_6 
REMARK    5  A    between atoms: C_9  and  C_10 
REMARK    6  A    between atoms: N_15  and  C_14 
REMARK    7  A    between atoms: N_20  and  C_19 
REMARK       I    between atoms: C_22  and  N_20 
ROOT
ATOM      1  C   LIG d   1       0.646  81.190 113.366  0.00  0.00     0.161 C 
ATOM      2  C   LIG d   1      -0.344  80.236 113.654  0.00  0.00     0.016 C 
ATOM      3  C   LIG d   1      -1.138  79.615 112.663  0.00  0.00     0.038 C 
ATOM      4  C   LIG d   1      -0.890  79.795 111.294  0.00  0.00     0.028 C 
ATOM      5  C   LIG d   1      -0.234  81.133 110.968  0.00  0.00    -0.047 C 
ATOM      6  C   LIG d   1       1.007  81.316 111.871  0.00  0.00     0.091 C 
ENDROOT
BRANCH   1   7
ATOM      7  O   LIG d   1       1.828  80.917 114.145  0.00  0.00    -0.368 OA
BRANCH   7   8
ATOM      8  C   LIG d   1       1.748  81.235 115.557  0.00  0.00     0.119 C 
BRANCH   8   9
ATOM      9  C   LIG d   1       2.256  82.679 115.735  0.00  0.00     0.028 C 
ATOM     10  C   LIG d   1       3.025  82.872 117.053  0.00  0.00     0.006 C 
ENDBRANCH   8   9
BRANCH   8  11
ATOM     11  C   LIG d   1       2.703  80.365 116.379  0.00  0.00     0.028 C 
ATOM     12  C   LIG d   1       1.968  79.368 117.289  0.00  0.00     0.006 C 
ENDBRANCH   8  11
ENDBRANCH   7   8
ENDBRANCH   1   7
BRANCH   6  13
ATOM     13  N   LIG d   1       1.660  82.637 111.676  0.00  0.00    -0.311 N 
ATOM     14  C   LIG d   1       2.676  82.836 110.839  0.00  0.00     0.210 C 
ATOM     15  C   LIG d   1       3.215  84.270 110.805  0.00  0.00     0.109 C 
ATOM     16  O   LIG d   1       3.162  81.969 110.097  0.00  0.00    -0.276 OA
ATOM     17  H   LIG d   1       1.308  83.404 112.216  0.00  0.00     0.149 HD
ENDBRANCH   6  13
BRANCH   5  18
ATOM     18  N   LIG d   1       0.093  81.130 109.530  0.00  0.00     0.381 N 
ATOM     19  H   LIG d   1       0.700  81.897 109.319  0.00  0.00    -0.090 HD
ATOM     20  H   LIG d   1      -0.755  81.245 109.003  0.00  0.00    -0.090 HD
ATOM     21  H   LIG d   1       0.533  80.272 109.281  0.00  0.00    -0.090 HD
ENDBRANCH   5  18
BRANCH   3  22
ATOM     22  C   LIG d   1      -2.220  78.834 113.039  0.00  0.00     0.382 C 
ATOM     23  O   LIG d   1      -2.199  77.596 112.838  0.00  0.00    -0.241 OA
ATOM     24  O   LIG d   1      -3.236  79.358 113.535  0.00  0.00    -0.241 OA
ENDBRANCH   3  22
TORSDOF 7
ENDMDL
MODEL 4
REMARK VINA RESULT:      -4.2      2.557      5.237
REMARK  7 active torsions:
REMARK  status: ('A' for Active; 'I' for Inactive)
REMARK    1  A    between atoms: C_2  and  C_3 
REMARK    2  A    between atoms: C_3  and  O_6 
REMARK    3  A    between atoms: C_3  and  C_4 
REMARK    4  A    between atoms: C_7  and  O_6 
REMARK    5  A    between atoms: C_9  and  C_10 
REMARK    6  A    between atoms: N_15  and  C_14 
REMARK    7  A    between atoms: N_20  and  C_19 
REMARK       I    between atoms: C_22  and  N_20 
ROOT
ATOM      1  C   LIG d   1      -2.906  78.092 115.599  0.00  0.00     0.161 C 
ATOM      2  C   LIG d   1      -2.940  77.880 114.211  0.00  0.00     0.016 C 
ATOM      3  C   LIG d   1      -2.106  78.566 113.298  0.00  0.00     0.038 C 
ATOM      4  C   LIG d   1      -1.069  79.407 113.730  0.00  0.00     0.028 C 
ATOM      5  C   LIG d   1      -1.328  80.036 115.094  0.00  0.00    -0.047 C 
ATOM      6  C   LIG d   1      -1.706  78.923 116.097  0.00  0.00     0.091 C 
ENDROOT
BRANCH   1   7
ATOM      7  O   LIG d   1      -2.960  76.827 116.288  0.00  0.00    -0.368 OA
BRANCH   7   8
ATOM      8  C   LIG d   1      -1.714  76.093 116.372  0.00  0.00     0.119 C 
BRANCH   8   9
ATOM      9  C   LIG d   1      -1.946  74.710 115.735  0.00  0.00     0.028 C 
ATOM     10  C   LIG d   1      -3.439  74.401 115.530  0.00  0.00     0.006 C 
ENDBRANCH   8   9
BRANCH   8  11
ATOM     11  C   LIG d   1      -1.332  75.810 117.828  0.00  0.00     0.028 C 
ATOM     12  C   LIG d   1      -2.496  76.041 118.805  0.00  0.00     0.006 C 
ENDBRANCH   8  11
ENDBRANCH   7   8
ENDBRANCH   1   7
BRANCH   6  13
ATOM     13  N   LIG d   1      -2.057  79.462 117.437  0.00  0.00    -0.311 N 
ATOM     14  C   LIG d   1      -1.192  79.536 118.448  0.00  0.00     0.210 C 
ATOM     15  C   LIG d   1      -1.766  80.105 119.749  0.00  0.00     0.109 C 
ATOM     16  O   LIG d   1       0.003  79.213 118.380  0.00  0.00    -0.276 OA
ATOM     17  H   LIG d   1      -2.999  79.775 117.570  0.00  0.00     0.149 HD
ENDBRANCH   6  13
BRANCH   5  18
ATOM     18  N   LIG d   1      -0.111  80.775 115.482  0.00  0.00     0.381 N 
ATOM     19  H   LIG d   1      -0.279  81.286 116.326  0.00  0.00    -0.090 HD
ATOM     20  H   LIG d   1       0.116  81.432 114.756  0.00  0.00    -0.090 HD
ATOM     21  H   LIG d   1       0.646  80.141 115.614  0.00  0.00    -0.090 HD
ENDBRANCH   5  18
BRANCH   3  22
ATOM     22  C   LIG d   1      -2.331  78.445 111.936  0.00  0.00     0.382 C 
ATOM     23  O   LIG d   1      -1.794  79.250 111.137  0.00  0.00    -0.241 OA
ATOM     24  O   LIG d   1      -3.100  77.568 111.498  0.00  0.00    -0.241 OA
ENDBRANCH   3  22
TORSDOF 7
ENDMDL
MODEL 5
REMARK VINA RESULT:      -4.1      2.719      3.728
REMARK  7 active torsions:
REMARK  status: ('A' for Active; 'I' for Inactive)
REMARK    1  A    between atoms: C_2  and  C_3 
REMARK    2  A    between atoms: C_3  and  O_6 
REMARK    3  A    between atoms: C_3  and  C_4 
REMARK    4  A    between atoms: C_7  and  O_6 
REMARK    5  A    between atoms: C_9  and  C_10 
REMARK    6  A    between atoms: N_15  and  C_14 
REMARK    7  A    between atoms: N_20  and  C_19 
REMARK       I    between atoms: C_22  and  N_20 
ROOT
ATOM      1  C   LIG d   1      -2.415  77.880 115.918  0.00  0.00     0.161 C 
ATOM      2  C   LIG d   1      -2.680  77.106 117.060  0.00  0.00     0.016 C 
ATOM      3  C   LIG d   1      -2.037  75.878 117.335  0.00  0.00     0.038 C 
ATOM      4  C   LIG d   1      -0.967  75.411 116.556  0.00  0.00     0.028 C 
ATOM      5  C   LIG d   1      -1.007  75.905 115.114  0.00  0.00    -0.047 C 
ATOM      6  C   LIG d   1      -1.173  77.442 115.114  0.00  0.00     0.091 C 
ENDROOT
BRANCH   1   7
ATOM      7  O   LIG d   1      -2.311  79.270 116.283  0.00  0.00    -0.368 OA
BRANCH   7   8
ATOM      8  C   LIG d   1      -1.255  79.608 117.215  0.00  0.00     0.119 C 
BRANCH   8   9
ATOM      9  C   LIG d   1      -1.892  80.406 118.368  0.00  0.00     0.028 C 
ATOM     10  C   LIG d   1      -3.423  80.491 118.247  0.00  0.00     0.006 C 
ENDBRANCH   8   9
BRANCH   8  11
ATOM     11  C   LIG d   1      -0.234  80.557 116.580  0.00  0.00     0.028 C 
ATOM     12  C   LIG d   1       0.283  81.620 117.563  0.00  0.00     0.006 C 
ENDBRANCH   8  11
ENDBRANCH   7   8
ENDBRANCH   1   7
BRANCH   6  13
ATOM     13  N   LIG d   1      -1.305  77.998 113.743  0.00  0.00    -0.311 N 
ATOM     14  C   LIG d   1      -2.325  77.718 112.933  0.00  0.00     0.210 C 
ATOM     15  C   LIG d   1      -2.257  78.381 111.554  0.00  0.00     0.109 C 
ATOM     16  O   LIG d   1      -3.296  77.009 113.238  0.00  0.00    -0.276 OA
ATOM     17  H   LIG d   1      -0.577  78.608 113.426  0.00  0.00     0.149 HD
ENDBRANCH   6  13
BRANCH   5  18
ATOM     18  N   LIG d   1       0.235  75.458 114.455  0.00  0.00     0.381 N 
ATOM     19  H   LIG d   1       0.096  75.415 113.465  0.00  0.00    -0.090 HD
ATOM     20  H   LIG d   1       0.462  74.535 114.782  0.00  0.00    -0.090 HD
ATOM     21  H   LIG d   1       0.978  76.086 114.667  0.00  0.00    -0.090 HD
ENDBRANCH   5  18
BRANCH   3  22
ATOM     22  C   LIG d   1      -2.489  75.083 118.377  0.00  0.00     0.382 C 
ATOM     23  O   LIG d   1      -2.024  75.238 119.532  0.00  0.00    -0.241 OA
ATOM     24  O   LIG d   1      -3.324  74.182 118.168  0.00  0.00    -0.241 OA
ENDBRANCH   3  22
TORSDOF 7
ENDMDL
MODEL 6
REMARK VINA RESULT:      -4.0      2.859      5.939
REMARK  7 active torsions:
REMARK  status: ('A' for Active; 'I' for Inactive)
REMARK    1  A    between atoms: C_2  and  C_3 
REMARK    2  A    between atoms: C_3  and  O_6 
REMARK    3  A    between atoms: C_3  and  C_4 
REMARK    4  A    between atoms: C_7  and  O_6 
REMARK    5  A    between atoms: C_9  and  C_10 
REMARK    6  A    between atoms: N_15  and  C_14 
REMARK    7  A    between atoms: N_20  and  C_19 
REMARK       I    between atoms: C_22  and  N_20 
ROOT
ATOM      1  C   LIG d   1      -2.012  79.089 116.126  0.00  0.00     0.161 C 
ATOM      2  C   LIG d   1      -1.381  80.292 116.486  0.00  0.00     0.016 C 
ATOM      3  C   LIG d   1      -0.057  80.360 116.975  0.00  0.00     0.038 C 
ATOM      4  C   LIG d   1       0.785  79.238 116.995  0.00  0.00     0.028 C 
ATOM      5  C   LIG d   1       0.032  77.918 117.117  0.00  0.00    -0.047 C 
ATOM      6  C   LIG d   1      -1.072  77.869 116.036  0.00  0.00     0.091 C 
ENDROOT
BRANCH   1   7
ATOM      7  O   LIG d   1      -2.726  79.264 114.887  0.00  0.00    -0.368 OA
BRANCH   7   8
ATOM      8  C   LIG d   1      -2.007  78.907 113.681  0.00  0.00     0.119 C 
BRANCH   8   9
ATOM      9  C   LIG d   1      -1.807  80.197 112.862  0.00  0.00     0.028 C 
ATOM     10  C   LIG d   1      -2.951  81.205 113.067  0.00  0.00     0.006 C 
ENDBRANCH   8   9
BRANCH   8  11
ATOM     11  C   LIG d   1      -2.841  77.985 112.787  0.00  0.00     0.028 C 
ATOM     12  C   LIG d   1      -2.417  78.042 111.311  0.00  0.00     0.006 C 
ENDBRANCH   8  11
ENDBRANCH   7   8
ENDBRANCH   1   7
BRANCH   6  13
ATOM     13  N   LIG d   1      -1.912  76.646 116.139  0.00  0.00    -0.311 N 
ATOM     14  C   LIG d   1      -1.718  75.559 115.394  0.00  0.00     0.210 C 
ATOM     15  C   LIG d   1      -2.710  74.419 115.645  0.00  0.00     0.109 C 
ATOM     16  O   LIG d   1      -0.800  75.420 114.572  0.00  0.00    -0.276 OA
ATOM     17  H   LIG d   1      -2.661  76.662 116.804  0.00  0.00     0.149 HD
ENDBRANCH   6  13
BRANCH   5  18
ATOM     18  N   LIG d   1       1.017  76.829 116.987  0.00  0.00     0.381 N 
ATOM     19  H   LIG d   1       1.943  77.197 117.079  0.00  0.00    -0.090 HD
ATOM     20  H   LIG d   1       0.930  76.419 116.074  0.00  0.00    -0.090 HD
ATOM     21  H   LIG d   1       0.856  76.137 117.687  0.00  0.00    -0.090 HD
ENDBRANCH   5  18
BRANCH   3  22
ATOM     22  C   LIG d   1       0.426  81.555 117.489  0.00  0.00     0.382 C 
ATOM     23  O   LIG d   1       0.300  81.808 118.711  0.00  0.00    -0.241 OA
ATOM     24  O   LIG d   1       0.945  82.402 116.737  0.00  0.00    -0.241 OA
ENDBRANCH   3  22
TORSDOF 7
ENDMDL
MODEL 7
REMARK VINA RESULT:      -3.9      2.368      3.242
REMARK  7 active torsions:
REMARK  status: ('A' for Active; 'I' for Inactive)
REMARK    1  A    between atoms: C_2  and  C_3 
REMARK    2  A    between atoms: C_3  and  O_6 
REMARK    3  A    between atoms: C_3  and  C_4 
REMARK    4  A    between atoms: C_7  and  O_6 
REMARK    5  A    between atoms: C_9  and  C_10 
REMARK    6  A    between atoms: N_15  and  C_14 
REMARK    7  A    between atoms: N_20  and  C_19 
REMARK       I    between atoms: C_22  and  N_20 
ROOT
ATOM      1  C   LIG d   1      -3.281  78.650 116.814  0.00  0.00     0.161 C 
ATOM      2  C   LIG d   1      -3.148  77.540 117.665  0.00  0.00     0.016 C 
ATOM      3  C   LIG d   1      -2.412  76.382 117.323  0.00  0.00     0.038 C 
ATOM      4  C   LIG d   1      -1.629  76.317 116.161  0.00  0.00     0.028 C 
ATOM      5  C   LIG d   1      -2.137  77.214 115.037  0.00  0.00    -0.047 C 
ATOM      6  C   LIG d   1      -2.342  78.643 115.590  0.00  0.00     0.091 C 
ENDROOT
BRANCH   1   7
ATOM      7  O   LIG d   1      -3.111  79.866 117.569  0.00  0.00    -0.368 OA
BRANCH   7   8
ATOM      8  C   LIG d   1      -2.056  79.858 118.562  0.00  0.00     0.119 C 
BRANCH   8   9
ATOM      9  C   LIG d   1      -2.663  80.360 119.886  0.00  0.00     0.028 C 
ATOM     10  C   LIG d   1      -3.308  81.750 119.747  0.00  0.00     0.006 C 
ENDBRANCH   8   9
BRANCH   8  11
ATOM     11  C   LIG d   1      -0.956  80.865 118.213  0.00  0.00     0.028 C 
ATOM     12  C   LIG d   1       0.244  80.214 117.505  0.00  0.00     0.006 C 
ENDBRANCH   8  11
ENDBRANCH   7   8
ENDBRANCH   1   7
BRANCH   6  13
ATOM     13  N   LIG d   1      -2.918  79.565 114.576  0.00  0.00    -0.311 N 
ATOM     14  C   LIG d   1      -2.183  80.395 113.838  0.00  0.00     0.210 C 
ATOM     15  C   LIG d   1      -2.978  81.273 112.868  0.00  0.00     0.109 C 
ATOM     16  O   LIG d   1      -0.945  80.464 113.873  0.00  0.00    -0.276 OA
ATOM     17  H   LIG d   1      -3.913  79.552 114.461  0.00  0.00     0.149 HD
ENDBRANCH   6  13
BRANCH   5  18
ATOM     18  N   LIG d   1      -1.153  77.154 113.940  0.00  0.00     0.381 N 
ATOM     19  H   LIG d   1      -1.059  76.211 113.620  0.00  0.00    -0.090 HD
ATOM     20  H   LIG d   1      -0.261  77.460 114.286  0.00  0.00    -0.090 HD
ATOM     21  H   LIG d   1      -1.445  77.739 113.188  0.00  0.00    -0.090 HD
ENDBRANCH   5  18
BRANCH   3  22
ATOM     22  C   LIG d   1      -2.487  75.257 118.130  0.00  0.00     0.382 C 
ATOM     23  O   LIG d   1      -3.117  74.245 117.738  0.00  0.00    -0.241 OA
ATOM     24  O   LIG d   1      -1.971  75.256 119.264  0.00  0.00    -0.241 OA
ENDBRANCH   3  22
TORSDOF 7
ENDMDL
MODEL 8
REMARK VINA RESULT:      -3.9      3.584      5.224
REMARK  7 active torsions:
REMARK  status: ('A' for Active; 'I' for Inactive)
REMARK    1  A    between atoms: C_2  and  C_3 
REMARK    2  A    between atoms: C_3  and  O_6 
REMARK    3  A    between atoms: C_3  and  C_4 
REMARK    4  A    between atoms: C_7  and  O_6 
REMARK    5  A    between atoms: C_9  and  C_10 
REMARK    6  A    between atoms: N_15  and  C_14 
REMARK    7  A    between atoms: N_20  and  C_19 
REMARK       I    between atoms: C_22  and  N_20 
ROOT
ATOM      1  C   LIG d   1      -0.209  78.015 116.543  0.00  0.00     0.161 C 
ATOM      2  C   LIG d   1      -1.320  78.364 115.757  0.00  0.00     0.016 C 
ATOM      3  C   LIG d   1      -2.065  77.428 115.003  0.00  0.00     0.038 C 
ATOM      4  C   LIG d   1      -1.840  76.047 115.106  0.00  0.00     0.028 C 
ATOM      5  C   LIG d   1      -0.408  75.693 115.494  0.00  0.00    -0.047 C 
ATOM      6  C   LIG d   1      -0.017  76.499 116.755  0.00  0.00     0.091 C 
ENDROOT
BRANCH   1   7
ATOM      7  O   LIG d   1      -0.277  78.693 117.813  0.00  0.00    -0.368 OA
BRANCH   7   8
ATOM      8  C   LIG d   1       0.399  79.972 117.890  0.00  0.00     0.119 C 
BRANCH   8   9
ATOM      9  C   LIG d   1       1.752  79.740 118.590  0.00  0.00     0.028 C 
ATOM     10  C   LIG d   1       2.932  79.745 117.603  0.00  0.00     0.006 C 
ENDBRANCH   8   9
BRANCH   8  11
ATOM     11  C   LIG d   1      -0.360  80.951 118.790  0.00  0.00     0.028 C 
ATOM     12  C   LIG d   1      -1.883  80.879 118.598  0.00  0.00     0.006 C 
ENDBRANCH   8  11
ENDBRANCH   7   8
ENDBRANCH   1   7
BRANCH   6  13
ATOM     13  N   LIG d   1       1.397  76.276 117.154  0.00  0.00    -0.311 N 
ATOM     14  C   LIG d   1       1.782  76.085 118.414  0.00  0.00     0.210 C 
ATOM     15  C   LIG d   1       3.289  75.894 118.609  0.00  0.00     0.109 C 
ATOM     16  O   LIG d   1       1.014  76.023 119.387  0.00  0.00    -0.276 OA
ATOM     17  H   LIG d   1       2.083  76.279 116.424  0.00  0.00     0.149 HD
ENDBRANCH   6  13
BRANCH   5  18
ATOM     18  N   LIG d   1      -0.349  74.234 115.700  0.00  0.00     0.381 N 
ATOM     19  H   LIG d   1      -1.197  73.917 116.126  0.00  0.00    -0.090 HD
ATOM     20  H   LIG d   1       0.414  74.023 116.319  0.00  0.00    -0.090 HD
ATOM     21  H   LIG d   1      -0.216  73.772 114.827  0.00  0.00    -0.090 HD
ENDBRANCH   5  18
BRANCH   3  22
ATOM     22  C   LIG d   1      -3.022  77.874 114.105  0.00  0.00     0.382 C 
ATOM     23  O   LIG d   1      -3.440  77.110 113.203  0.00  0.00    -0.241 OA
ATOM     24  O   LIG d   1      -3.440  79.046 114.159  0.00  0.00    -0.241 OA
ENDBRANCH   3  22
TORSDOF 7
ENDMDL
MODEL 9
REMARK VINA RESULT:      -3.8      2.529      3.216
REMARK  7 active torsions:
REMARK  status: ('A' for Active; 'I' for Inactive)
REMARK    1  A    between atoms: C_2  and  C_3 
REMARK    2  A    between atoms: C_3  and  O_6 
REMARK    3  A    between atoms: C_3  and  C_4 
REMARK    4  A    between atoms: C_7  and  O_6 
REMARK    5  A    between atoms: C_9  and  C_10 
REMARK    6  A    between atoms: N_15  and  C_14 
REMARK    7  A    between atoms: N_20  and  C_19 
REMARK       I    between atoms: C_22  and  N_20 
ROOT
ATOM      1  C   LIG d   1      -1.268  79.550 116.959  0.00  0.00     0.161 C 
ATOM      2  C   LIG d   1      -0.854  78.594 117.901  0.00  0.00     0.016 C 
ATOM      3  C   LIG d   1      -0.587  77.244 117.574  0.00  0.00     0.038 C 
ATOM      4  C   LIG d   1      -0.570  76.793 116.245  0.00  0.00     0.028 C 
ATOM      5  C   LIG d   1      -1.472  77.601 115.319  0.00  0.00    -0.047 C 
ATOM      6  C   LIG d   1      -1.147  79.103 115.487  0.00  0.00     0.091 C 
ENDROOT
BRANCH   1   7
ATOM      7  O   LIG d   1      -0.551  80.784 117.168  0.00  0.00    -0.368 OA
BRANCH   7   8
ATOM      8  C   LIG d   1       0.802  80.657 117.670  0.00  0.00     0.119 C 
BRANCH   8   9
ATOM      9  C   LIG d   1       1.027  81.795 118.685  0.00  0.00     0.028 C 
ATOM     10  C   LIG d   1      -0.110  82.831 118.667  0.00  0.00     0.006 C 
ENDBRANCH   8   9
BRANCH   8  11
ATOM     11  C   LIG d   1       1.832  80.893 116.562  0.00  0.00     0.028 C 
ATOM     12  C   LIG d   1       3.061  79.979 116.687  0.00  0.00     0.006 C 
ENDBRANCH   8  11
ENDBRANCH   7   8
ENDBRANCH   1   7
BRANCH   6  13
ATOM     13  N   LIG d   1      -2.043  79.971 114.679  0.00  0.00    -0.311 N 
ATOM     14  C   LIG d   1      -1.755  80.371 113.441  0.00  0.00     0.210 C 
ATOM     15  C   LIG d   1      -2.806  81.278 112.794  0.00  0.00     0.109 C 
ATOM     16  O   LIG d   1      -0.744  80.034 112.806  0.00  0.00    -0.276 OA
ATOM     17  H   LIG d   1      -2.899  80.265 115.105  0.00  0.00     0.149 HD
ENDBRANCH   6  13
BRANCH   5  18
ATOM     18  N   LIG d   1      -1.253  77.112 113.945  0.00  0.00     0.381 N 
ATOM     19  H   LIG d   1      -0.364  77.429 113.611  0.00  0.00    -0.090 HD
ATOM     20  H   LIG d   1      -1.967  77.490 113.348  0.00  0.00    -0.090 HD
ATOM     21  H   LIG d   1      -1.287  76.117 113.928  0.00  0.00    -0.090 HD
ENDBRANCH   5  18
BRANCH   3  22
ATOM     22  C   LIG d   1      -0.372  76.321 118.586  0.00  0.00     0.382 C 
ATOM     23  O   LIG d   1       0.694  76.353 119.247  0.00  0.00    -0.241 OA
ATOM     24  O   LIG d   1      -1.211  75.430 118.816  0.00  0.00    -0.241 OA
ENDBRANCH   3  22
TORSDOF 7
ENDMDL
