MODEL 1
REMARK VINA RESULT:      -5.6      0.000      0.000
REMARK  7 active torsions:
REMARK  status: ('A' for Active; 'I' for Inactive)
REMARK    1  A    between atoms: C_2  and  C_3 
REMARK    2  A    between atoms: C_3  and  O_6 
REMARK    3  A    between atoms: C_3  and  C_4 
REMARK    4  A    between atoms: C_7  and  O_6 
REMARK    5  A    between atoms: C_9  and  C_10 
REMARK    6  A    between atoms: N_15  and  C_14 
REMARK    7  A    between atoms: N_20  and  C_19 
REMARK       I    between atoms: C_22  and  N_20 
ROOT
ATOM      1  C   LIG d   1      -0.965  81.587 112.036  0.00  0.00     0.161 C 
ATOM      2  C   LIG d   1      -1.872  80.588 112.425  0.00  0.00     0.016 C 
ATOM      3  C   LIG d   1      -1.878  79.286 111.874  0.00  0.00     0.038 C 
ATOM      4  C   LIG d   1      -0.873  78.846 111.000  0.00  0.00     0.028 C 
ATOM      5  C   LIG d   1      -0.234  79.973 110.195  0.00  0.00    -0.047 C 
ATOM      6  C   LIG d   1       0.209  81.093 111.165  0.00  0.00     0.091 C 
ENDROOT
BRANCH   1   7
ATOM      7  O   LIG d   1      -0.468  82.276 113.201  0.00  0.00    -0.368 OA
BRANCH   7   8
ATOM      8  C   LIG d   1       0.861  81.905 113.642  0.00  0.00     0.119 C 
BRANCH   8   9
ATOM      9  C   LIG d   1       0.716  81.193 115.001  0.00  0.00     0.028 C 
ATOM     10  C   LIG d   1       1.497  81.900 116.121  0.00  0.00     0.006 C 
ENDBRANCH   8   9
BRANCH   8  11
ATOM     11  C   LIG d   1       1.720  83.142 113.923  0.00  0.00     0.028 C 
ATOM     12  C   LIG d   1       1.104  84.435 113.365  0.00  0.00     0.006 C 
ENDBRANCH   8  11
ENDBRANCH   7   8
ENDBRANCH   1   7
BRANCH   6  13
ATOM     13  N   LIG d   1       0.768  82.271 110.453  0.00  0.00    -0.311 N 
ATOM     14  C   LIG d   1       2.069  82.438 110.221  0.00  0.00     0.210 C 
ATOM     15  C   LIG d   1       2.434  83.733 109.488  0.00  0.00     0.109 C 
ATOM     16  O   LIG d   1       2.952  81.622 110.524  0.00  0.00    -0.276 OA
ATOM     17  H   LIG d   1       0.119  82.968 110.144  0.00  0.00     0.149 HD
ENDBRANCH   6  13
BRANCH   5  18
ATOM     18  N   LIG d   1       0.887  79.395 109.430  0.00  0.00     0.381 N 
ATOM     19  H   LIG d   1       0.756  79.569 108.454  0.00  0.00    -0.090 HD
ATOM     20  H   LIG d   1       0.900  78.400 109.574  0.00  0.00    -0.090 HD
ATOM     21  H   LIG d   1       1.748  79.793 109.733  0.00  0.00    -0.090 HD
ENDBRANCH   5  18
BRANCH   3  22
ATOM     22  C   LIG d   1      -2.921  78.420 112.167  0.00  0.00     0.382 C 
ATOM     23  O   LIG d   1      -3.440  78.428 113.309  0.00  0.00    -0.241 OA
ATOM     24  O   LIG d   1      -3.320  77.601 111.317  0.00  0.00    -0.241 OA
ENDBRANCH   3  22
TORSDOF 7
ENDMDL
MODEL 2
REMARK VINA RESULT:      -5.0      1.701      4.895
REMARK  7 active torsions:
REMARK  status: ('A' for Active; 'I' for Inactive)
REMARK    1  A    between atoms: C_2  and  C_3 
REMARK    2  A    between atoms: C_3  and  O_6 
REMARK    3  A    between atoms: C_3  and  C_4 
REMARK    4  A    between atoms: C_7  and  O_6 
REMARK    5  A    between atoms: C_9  and  C_10 
REMARK    6  A    between atoms: N_15  and  C_14 
REMARK    7  A    between atoms: N_20  and  C_19 
REMARK       I    between atoms: C_22  and  N_20 
ROOT
ATOM      1  C   LIG d   1       1.206  81.410 112.944  0.00  0.00     0.161 C 
ATOM      2  C   LIG d   1       2.073  82.419 112.492  0.00  0.00     0.016 C 
ATOM      3  C   LIG d   1       2.200  82.784 111.132  0.00  0.00     0.038 C 
ATOM      4  C   LIG d   1       1.352  82.264 110.143  0.00  0.00     0.028 C 
ATOM      5  C   LIG d   1       0.809  80.879 110.477  0.00  0.00    -0.047 C 
ATOM      6  C   LIG d   1       0.193  80.909 111.894  0.00  0.00     0.091 C 
ENDROOT
BRANCH   1   7
ATOM      7  O   LIG d   1       0.520  81.852 114.132  0.00  0.00    -0.368 OA
BRANCH   7   8
ATOM      8  C   LIG d   1       1.203  82.851 114.929  0.00  0.00     0.119 C 
BRANCH   8   9
ATOM      9  C   LIG d   1       1.522  82.214 116.296  0.00  0.00     0.028 C 
ATOM     10  C   LIG d   1       2.830  81.406 116.275  0.00  0.00     0.006 C 
ENDBRANCH   8   9
BRANCH   8  11
ATOM     11  C   LIG d   1       0.287  84.039 115.238  0.00  0.00     0.028 C 
ATOM     12  C   LIG d   1      -0.757  84.289 114.138  0.00  0.00     0.006 C 
ENDBRANCH   8  11
ENDBRANCH   7   8
ENDBRANCH   1   7
BRANCH   6  13
ATOM     13  N   LIG d   1      -0.286  79.573 112.333  0.00  0.00    -0.311 N 
ATOM     14  C   LIG d   1      -1.549  79.168 112.204  0.00  0.00     0.210 C 
ATOM     15  C   LIG d   1      -1.835  77.761 112.739  0.00  0.00     0.109 C 
ATOM     16  O   LIG d   1      -2.452  79.828 111.668  0.00  0.00    -0.276 OA
ATOM     17  H   LIG d   1       0.387  78.961 112.750  0.00  0.00     0.149 HD
ENDBRANCH   6  13
BRANCH   5  18
ATOM     18  N   LIG d   1      -0.166  80.518 109.430  0.00  0.00     0.381 N 
ATOM     19  H   LIG d   1      -1.024  80.225 109.853  0.00  0.00    -0.090 HD
ATOM     20  H   LIG d   1       0.201  79.750 108.895  0.00  0.00    -0.090 HD
ATOM     21  H   LIG d   1      -0.330  81.299 108.834  0.00  0.00    -0.090 HD
ENDBRANCH   5  18
BRANCH   3  22
ATOM     22  C   LIG d   1       3.211  83.649 110.745  0.00  0.00     0.382 C 
ATOM     23  O   LIG d   1       4.163  83.891 111.525  0.00  0.00    -0.241 OA
ATOM     24  O   LIG d   1       3.162  84.225 109.641  0.00  0.00    -0.241 OA
ENDBRANCH   3  22
TORSDOF 7
ENDMDL
MODEL 3
REMARK VINA RESULT:      -4.6      1.469      2.228
REMARK  7 active torsions:
REMARK  status: ('A' for Active; 'I' for Inactive)
REMARK    1  A    between atoms: C_2  and  C_3 
REMARK    2  A    between atoms: C_3  and  O_6 
REMARK    3  A    between atoms: C_3  and  C_4 
REMARK    4  A    between atoms: C_7  and  O_6 
REMARK    5  A    between atoms: C_9  and  C_10 
REMARK    6  A    between atoms: N_15  and  C_14 
REMARK    7  A    between atoms: N_20  and  C_19 
REMARK       I    between atoms: C_22  and  N_20 
ROOT
ATOM      1  C   LIG d   1       0.246  81.009 113.291  0.00  0.00     0.161 C 
ATOM      2  C   LIG d   1      -0.652  79.928 113.291  0.00  0.00     0.016 C 
ATOM      3  C   LIG d   1      -1.167  79.344 112.111  0.00  0.00     0.038 C 
ATOM      4  C   LIG d   1      -0.700  79.706 110.839  0.00  0.00     0.028 C 
ATOM      5  C   LIG d   1      -0.170  81.135 110.773  0.00  0.00    -0.047 C 
ATOM      6  C   LIG d   1       0.853  81.344 111.912  0.00  0.00     0.091 C 
ENDROOT
BRANCH   1   7
ATOM      7  O   LIG d   1       1.291  80.776 114.255  0.00  0.00    -0.368 OA
BRANCH   7   8
ATOM      8  C   LIG d   1       1.126  81.421 115.542  0.00  0.00     0.119 C 
BRANCH   8   9
ATOM      9  C   LIG d   1       1.794  82.807 115.454  0.00  0.00     0.028 C 
ATOM     10  C   LIG d   1       0.771  83.955 115.482  0.00  0.00     0.006 C 
ENDBRANCH   8   9
BRANCH   8  11
ATOM     11  C   LIG d   1       1.887  80.674 116.642  0.00  0.00     0.028 C 
ATOM     12  C   LIG d   1       1.069  80.522 117.934  0.00  0.00     0.006 C 
ENDBRANCH   8  11
ENDBRANCH   7   8
ENDBRANCH   1   7
BRANCH   6  13
ATOM     13  N   LIG d   1       1.357  82.741 111.971  0.00  0.00    -0.311 N 
ATOM     14  C   LIG d   1       2.628  83.072 111.746  0.00  0.00     0.210 C 
ATOM     15  C   LIG d   1       2.940  84.566 111.877  0.00  0.00     0.109 C 
ATOM     16  O   LIG d   1       3.519  82.274 111.418  0.00  0.00    -0.276 OA
ATOM     17  H   LIG d   1       0.695  83.456 112.200  0.00  0.00     0.149 HD
ENDBRANCH   6  13
BRANCH   5  18
ATOM     18  N   LIG d   1       0.410  81.333 109.431  0.00  0.00     0.381 N 
ATOM     19  H   LIG d   1       1.400  81.456 109.505  0.00  0.00    -0.090 HD
ATOM     20  H   LIG d   1       0.018  82.165 109.027  0.00  0.00    -0.090 HD
ATOM     21  H   LIG d   1       0.208  80.547 108.853  0.00  0.00    -0.090 HD
ENDBRANCH   5  18
BRANCH   3  22
ATOM     22  C   LIG d   1      -2.192  78.413 112.196  0.00  0.00     0.382 C 
ATOM     23  O   LIG d   1      -3.003  78.460 113.152  0.00  0.00    -0.241 OA
ATOM     24  O   LIG d   1      -2.288  77.501 111.353  0.00  0.00    -0.241 OA
ENDBRANCH   3  22
TORSDOF 7
ENDMDL
MODEL 4
REMARK VINA RESULT:      -4.2      3.176      5.068
REMARK  7 active torsions:
REMARK  status: ('A' for Active; 'I' for Inactive)
REMARK    1  A    between atoms: C_2  and  C_3 
REMARK    2  A    between atoms: C_3  and  O_6 
REMARK    3  A    between atoms: C_3  and  C_4 
REMARK    4  A    between atoms: C_7  and  O_6 
REMARK    5  A    between atoms: C_9  and  C_10 
REMARK    6  A    between atoms: N_15  and  C_14 
REMARK    7  A    between atoms: N_20  and  C_19 
REMARK       I    between atoms: C_22  and  N_20 
ROOT
ATOM      1  C   LIG d   1       1.069  82.600 114.671  0.00  0.00     0.161 C 
ATOM      2  C   LIG d   1       0.443  83.341 113.654  0.00  0.00     0.016 C 
ATOM      3  C   LIG d   1      -0.354  82.755 112.644  0.00  0.00     0.038 C 
ATOM      4  C   LIG d   1      -0.705  81.397 112.670  0.00  0.00     0.028 C 
ATOM      5  C   LIG d   1       0.314  80.522 113.391  0.00  0.00    -0.047 C 
ATOM      6  C   LIG d   1       0.607  81.132 114.780  0.00  0.00     0.091 C 
ENDROOT
BRANCH   1   7
ATOM      7  O   LIG d   1       0.906  83.273 115.936  0.00  0.00    -0.368 OA
BRANCH   7   8
ATOM      8  C   LIG d   1       1.972  84.175 116.320  0.00  0.00     0.119 C 
BRANCH   8   9
ATOM      9  C   LIG d   1       3.308  83.476 116.001  0.00  0.00     0.028 C 
ATOM     10  C   LIG d   1       3.888  82.737 117.219  0.00  0.00     0.006 C 
ENDBRANCH   8   9
BRANCH   8  11
ATOM     11  C   LIG d   1       1.987  84.408 117.833  0.00  0.00     0.028 C 
ATOM     12  C   LIG d   1       0.606  84.213 118.480  0.00  0.00     0.006 C 
ENDBRANCH   8  11
ENDBRANCH   7   8
ENDBRANCH   1   7
BRANCH   6  13
ATOM     13  N   LIG d   1       1.657  80.384 115.519  0.00  0.00    -0.311 N 
ATOM     14  C   LIG d   1       1.389  79.442 116.421  0.00  0.00     0.210 C 
ATOM     15  C   LIG d   1       2.618  78.808 117.080  0.00  0.00     0.109 C 
ATOM     16  O   LIG d   1       0.250  79.048 116.715  0.00  0.00    -0.276 OA
ATOM     17  H   LIG d   1       2.610  80.618 115.319  0.00  0.00     0.149 HD
ENDBRANCH   6  13
BRANCH   5  18
ATOM     18  N   LIG d   1      -0.242  79.158 113.464  0.00  0.00     0.381 N 
ATOM     19  H   LIG d   1      -1.203  79.168 113.184  0.00  0.00    -0.090 HD
ATOM     20  H   LIG d   1      -0.195  78.838 114.415  0.00  0.00    -0.090 HD
ATOM     21  H   LIG d   1       0.277  78.545 112.874  0.00  0.00    -0.090 HD
ENDBRANCH   5  18
BRANCH   3  22
ATOM     22  C   LIG d   1      -0.776  83.524 111.570  0.00  0.00     0.382 C 
ATOM     23  O   LIG d   1      -1.598  83.054 110.747  0.00  0.00    -0.241 OA
ATOM     24  O   LIG d   1      -0.312  84.665 111.389  0.00  0.00    -0.241 OA
ENDBRANCH   3  22
TORSDOF 7
ENDMDL
MODEL 5
REMARK VINA RESULT:      -4.1      2.152      4.904
REMARK  7 active torsions:
REMARK  status: ('A' for Active; 'I' for Inactive)
REMARK    1  A    between atoms: C_2  and  C_3 
REMARK    2  A    between atoms: C_3  and  O_6 
REMARK    3  A    between atoms: C_3  and  C_4 
REMARK    4  A    between atoms: C_7  and  O_6 
REMARK    5  A    between atoms: C_9  and  C_10 
REMARK    6  A    between atoms: N_15  and  C_14 
REMARK    7  A    between atoms: N_20  and  C_19 
REMARK       I    between atoms: C_22  and  N_20 
ROOT
ATOM      1  C   LIG d   1       0.845  81.678 112.834  0.00  0.00     0.161 C 
ATOM      2  C   LIG d   1       2.080  82.047 112.276  0.00  0.00     0.016 C 
ATOM      3  C   LIG d   1       2.202  82.868 111.131  0.00  0.00     0.038 C 
ATOM      4  C   LIG d   1       1.094  83.504 110.553  0.00  0.00     0.028 C 
ATOM      5  C   LIG d   1      -0.217  82.758 110.776  0.00  0.00    -0.047 C 
ATOM      6  C   LIG d   1      -0.371  82.453 112.284  0.00  0.00     0.091 C 
ENDROOT
BRANCH   1   7
ATOM      7  O   LIG d   1       0.905  81.794 114.270  0.00  0.00    -0.368 OA
BRANCH   7   8
ATOM      8  C   LIG d   1       2.200  82.119 114.830  0.00  0.00     0.119 C 
BRANCH   8   9
ATOM      9  C   LIG d   1       2.521  81.058 115.901  0.00  0.00     0.028 C 
ATOM     10  C   LIG d   1       1.624  81.189 117.143  0.00  0.00     0.006 C 
ENDBRANCH   8   9
BRANCH   8  11
ATOM     11  C   LIG d   1       2.164  83.454 115.580  0.00  0.00     0.028 C 
ATOM     12  C   LIG d   1       3.393  84.331 115.293  0.00  0.00     0.006 C 
ENDBRANCH   8  11
ENDBRANCH   7   8
ENDBRANCH   1   7
BRANCH   6  13
ATOM     13  N   LIG d   1      -1.586  81.651 112.579  0.00  0.00    -0.311 N 
ATOM     14  C   LIG d   1      -1.816  80.448 112.056  0.00  0.00     0.210 C 
ATOM     15  C   LIG d   1      -3.139  79.801 112.476  0.00  0.00     0.109 C 
ATOM     16  O   LIG d   1      -1.034  79.841 111.309  0.00  0.00    -0.276 OA
ATOM     17  H   LIG d   1      -2.259  82.054 113.201  0.00  0.00     0.149 HD
ENDBRANCH   6  13
BRANCH   5  18
ATOM     18  N   LIG d   1      -1.305  83.599 110.243  0.00  0.00     0.381 N 
ATOM     19  H   LIG d   1      -2.005  83.733 110.945  0.00  0.00    -0.090 HD
ATOM     20  H   LIG d   1      -1.728  83.128 109.463  0.00  0.00    -0.090 HD
ATOM     21  H   LIG d   1      -0.944  84.480 109.952  0.00  0.00    -0.090 HD
ENDBRANCH   5  18
BRANCH   3  22
ATOM     22  C   LIG d   1       3.441  83.028 110.529  0.00  0.00     0.382 C 
ATOM     23  O   LIG d   1       4.465  82.534 111.060  0.00  0.00    -0.241 OA
ATOM     24  O   LIG d   1       3.554  83.697 109.485  0.00  0.00    -0.241 OA
ENDBRANCH   3  22
TORSDOF 7
ENDMDL
MODEL 6
REMARK VINA RESULT:      -4.1      1.841      4.840
REMARK  7 active torsions:
REMARK  status: ('A' for Active; 'I' for Inactive)
REMARK    1  A    between atoms: C_2  and  C_3 
REMARK    2  A    between atoms: C_3  and  O_6 
REMARK    3  A    between atoms: C_3  and  C_4 
REMARK    4  A    between atoms: C_7  and  O_6 
REMARK    5  A    between atoms: C_9  and  C_10 
REMARK    6  A    between atoms: N_15  and  C_14 
REMARK    7  A    between atoms: N_20  and  C_19 
REMARK       I    between atoms: C_22  and  N_20 
ROOT
ATOM      1  C   LIG d   1       0.743  81.590 112.796  0.00  0.00     0.161 C 
ATOM      2  C   LIG d   1       1.188  82.682 112.033  0.00  0.00     0.016 C 
ATOM      3  C   LIG d   1       1.113  82.727 110.621  0.00  0.00     0.038 C 
ATOM      4  C   LIG d   1       0.444  81.740 109.883  0.00  0.00     0.028 C 
ATOM      5  C   LIG d   1       0.426  80.378 110.569  0.00  0.00    -0.047 C 
ATOM      6  C   LIG d   1      -0.091  80.552 112.016  0.00  0.00     0.091 C 
ENDROOT
BRANCH   1   7
ATOM      7  O   LIG d   1       0.008  82.063 113.942  0.00  0.00    -0.368 OA
BRANCH   7   8
ATOM      8  C   LIG d   1       0.779  82.272 115.151  0.00  0.00     0.119 C 
BRANCH   8   9
ATOM      9  C   LIG d   1       1.184  83.758 115.191  0.00  0.00     0.028 C 
ATOM     10  C   LIG d   1       2.708  83.949 115.277  0.00  0.00     0.006 C 
ENDBRANCH   8   9
BRANCH   8  11
ATOM     11  C   LIG d   1       2.097  81.493 115.114  0.00  0.00     0.028 C 
ATOM     12  C   LIG d   1       2.236  80.500 116.279  0.00  0.00     0.006 C 
ENDBRANCH   8  11
ENDBRANCH   7   8
ENDBRANCH   1   7
BRANCH   6  13
ATOM     13  N   LIG d   1      -0.061  79.281 112.785  0.00  0.00    -0.311 N 
ATOM     14  C   LIG d   1      -1.109  78.466 112.895  0.00  0.00     0.210 C 
ATOM     15  C   LIG d   1      -0.870  77.218 113.751  0.00  0.00     0.109 C 
ATOM     16  O   LIG d   1      -2.203  78.642 112.340  0.00  0.00    -0.276 OA
ATOM     17  H   LIG d   1       0.798  79.045 113.242  0.00  0.00     0.149 HD
ENDBRANCH   6  13
BRANCH   5  18
ATOM     18  N   LIG d   1      -0.419  79.481 109.758  0.00  0.00     0.381 N 
ATOM     19  H   LIG d   1      -0.732  78.713 110.317  0.00  0.00    -0.090 HD
ATOM     20  H   LIG d   1       0.130  79.116 108.999  0.00  0.00    -0.090 HD
ATOM     21  H   LIG d   1      -1.202  79.982 109.400  0.00  0.00    -0.090 HD
ENDBRANCH   5  18
BRANCH   3  22
ATOM     22  C   LIG d   1       1.746  83.750 109.932  0.00  0.00     0.382 C 
ATOM     23  O   LIG d   1       1.070  84.680 109.430  0.00  0.00    -0.241 OA
ATOM     24  O   LIG d   1       2.981  83.731 109.767  0.00  0.00    -0.241 OA
ENDBRANCH   3  22
TORSDOF 7
ENDMDL
MODEL 7
REMARK VINA RESULT:      -4.1      4.673      7.507
REMARK  7 active torsions:
REMARK  status: ('A' for Active; 'I' for Inactive)
REMARK    1  A    between atoms: C_2  and  C_3 
REMARK    2  A    between atoms: C_3  and  O_6 
REMARK    3  A    between atoms: C_3  and  C_4 
REMARK    4  A    between atoms: C_7  and  O_6 
REMARK    5  A    between atoms: C_9  and  C_10 
REMARK    6  A    between atoms: N_15  and  C_14 
REMARK    7  A    between atoms: N_20  and  C_19 
REMARK       I    between atoms: C_22  and  N_20 
ROOT
ATOM      1  C   LIG d   1       2.053  80.627 116.802  0.00  0.00     0.161 C 
ATOM      2  C   LIG d   1       3.336  80.529 116.236  0.00  0.00     0.016 C 
ATOM      3  C   LIG d   1       4.218  79.454 116.491  0.00  0.00     0.038 C 
ATOM      4  C   LIG d   1       3.817  78.321 117.214  0.00  0.00     0.028 C 
ATOM      5  C   LIG d   1       2.709  78.606 118.222  0.00  0.00    -0.047 C 
ATOM      6  C   LIG d   1       1.557  79.346 117.504  0.00  0.00     0.091 C 
ENDROOT
BRANCH   1   7
ATOM      7  O   LIG d   1       1.108  81.046 115.798  0.00  0.00    -0.368 OA
BRANCH   7   8
ATOM      8  C   LIG d   1       1.578  82.042 114.856  0.00  0.00     0.119 C 
BRANCH   8   9
ATOM      9  C   LIG d   1       1.022  83.406 115.309  0.00  0.00     0.028 C 
ATOM     10  C   LIG d   1      -0.143  83.887 114.427  0.00  0.00     0.006 C 
ENDBRANCH   8   9
BRANCH   8  11
ATOM     11  C   LIG d   1       0.992  81.808 113.460  0.00  0.00     0.028 C 
ATOM     12  C   LIG d   1       2.070  81.728 112.368  0.00  0.00     0.006 C 
ENDBRANCH   8  11
ENDBRANCH   7   8
ENDBRANCH   1   7
BRANCH   6  13
ATOM     13  N   LIG d   1       0.467  79.738 118.436  0.00  0.00    -0.311 N 
ATOM     14  C   LIG d   1      -0.634  79.013 118.623  0.00  0.00     0.210 C 
ATOM     15  C   LIG d   1      -1.640  79.608 119.613  0.00  0.00     0.109 C 
ATOM     16  O   LIG d   1      -0.859  77.917 118.087  0.00  0.00    -0.276 OA
ATOM     17  H   LIG d   1       0.582  80.598 118.936  0.00  0.00     0.149 HD
ENDBRANCH   6  13
BRANCH   5  18
ATOM     18  N   LIG d   1       2.293  77.316 118.805  0.00  0.00     0.381 N 
ATOM     19  H   LIG d   1       1.308  77.324 118.975  0.00  0.00    -0.090 HD
ATOM     20  H   LIG d   1       2.765  77.190 119.683  0.00  0.00    -0.090 HD
ATOM     21  H   LIG d   1       2.525  76.572 118.185  0.00  0.00    -0.090 HD
ENDBRANCH   5  18
BRANCH   3  22
ATOM     22  C   LIG d   1       5.532  79.524 116.052  0.00  0.00     0.382 C 
ATOM     23  O   LIG d   1       6.393  80.116 116.747  0.00  0.00    -0.241 OA
ATOM     24  O   LIG d   1       5.857  79.043 114.951  0.00  0.00    -0.241 OA
ENDBRANCH   3  22
TORSDOF 7
ENDMDL
MODEL 8
REMARK VINA RESULT:      -4.0      2.376      5.117
REMARK  7 active torsions:
REMARK  status: ('A' for Active; 'I' for Inactive)
REMARK    1  A    between atoms: C_2  and  C_3 
REMARK    2  A    between atoms: C_3  and  O_6 
REMARK    3  A    between atoms: C_3  and  C_4 
REMARK    4  A    between atoms: C_7  and  O_6 
REMARK    5  A    between atoms: C_9  and  C_10 
REMARK    6  A    between atoms: N_15  and  C_14 
REMARK    7  A    between atoms: N_20  and  C_19 
REMARK       I    between atoms: C_22  and  N_20 
ROOT
ATOM      1  C   LIG d   1       0.358  81.482 113.350  0.00  0.00     0.161 C 
ATOM      2  C   LIG d   1       0.655  80.768 114.523  0.00  0.00     0.016 C 
ATOM      3  C   LIG d   1       1.449  81.288 115.571  0.00  0.00     0.038 C 
ATOM      4  C   LIG d   1       1.877  82.624 115.583  0.00  0.00     0.028 C 
ATOM      5  C   LIG d   1       2.027  83.225 114.190  0.00  0.00    -0.047 C 
ATOM      6  C   LIG d   1       0.724  82.980 113.395  0.00  0.00     0.091 C 
ENDROOT
BRANCH   1   7
ATOM      7  O   LIG d   1      -1.034  81.316 113.016  0.00  0.00    -0.368 OA
BRANCH   7   8
ATOM      8  C   LIG d   1      -1.314  80.644 111.764  0.00  0.00     0.119 C 
BRANCH   8   9
ATOM      9  C   LIG d   1      -2.260  79.466 112.071  0.00  0.00     0.028 C 
ATOM     10  C   LIG d   1      -2.095  78.307 111.074  0.00  0.00     0.006 C 
ENDBRANCH   8   9
BRANCH   8  11
ATOM     11  C   LIG d   1      -0.050  80.007 111.179  0.00  0.00     0.028 C 
ATOM     12  C   LIG d   1       0.367  80.633 109.839  0.00  0.00     0.006 C 
ENDBRANCH   8  11
ENDBRANCH   7   8
ENDBRANCH   1   7
BRANCH   6  13
ATOM     13  N   LIG d   1       0.816  83.463 111.992  0.00  0.00    -0.311 N 
ATOM     14  C   LIG d   1      -0.105  84.236 111.421  0.00  0.00     0.210 C 
ATOM     15  C   LIG d   1       0.174  84.603 109.960  0.00  0.00     0.109 C 
ATOM     16  O   LIG d   1      -1.111  84.679 111.995  0.00  0.00    -0.276 OA
ATOM     17  H   LIG d   1       1.616  83.176 111.463  0.00  0.00     0.149 HD
ENDBRANCH   6  13
BRANCH   5  18
ATOM     18  N   LIG d   1       2.344  84.656 114.353  0.00  0.00     0.381 N 
ATOM     19  H   LIG d   1       1.841  85.027 115.134  0.00  0.00    -0.090 HD
ATOM     20  H   LIG d   1       2.054  85.150 113.528  0.00  0.00    -0.090 HD
ATOM     21  H   LIG d   1       3.323  84.775 114.493  0.00  0.00    -0.090 HD
ENDBRANCH   5  18
BRANCH   3  22
ATOM     22  C   LIG d   1       1.856  80.456 116.603  0.00  0.00     0.382 C 
ATOM     23  O   LIG d   1       1.135  79.489 116.949  0.00  0.00    -0.241 OA
ATOM     24  O   LIG d   1       2.912  80.687 117.221  0.00  0.00    -0.241 OA
ENDBRANCH   3  22
TORSDOF 7
ENDMDL
MODEL 9
REMARK VINA RESULT:      -3.7      2.469      4.849
REMARK  7 active torsions:
REMARK  status: ('A' for Active; 'I' for Inactive)
REMARK    1  A    between atoms: C_2  and  C_3 
REMARK    2  A    between atoms: C_3  and  O_6 
REMARK    3  A    between atoms: C_3  and  C_4 
REMARK    4  A    between atoms: C_7  and  O_6 
REMARK    5  A    between atoms: C_9  and  C_10 
REMARK    6  A    between atoms: N_15  and  C_14 
REMARK    7  A    between atoms: N_20  and  C_19 
REMARK       I    between atoms: C_22  and  N_20 
ROOT
ATOM      1  C   LIG d   1       0.638  82.192 113.584  0.00  0.00     0.161 C 
ATOM      2  C   LIG d   1       0.615  81.220 114.598  0.00  0.00     0.016 C 
ATOM      3  C   LIG d   1       1.447  81.268 115.741  0.00  0.00     0.038 C 
ATOM      4  C   LIG d   1       2.256  82.379 116.023  0.00  0.00     0.028 C 
ATOM      5  C   LIG d   1       2.686  83.147 114.777  0.00  0.00    -0.047 C 
ATOM      6  C   LIG d   1       1.435  83.468 113.929  0.00  0.00     0.091 C 
ENDROOT
BRANCH   1   7
ATOM      7  O   LIG d   1      -0.710  82.531 113.202  0.00  0.00    -0.368 OA
BRANCH   7   8
ATOM      8  C   LIG d   1      -1.239  81.833 112.048  0.00  0.00     0.119 C 
BRANCH   8   9
ATOM      9  C   LIG d   1      -2.477  81.042 112.514  0.00  0.00     0.028 C 
ATOM     10  C   LIG d   1      -2.400  79.554 112.136  0.00  0.00     0.006 C 
ENDBRANCH   8   9
BRANCH   8  11
ATOM     11  C   LIG d   1      -0.255  80.778 111.534  0.00  0.00     0.028 C 
ATOM     12  C   LIG d   1       0.334  81.133 110.160  0.00  0.00     0.006 C 
ENDBRANCH   8  11
ENDBRANCH   7   8
ENDBRANCH   1   7
BRANCH   6  13
ATOM     13  N   LIG d   1       1.775  84.145 112.650  0.00  0.00    -0.311 N 
ATOM     14  C   LIG d   1       2.609  83.631 111.748  0.00  0.00     0.210 C 
ATOM     15  C   LIG d   1       2.838  84.501 110.509  0.00  0.00     0.109 C 
ATOM     16  O   LIG d   1       3.156  82.522 111.842  0.00  0.00    -0.276 OA
ATOM     17  H   LIG d   1       1.351  85.036 112.479  0.00  0.00     0.149 HD
ENDBRANCH   6  13
BRANCH   5  18
ATOM     18  N   LIG d   1       3.407  84.354 115.225  0.00  0.00     0.381 N 
ATOM     19  H   LIG d   1       3.382  84.412 116.223  0.00  0.00    -0.090 HD
ATOM     20  H   LIG d   1       2.947  85.165 114.850  0.00  0.00    -0.090 HD
ATOM     21  H   LIG d   1       4.352  84.323 114.910  0.00  0.00    -0.090 HD
ENDBRANCH   5  18
BRANCH   3  22
ATOM     22  C   LIG d   1       1.503  80.178 116.596  0.00  0.00     0.382 C 
ATOM     23  O   LIG d   1       2.499  80.018 117.342  0.00  0.00    -0.241 OA
ATOM     24  O   LIG d   1       0.592  79.329 116.598  0.00  0.00    -0.241 OA
ENDBRANCH   3  22
TORSDOF 7
ENDMDL
