MODEL 1
REMARK VINA RESULT:      -5.4      0.000      0.000
REMARK  7 active torsions:
REMARK  status: ('A' for Active; 'I' for Inactive)
REMARK    1  A    between atoms: C_2  and  C_3 
REMARK    2  A    between atoms: C_3  and  O_6 
REMARK    3  A    between atoms: C_3  and  C_4 
REMARK    4  A    between atoms: C_7  and  O_6 
REMARK    5  A    between atoms: C_9  and  C_10 
REMARK    6  A    between atoms: N_15  and  C_14 
REMARK    7  A    between atoms: N_20  and  C_19 
REMARK       I    between atoms: C_22  and  N_20 
ROOT
ATOM      1  C   LIG d   1       1.697  81.241 112.471  0.00  0.00     0.161 C 
ATOM      2  C   LIG d   1       2.863  81.502 111.732  0.00  0.00     0.016 C 
ATOM      3  C   LIG d   1       2.957  81.309 110.334  0.00  0.00     0.038 C 
ATOM      4  C   LIG d   1       1.839  80.981 109.554  0.00  0.00     0.028 C 
ATOM      5  C   LIG d   1       0.766  80.218 110.323  0.00  0.00    -0.047 C 
ATOM      6  C   LIG d   1       0.435  80.989 111.621  0.00  0.00     0.091 C 
ENDROOT
BRANCH   1   7
ATOM      7  O   LIG d   1       1.464  82.309 113.410  0.00  0.00    -0.368 OA
BRANCH   7   8
ATOM      8  C   LIG d   1       2.163  83.551 113.149  0.00  0.00     0.119 C 
BRANCH   8   9
ATOM      9  C   LIG d   1       2.803  84.010 114.473  0.00  0.00     0.028 C 
ATOM     10  C   LIG d   1       3.425  82.844 115.259  0.00  0.00     0.006 C 
ENDBRANCH   8   9
BRANCH   8  11
ATOM     11  C   LIG d   1       1.188  84.667 112.761  0.00  0.00     0.028 C 
ATOM     12  C   LIG d   1       0.837  84.659 111.265  0.00  0.00     0.006 C 
ENDBRANCH   8  11
ENDBRANCH   7   8
ENDBRANCH   1   7
BRANCH   6  13
ATOM     13  N   LIG d   1      -0.546  80.268 112.475  0.00  0.00    -0.311 N 
ATOM     14  C   LIG d   1      -1.739  80.763 112.799  0.00  0.00     0.210 C 
ATOM     15  C   LIG d   1      -2.587  79.865 113.705  0.00  0.00     0.109 C 
ATOM     16  O   LIG d   1      -2.188  81.847 112.397  0.00  0.00    -0.276 OA
ATOM     17  H   LIG d   1      -0.275  79.368 112.819  0.00  0.00     0.149 HD
ENDBRANCH   6  13
BRANCH   5  18
ATOM     18  N   LIG d   1      -0.398  80.062 109.430  0.00  0.00     0.381 N 
ATOM     19  H   LIG d   1      -0.265  79.269 108.836  0.00  0.00    -0.090 HD
ATOM     20  H   LIG d   1      -0.475  80.880 108.851  0.00  0.00    -0.090 HD
ATOM     21  H   LIG d   1      -1.228  79.948 109.968  0.00  0.00    -0.090 HD
ENDBRANCH   5  18
BRANCH   3  22
ATOM     22  C   LIG d   1       4.191  81.404 109.709  0.00  0.00     0.382 C 
ATOM     23  O   LIG d   1       4.850  80.365 109.462  0.00  0.00    -0.241 OA
ATOM     24  O   LIG d   1       4.674  82.518 109.430  0.00  0.00    -0.241 OA
ENDBRANCH   3  22
TORSDOF 7
ENDMDL
MODEL 2
REMARK VINA RESULT:      -5.1      1.084      1.576
REMARK  7 active torsions:
REMARK  status: ('A' for Active; 'I' for Inactive)
REMARK    1  A    between atoms: C_2  and  C_3 
REMARK    2  A    between atoms: C_3  and  O_6 
REMARK    3  A    between atoms: C_3  and  C_4 
REMARK    4  A    between atoms: C_7  and  O_6 
REMARK    5  A    between atoms: C_9  and  C_10 
REMARK    6  A    between atoms: N_15  and  C_14 
REMARK    7  A    between atoms: N_20  and  C_19 
REMARK       I    between atoms: C_22  and  N_20 
ROOT
ATOM      1  C   LIG d   1       1.801  81.302 112.610  0.00  0.00     0.161 C 
ATOM      2  C   LIG d   1       3.009  81.489 111.917  0.00  0.00     0.016 C 
ATOM      3  C   LIG d   1       3.136  81.335 110.518  0.00  0.00     0.038 C 
ATOM      4  C   LIG d   1       2.021  81.130 109.691  0.00  0.00     0.028 C 
ATOM      5  C   LIG d   1       0.863  80.434 110.397  0.00  0.00    -0.047 C 
ATOM      6  C   LIG d   1       0.552  81.187 111.711  0.00  0.00     0.091 C 
ENDROOT
BRANCH   1   7
ATOM      7  O   LIG d   1       1.626  82.354 113.579  0.00  0.00    -0.368 OA
BRANCH   7   8
ATOM      8  C   LIG d   1       2.810  82.744 114.317  0.00  0.00     0.119 C 
BRANCH   8   9
ATOM      9  C   LIG d   1       2.712  82.111 115.719  0.00  0.00     0.028 C 
ATOM     10  C   LIG d   1       3.995  81.361 116.116  0.00  0.00     0.006 C 
ENDBRANCH   8   9
BRANCH   8  11
ATOM     11  C   LIG d   1       2.844  84.256 114.557  0.00  0.00     0.028 C 
ATOM     12  C   LIG d   1       2.053  84.680 115.805  0.00  0.00     0.006 C 
ENDBRANCH   8  11
ENDBRANCH   7   8
ENDBRANCH   1   7
BRANCH   6  13
ATOM     13  N   LIG d   1      -0.514  80.523 112.506  0.00  0.00    -0.311 N 
ATOM     14  C   LIG d   1      -1.698  81.079 112.753  0.00  0.00     0.210 C 
ATOM     15  C   LIG d   1      -2.645  80.232 113.610  0.00  0.00     0.109 C 
ATOM     16  O   LIG d   1      -2.067  82.180 112.318  0.00  0.00    -0.276 OA
ATOM     17  H   LIG d   1      -0.311  79.613 112.872  0.00  0.00     0.149 HD
ENDBRANCH   6  13
BRANCH   5  18
ATOM     18  N   LIG d   1      -0.278  80.408 109.462  0.00  0.00     0.381 N 
ATOM     19  H   LIG d   1      -0.891  81.176 109.654  0.00  0.00    -0.090 HD
ATOM     20  H   LIG d   1      -0.790  79.555 109.598  0.00  0.00    -0.090 HD
ATOM     21  H   LIG d   1       0.049  80.462 108.523  0.00  0.00    -0.090 HD
ENDBRANCH   5  18
BRANCH   3  22
ATOM     22  C   LIG d   1       4.394  81.347 109.936  0.00  0.00     0.382 C 
ATOM     23  O   LIG d   1       4.947  82.438 109.660  0.00  0.00    -0.241 OA
ATOM     24  O   LIG d   1       4.965  80.279 109.643  0.00  0.00    -0.241 OA
ENDBRANCH   3  22
TORSDOF 7
ENDMDL
MODEL 3
REMARK VINA RESULT:      -4.5      1.719      4.980
REMARK  7 active torsions:
REMARK  status: ('A' for Active; 'I' for Inactive)
REMARK    1  A    between atoms: C_2  and  C_3 
REMARK    2  A    between atoms: C_3  and  O_6 
REMARK    3  A    between atoms: C_3  and  C_4 
REMARK    4  A    between atoms: C_7  and  O_6 
REMARK    5  A    between atoms: C_9  and  C_10 
REMARK    6  A    between atoms: N_15  and  C_14 
REMARK    7  A    between atoms: N_20  and  C_19 
REMARK       I    between atoms: C_22  and  N_20 
ROOT
ATOM      1  C   LIG d   1       0.287  81.600 111.796  0.00  0.00     0.161 C 
ATOM      2  C   LIG d   1      -0.872  81.005 112.321  0.00  0.00     0.016 C 
ATOM      3  C   LIG d   1      -1.265  79.677 112.033  0.00  0.00     0.038 C 
ATOM      4  C   LIG d   1      -0.439  78.800 111.315  0.00  0.00     0.028 C 
ATOM      5  C   LIG d   1       0.499  79.509 110.343  0.00  0.00    -0.047 C 
ATOM      6  C   LIG d   1       1.257  80.622 111.101  0.00  0.00     0.091 C 
ENDROOT
BRANCH   1   7
ATOM      7  O   LIG d   1       0.971  82.334 112.831  0.00  0.00    -0.368 OA
BRANCH   7   8
ATOM      8  C   LIG d   1       0.909  83.778 112.735  0.00  0.00     0.119 C 
BRANCH   8   9
ATOM      9  C   LIG d   1       0.021  84.124 111.525  0.00  0.00     0.028 C 
ATOM     10  C   LIG d   1       0.831  84.680 110.341  0.00  0.00     0.006 C 
ENDBRANCH   8   9
BRANCH   8  11
ATOM     11  C   LIG d   1       2.283  84.374 112.413  0.00  0.00     0.028 C 
ATOM     12  C   LIG d   1       3.279  84.237 113.575  0.00  0.00     0.006 C 
ENDBRANCH   8  11
ENDBRANCH   7   8
ENDBRANCH   1   7
BRANCH   6  13
ATOM     13  N   LIG d   1       2.135  81.421 110.205  0.00  0.00    -0.311 N 
ATOM     14  C   LIG d   1       3.410  81.689 110.478  0.00  0.00     0.210 C 
ATOM     15  C   LIG d   1       4.129  82.545 109.430  0.00  0.00     0.109 C 
ATOM     16  O   LIG d   1       4.024  81.272 111.471  0.00  0.00    -0.276 OA
ATOM     17  H   LIG d   1       1.726  81.772 109.361  0.00  0.00     0.149 HD
ENDBRANCH   6  13
BRANCH   5  18
ATOM     18  N   LIG d   1       1.395  78.489 109.765  0.00  0.00     0.381 N 
ATOM     19  H   LIG d   1       2.261  78.913 109.496  0.00  0.00    -0.090 HD
ATOM     20  H   LIG d   1       0.963  78.106 108.943  0.00  0.00    -0.090 HD
ATOM     21  H   LIG d   1       1.562  77.766 110.429  0.00  0.00    -0.090 HD
ENDBRANCH   5  18
BRANCH   3  22
ATOM     22  C   LIG d   1      -2.515  79.228 112.431  0.00  0.00     0.382 C 
ATOM     23  O   LIG d   1      -2.884  78.064 112.142  0.00  0.00    -0.241 OA
ATOM     24  O   LIG d   1      -3.295  79.987 113.037  0.00  0.00    -0.241 OA
ENDBRANCH   3  22
TORSDOF 7
ENDMDL
MODEL 4
REMARK VINA RESULT:      -4.3      2.157      4.165
REMARK  7 active torsions:
REMARK  status: ('A' for Active; 'I' for Inactive)
REMARK    1  A    between atoms: C_2  and  C_3 
REMARK    2  A    between atoms: C_3  and  O_6 
REMARK    3  A    between atoms: C_3  and  C_4 
REMARK    4  A    between atoms: C_7  and  O_6 
REMARK    5  A    between atoms: C_9  and  C_10 
REMARK    6  A    between atoms: N_15  and  C_14 
REMARK    7  A    between atoms: N_20  and  C_19 
REMARK       I    between atoms: C_22  and  N_20 
ROOT
ATOM      1  C   LIG d   1       1.417  82.309 111.856  0.00  0.00     0.161 C 
ATOM      2  C   LIG d   1       2.682  82.882 112.068  0.00  0.00     0.016 C 
ATOM      3  C   LIG d   1       3.420  82.716 113.263  0.00  0.00     0.038 C 
ATOM      4  C   LIG d   1       3.007  81.836 114.274  0.00  0.00     0.028 C 
ATOM      5  C   LIG d   1       1.497  81.631 114.318  0.00  0.00    -0.047 C 
ATOM      6  C   LIG d   1       1.000  81.256 112.903  0.00  0.00     0.091 C 
ENDROOT
BRANCH   1   7
ATOM      7  O   LIG d   1       1.350  81.751 110.529  0.00  0.00    -0.368 OA
BRANCH   7   8
ATOM      8  C   LIG d   1       2.165  80.577 110.290  0.00  0.00     0.119 C 
BRANCH   8   9
ATOM      9  C   LIG d   1       3.368  81.016 109.432  0.00  0.00     0.028 C 
ATOM     10  C   LIG d   1       4.672  80.313 109.847  0.00  0.00     0.006 C 
ENDBRANCH   8   9
BRANCH   8  11
ATOM     11  C   LIG d   1       1.418  79.543 109.442  0.00  0.00     0.028 C 
ATOM     12  C   LIG d   1      -0.083  79.481 109.764  0.00  0.00     0.006 C 
ENDBRANCH   8  11
ENDBRANCH   7   8
ENDBRANCH   1   7
BRANCH   6  13
ATOM     13  N   LIG d   1      -0.479  81.120 112.840  0.00  0.00    -0.311 N 
ATOM     14  C   LIG d   1      -1.128  80.007 113.179  0.00  0.00     0.210 C 
ATOM     15  C   LIG d   1      -2.650  80.072 113.021  0.00  0.00     0.109 C 
ATOM     16  O   LIG d   1      -0.590  78.983 113.628  0.00  0.00    -0.276 OA
ATOM     17  H   LIG d   1      -0.997  81.913 112.516  0.00  0.00     0.149 HD
ENDBRANCH   6  13
BRANCH   5  18
ATOM     18  N   LIG d   1       1.218  80.589 115.324  0.00  0.00     0.381 N 
ATOM     19  H   LIG d   1       1.817  80.713 116.116  0.00  0.00    -0.090 HD
ATOM     20  H   LIG d   1       1.410  79.688 114.921  0.00  0.00    -0.090 HD
ATOM     21  H   LIG d   1       0.265  80.636 115.609  0.00  0.00    -0.090 HD
ENDBRANCH   5  18
BRANCH   3  22
ATOM     22  C   LIG d   1       4.568  83.467 113.471  0.00  0.00     0.382 C 
ATOM     23  O   LIG d   1       4.957  84.273 112.592  0.00  0.00    -0.241 OA
ATOM     24  O   LIG d   1       5.242  83.315 114.507  0.00  0.00    -0.241 OA
ENDBRANCH   3  22
TORSDOF 7
ENDMDL
MODEL 5
REMARK VINA RESULT:      -4.0      5.662      8.317
REMARK  7 active torsions:
REMARK  status: ('A' for Active; 'I' for Inactive)
REMARK    1  A    between atoms: C_2  and  C_3 
REMARK    2  A    between atoms: C_3  and  O_6 
REMARK    3  A    between atoms: C_3  and  C_4 
REMARK    4  A    between atoms: C_7  and  O_6 
REMARK    5  A    between atoms: C_9  and  C_10 
REMARK    6  A    between atoms: N_15  and  C_14 
REMARK    7  A    between atoms: N_20  and  C_19 
REMARK       I    between atoms: C_22  and  N_20 
ROOT
ATOM      1  C   LIG d   1      -1.537  77.974 117.199  0.00  0.00     0.161 C 
ATOM      2  C   LIG d   1      -2.282  77.645 116.054  0.00  0.00     0.016 C 
ATOM      3  C   LIG d   1      -2.012  78.175 114.772  0.00  0.00     0.038 C 
ATOM      4  C   LIG d   1      -0.877  78.959 114.517  0.00  0.00     0.028 C 
ATOM      5  C   LIG d   1      -0.384  79.726 115.740  0.00  0.00    -0.047 C 
ATOM      6  C   LIG d   1      -0.227  78.740 116.920  0.00  0.00     0.091 C 
ENDROOT
BRANCH   1   7
ATOM      7  O   LIG d   1      -1.268  76.783 117.965  0.00  0.00    -0.368 OA
BRANCH   7   8
ATOM      8  C   LIG d   1      -0.221  75.921 117.456  0.00  0.00     0.119 C 
BRANCH   8   9
ATOM      9  C   LIG d   1      -0.830  74.519 117.260  0.00  0.00     0.028 C 
ATOM     10  C   LIG d   1      -1.085  74.191 115.780  0.00  0.00     0.006 C 
ENDBRANCH   8   9
BRANCH   8  11
ATOM     11  C   LIG d   1       0.899  75.736 118.484  0.00  0.00     0.028 C 
ATOM     12  C   LIG d   1       0.726  74.467 119.333  0.00  0.00     0.006 C 
ENDBRANCH   8  11
ENDBRANCH   7   8
ENDBRANCH   1   7
BRANCH   6  13
ATOM     13  N   LIG d   1       0.171  79.422 118.179  0.00  0.00    -0.311 N 
ATOM     14  C   LIG d   1       1.433  79.515 118.595  0.00  0.00     0.210 C 
ATOM     15  C   LIG d   1       1.622  80.243 119.930  0.00  0.00     0.109 C 
ATOM     16  O   LIG d   1       2.417  79.093 117.969  0.00  0.00    -0.276 OA
ATOM     17  H   LIG d   1      -0.561  79.821 118.733  0.00  0.00     0.149 HD
ENDBRANCH   6  13
BRANCH   5  18
ATOM     18  N   LIG d   1       0.880  80.389 115.369  0.00  0.00     0.381 N 
ATOM     19  H   LIG d   1       1.456  80.498 116.180  0.00  0.00    -0.090 HD
ATOM     20  H   LIG d   1       0.673  81.303 115.005  0.00  0.00    -0.090 HD
ATOM     21  H   LIG d   1       1.360  79.851 114.682  0.00  0.00    -0.090 HD
ENDBRANCH   5  18
BRANCH   3  22
ATOM     22  C   LIG d   1      -2.906  77.955 113.735  0.00  0.00     0.382 C 
ATOM     23  O   LIG d   1      -3.365  76.804 113.537  0.00  0.00    -0.241 OA
ATOM     24  O   LIG d   1      -3.226  78.883 112.968  0.00  0.00    -0.241 OA
ENDBRANCH   3  22
TORSDOF 7
ENDMDL
MODEL 6
REMARK VINA RESULT:      -3.9      6.070      7.551
REMARK  7 active torsions:
REMARK  status: ('A' for Active; 'I' for Inactive)
REMARK    1  A    between atoms: C_2  and  C_3 
REMARK    2  A    between atoms: C_3  and  O_6 
REMARK    3  A    between atoms: C_3  and  C_4 
REMARK    4  A    between atoms: C_7  and  O_6 
REMARK    5  A    between atoms: C_9  and  C_10 
REMARK    6  A    between atoms: N_15  and  C_14 
REMARK    7  A    between atoms: N_20  and  C_19 
REMARK       I    between atoms: C_22  and  N_20 
ROOT
ATOM      1  C   LIG d   1      -0.168  78.682 116.018  0.00  0.00     0.161 C 
ATOM      2  C   LIG d   1      -1.231  79.054 115.178  0.00  0.00     0.016 C 
ATOM      3  C   LIG d   1      -1.949  78.135 114.378  0.00  0.00     0.038 C 
ATOM      4  C   LIG d   1      -1.749  76.750 114.479  0.00  0.00     0.028 C 
ATOM      5  C   LIG d   1      -0.345  76.373 114.939  0.00  0.00    -0.047 C 
ATOM      6  C   LIG d   1      -0.009  77.162 116.225  0.00  0.00     0.091 C 
ENDROOT
BRANCH   1   7
ATOM      7  O   LIG d   1      -0.293  79.351 117.288  0.00  0.00    -0.368 OA
BRANCH   7   8
ATOM      8  C   LIG d   1      -1.636  79.465 117.820  0.00  0.00     0.119 C 
BRANCH   8   9
ATOM      9  C   LIG d   1      -1.746  80.839 118.509  0.00  0.00     0.028 C 
ATOM     10  C   LIG d   1      -0.438  81.643 118.426  0.00  0.00     0.006 C 
ENDBRANCH   8   9
BRANCH   8  11
ATOM     11  C   LIG d   1      -1.888  78.435 118.925  0.00  0.00     0.028 C 
ATOM     12  C   LIG d   1      -2.898  77.353 118.512  0.00  0.00     0.006 C 
ENDBRANCH   8  11
ENDBRANCH   7   8
ENDBRANCH   1   7
BRANCH   6  13
ATOM     13  N   LIG d   1       1.379  76.915 116.695  0.00  0.00    -0.311 N 
ATOM     14  C   LIG d   1       1.672  76.479 117.920  0.00  0.00     0.210 C 
ATOM     15  C   LIG d   1       3.167  76.310 118.205  0.00  0.00     0.109 C 
ATOM     16  O   LIG d   1       0.833  76.185 118.785  0.00  0.00    -0.276 OA
ATOM     17  H   LIG d   1       2.119  77.097 116.047  0.00  0.00     0.149 HD
ENDBRANCH   6  13
BRANCH   5  18
ATOM     18  N   LIG d   1      -0.318  74.911 115.134  0.00  0.00     0.381 N 
ATOM     19  H   LIG d   1      -0.919  74.469 114.467  0.00  0.00    -0.090 HD
ATOM     20  H   LIG d   1      -0.659  74.699 116.055  0.00  0.00    -0.090 HD
ATOM     21  H   LIG d   1       0.612  74.570 115.030  0.00  0.00    -0.090 HD
ENDBRANCH   5  18
BRANCH   3  22
ATOM     22  C   LIG d   1      -2.852  78.603 113.435  0.00  0.00     0.382 C 
ATOM     23  O   LIG d   1      -3.116  79.828 113.375  0.00  0.00    -0.241 OA
ATOM     24  O   LIG d   1      -3.438  77.810 112.674  0.00  0.00    -0.241 OA
ENDBRANCH   3  22
TORSDOF 7
ENDMDL
MODEL 7
REMARK VINA RESULT:      -3.9      4.820      6.883
REMARK  7 active torsions:
REMARK  status: ('A' for Active; 'I' for Inactive)
REMARK    1  A    between atoms: C_2  and  C_3 
REMARK    2  A    between atoms: C_3  and  O_6 
REMARK    3  A    between atoms: C_3  and  C_4 
REMARK    4  A    between atoms: C_7  and  O_6 
REMARK    5  A    between atoms: C_9  and  C_10 
REMARK    6  A    between atoms: N_15  and  C_14 
REMARK    7  A    between atoms: N_20  and  C_19 
REMARK       I    between atoms: C_22  and  N_20 
ROOT
ATOM      1  C   LIG d   1      -2.047  78.581 115.158  0.00  0.00     0.161 C 
ATOM      2  C   LIG d   1      -2.372  79.805 114.551  0.00  0.00     0.016 C 
ATOM      3  C   LIG d   1      -2.246  80.043 113.163  0.00  0.00     0.038 C 
ATOM      4  C   LIG d   1      -1.928  79.017 112.261  0.00  0.00     0.028 C 
ATOM      5  C   LIG d   1      -1.103  77.896 112.884  0.00  0.00    -0.047 C 
ATOM      6  C   LIG d   1      -1.804  77.416 114.176  0.00  0.00     0.091 C 
ENDROOT
BRANCH   1   7
ATOM      7  O   LIG d   1      -3.064  78.225 116.116  0.00  0.00    -0.368 OA
BRANCH   7   8
ATOM      8  C   LIG d   1      -2.667  78.258 117.509  0.00  0.00     0.119 C 
BRANCH   8   9
ATOM      9  C   LIG d   1      -3.438  79.411 118.182  0.00  0.00     0.028 C 
ATOM     10  C   LIG d   1      -3.041  79.600 119.656  0.00  0.00     0.006 C 
ENDBRANCH   8   9
BRANCH   8  11
ATOM     11  C   LIG d   1      -1.186  78.619 117.658  0.00  0.00     0.028 C 
ATOM     12  C   LIG d   1      -0.360  77.491 118.297  0.00  0.00     0.006 C 
ENDBRANCH   8  11
ENDBRANCH   7   8
ENDBRANCH   1   7
BRANCH   6  13
ATOM     13  N   LIG d   1      -1.020  76.378 114.894  0.00  0.00    -0.311 N 
ATOM     14  C   LIG d   1      -1.571  75.313 115.474  0.00  0.00     0.210 C 
ATOM     15  C   LIG d   1      -0.584  74.376 116.178  0.00  0.00     0.109 C 
ATOM     16  O   LIG d   1      -2.780  75.038 115.445  0.00  0.00    -0.276 OA
ATOM     17  H   LIG d   1      -0.028  76.505 114.939  0.00  0.00     0.149 HD
ENDBRANCH   6  13
BRANCH   5  18
ATOM     18  N   LIG d   1      -0.962  76.831 111.873  0.00  0.00     0.381 N 
ATOM     19  H   LIG d   1      -1.448  77.090 111.038  0.00  0.00    -0.090 HD
ATOM     20  H   LIG d   1      -1.374  75.988 112.230  0.00  0.00    -0.090 HD
ATOM     21  H   LIG d   1       0.002  76.679 111.671  0.00  0.00    -0.090 HD
ENDBRANCH   5  18
BRANCH   3  22
ATOM     22  C   LIG d   1      -2.401  81.329 112.669  0.00  0.00     0.382 C 
ATOM     23  O   LIG d   1      -1.479  81.862 112.007  0.00  0.00    -0.241 OA
ATOM     24  O   LIG d   1      -3.434  81.980 112.916  0.00  0.00    -0.241 OA
ENDBRANCH   3  22
TORSDOF 7
ENDMDL
MODEL 8
REMARK VINA RESULT:      -3.9      1.756      4.877
REMARK  7 active torsions:
REMARK  status: ('A' for Active; 'I' for Inactive)
REMARK    1  A    between atoms: C_2  and  C_3 
REMARK    2  A    between atoms: C_3  and  O_6 
REMARK    3  A    between atoms: C_3  and  C_4 
REMARK    4  A    between atoms: C_7  and  O_6 
REMARK    5  A    between atoms: C_9  and  C_10 
REMARK    6  A    between atoms: N_15  and  C_14 
REMARK    7  A    between atoms: N_20  and  C_19 
REMARK       I    between atoms: C_22  and  N_20 
ROOT
ATOM      1  C   LIG d   1       0.940  82.192 112.154  0.00  0.00     0.161 C 
ATOM      2  C   LIG d   1      -0.259  81.614 112.603  0.00  0.00     0.016 C 
ATOM      3  C   LIG d   1      -0.779  80.404 112.090  0.00  0.00     0.038 C 
ATOM      4  C   LIG d   1      -0.054  79.607 111.192  0.00  0.00     0.028 C 
ATOM      5  C   LIG d   1       0.926  80.399 110.334  0.00  0.00    -0.047 C 
ATOM      6  C   LIG d   1       1.801  81.280 111.255  0.00  0.00     0.091 C 
ENDROOT
BRANCH   1   7
ATOM      7  O   LIG d   1       1.710  82.657 113.280  0.00  0.00    -0.368 OA
BRANCH   7   8
ATOM      8  C   LIG d   1       2.570  81.676 113.912  0.00  0.00     0.119 C 
BRANCH   8   9
ATOM      9  C   LIG d   1       2.186  81.615 115.403  0.00  0.00     0.028 C 
ATOM     10  C   LIG d   1       3.389  81.301 116.307  0.00  0.00     0.006 C 
ENDBRANCH   8   9
BRANCH   8  11
ATOM     11  C   LIG d   1       4.035  82.123 113.889  0.00  0.00     0.028 C 
ATOM     12  C   LIG d   1       4.208  83.576 113.421  0.00  0.00     0.006 C 
ENDBRANCH   8  11
ENDBRANCH   7   8
ENDBRANCH   1   7
BRANCH   6  13
ATOM     13  N   LIG d   1       2.730  82.152 110.490  0.00  0.00    -0.311 N 
ATOM     14  C   LIG d   1       3.989  81.816 110.213  0.00  0.00     0.210 C 
ATOM     15  C   LIG d   1       4.782  82.867 109.430  0.00  0.00     0.109 C 
ATOM     16  O   LIG d   1       4.515  80.733 110.513  0.00  0.00    -0.276 OA
ATOM     17  H   LIG d   1       2.377  83.036 110.180  0.00  0.00     0.149 HD
ENDBRANCH   6  13
BRANCH   5  18
ATOM     18  N   LIG d   1       1.711  79.431 109.544  0.00  0.00     0.381 N 
ATOM     19  H   LIG d   1       2.274  78.873 110.155  0.00  0.00    -0.090 HD
ATOM     20  H   LIG d   1       2.322  79.935 108.926  0.00  0.00    -0.090 HD
ATOM     21  H   LIG d   1       1.101  78.847 109.017  0.00  0.00    -0.090 HD
ENDBRANCH   5  18
BRANCH   3  22
ATOM     22  C   LIG d   1      -2.057  80.000 112.445  0.00  0.00     0.382 C 
ATOM     23  O   LIG d   1      -2.903  80.850 112.815  0.00  0.00    -0.241 OA
ATOM     24  O   LIG d   1      -2.362  78.792 112.442  0.00  0.00    -0.241 OA
ENDBRANCH   3  22
TORSDOF 7
ENDMDL
MODEL 9
REMARK VINA RESULT:      -3.9      3.698      6.466
REMARK  7 active torsions:
REMARK  status: ('A' for Active; 'I' for Inactive)
REMARK    1  A    between atoms: C_2  and  C_3 
REMARK    2  A    between atoms: C_3  and  O_6 
REMARK    3  A    between atoms: C_3  and  C_4 
REMARK    4  A    between atoms: C_7  and  O_6 
REMARK    5  A    between atoms: C_9  and  C_10 
REMARK    6  A    between atoms: N_15  and  C_14 
REMARK    7  A    between atoms: N_20  and  C_19 
REMARK       I    between atoms: C_22  and  N_20 
ROOT
ATOM      1  C   LIG d   1      -1.133  79.819 114.681  0.00  0.00     0.161 C 
ATOM      2  C   LIG d   1      -1.770  78.698 115.239  0.00  0.00     0.016 C 
ATOM      3  C   LIG d   1      -2.308  77.643 114.466  0.00  0.00     0.038 C 
ATOM      4  C   LIG d   1      -2.109  77.564 113.080  0.00  0.00     0.028 C 
ATOM      5  C   LIG d   1      -1.911  78.923 112.418  0.00  0.00    -0.047 C 
ATOM      6  C   LIG d   1      -0.808  79.696 113.177  0.00  0.00     0.091 C 
ENDROOT
BRANCH   1   7
ATOM      7  O   LIG d   1       0.062  80.124 115.427  0.00  0.00    -0.368 OA
BRANCH   7   8
ATOM      8  C   LIG d   1       0.004  79.870 116.853  0.00  0.00     0.119 C 
BRANCH   8   9
ATOM      9  C   LIG d   1       0.291  81.203 117.572  0.00  0.00     0.028 C 
ATOM     10  C   LIG d   1      -0.872  81.643 118.477  0.00  0.00     0.006 C 
ENDBRANCH   8   9
BRANCH   8  11
ATOM     11  C   LIG d   1       1.123  78.922 117.295  0.00  0.00     0.028 C 
ATOM     12  C   LIG d   1       0.590  77.637 117.950  0.00  0.00     0.006 C 
ENDBRANCH   8  11
ENDBRANCH   7   8
ENDBRANCH   1   7
BRANCH   6  13
ATOM     13  N   LIG d   1      -0.610  81.070 112.646  0.00  0.00    -0.311 N 
ATOM     14  C   LIG d   1       0.275  81.368 111.697  0.00  0.00     0.210 C 
ATOM     15  C   LIG d   1       0.332  82.849 111.308  0.00  0.00     0.109 C 
ATOM     16  O   LIG d   1       0.996  80.542 111.117  0.00  0.00    -0.276 OA
ATOM     17  H   LIG d   1      -1.176  81.797 113.038  0.00  0.00     0.149 HD
ENDBRANCH   6  13
BRANCH   5  18
ATOM     18  N   LIG d   1      -1.578  78.685 111.000  0.00  0.00     0.381 N 
ATOM     19  H   LIG d   1      -2.020  77.844 110.686  0.00  0.00    -0.090 HD
ATOM     20  H   LIG d   1      -0.584  78.569 110.915  0.00  0.00    -0.090 HD
ATOM     21  H   LIG d   1      -1.879  79.455 110.445  0.00  0.00    -0.090 HD
ENDBRANCH   5  18
BRANCH   3  22
ATOM     22  C   LIG d   1      -3.088  76.673 115.076  0.00  0.00     0.382 C 
ATOM     23  O   LIG d   1      -3.407  76.793 116.284  0.00  0.00    -0.241 OA
ATOM     24  O   LIG d   1      -3.440  75.658 114.447  0.00  0.00    -0.241 OA
ENDBRANCH   3  22
TORSDOF 7
ENDMDL
