MODEL 1
REMARK VINA RESULT:      -5.7      0.000      0.000
REMARK  7 active torsions:
REMARK  status: ('A' for Active; 'I' for Inactive)
REMARK    1  A    between atoms: C_2  and  C_3 
REMARK    2  A    between atoms: C_3  and  O_6 
REMARK    3  A    between atoms: C_3  and  C_4 
REMARK    4  A    between atoms: C_7  and  O_6 
REMARK    5  A    between atoms: C_9  and  C_10 
REMARK    6  A    between atoms: N_15  and  C_14 
REMARK    7  A    between atoms: N_20  and  C_19 
REMARK       I    between atoms: C_22  and  N_20 
ROOT
ATOM      1  C   LIG d   1       1.300  81.207 112.455  0.00  0.00     0.161 C 
ATOM      2  C   LIG d   1       2.390  81.707 111.725  0.00  0.00     0.016 C 
ATOM      3  C   LIG d   1       2.565  81.489 110.339  0.00  0.00     0.038 C 
ATOM      4  C   LIG d   1       1.575  80.878 109.554  0.00  0.00     0.028 C 
ATOM      5  C   LIG d   1       0.691  79.913 110.337  0.00  0.00    -0.047 C 
ATOM      6  C   LIG d   1       0.154  80.633 111.595  0.00  0.00     0.091 C 
ENDROOT
BRANCH   1   7
ATOM      7  O   LIG d   1       0.798  82.224 113.343  0.00  0.00    -0.368 OA
BRANCH   7   8
ATOM      8  C   LIG d   1       1.561  83.455 113.399  0.00  0.00     0.119 C 
BRANCH   8   9
ATOM      9  C   LIG d   1       2.058  83.627 114.847  0.00  0.00     0.028 C 
ATOM     10  C   LIG d   1       3.478  84.214 114.914  0.00  0.00     0.006 C 
ENDBRANCH   8   9
BRANCH   8  11
ATOM     11  C   LIG d   1       0.673  84.673 113.127  0.00  0.00     0.028 C 
ATOM     12  C   LIG d   1      -0.285  84.461 111.945  0.00  0.00     0.006 C 
ENDBRANCH   8  11
ENDBRANCH   7   8
ENDBRANCH   1   7
BRANCH   6  13
ATOM     13  N   LIG d   1      -0.652  79.734 112.461  0.00  0.00    -0.311 N 
ATOM     14  C   LIG d   1      -1.926  79.964 112.772  0.00  0.00     0.210 C 
ATOM     15  C   LIG d   1      -2.565  78.922 113.696  0.00  0.00     0.109 C 
ATOM     16  O   LIG d   1      -2.598  80.916 112.345  0.00  0.00    -0.276 OA
ATOM     17  H   LIG d   1      -0.195  78.921 112.826  0.00  0.00     0.149 HD
ENDBRANCH   6  13
BRANCH   5  18
ATOM     18  N   LIG d   1      -0.379  79.455 109.431  0.00  0.00     0.381 N 
ATOM     19  H   LIG d   1      -0.789  80.241 108.967  0.00  0.00    -0.090 HD
ATOM     20  H   LIG d   1      -1.093  79.002 109.975  0.00  0.00    -0.090 HD
ATOM     21  H   LIG d   1      -0.009  78.819 108.760  0.00  0.00    -0.090 HD
ENDBRANCH   5  18
BRANCH   3  22
ATOM     22  C   LIG d   1       3.758  81.849 109.731  0.00  0.00     0.382 C 
ATOM     23  O   LIG d   1       3.976  83.049 109.438  0.00  0.00    -0.241 OA
ATOM     24  O   LIG d   1       4.601  80.982 109.432  0.00  0.00    -0.241 OA
ENDBRANCH   3  22
TORSDOF 7
ENDMDL
MODEL 2
REMARK VINA RESULT:      -5.3      2.420      5.477
REMARK  7 active torsions:
REMARK  status: ('A' for Active; 'I' for Inactive)
REMARK    1  A    between atoms: C_2  and  C_3 
REMARK    2  A    between atoms: C_3  and  O_6 
REMARK    3  A    between atoms: C_3  and  C_4 
REMARK    4  A    between atoms: C_7  and  O_6 
REMARK    5  A    between atoms: C_9  and  C_10 
REMARK    6  A    between atoms: N_15  and  C_14 
REMARK    7  A    between atoms: N_20  and  C_19 
REMARK       I    between atoms: C_22  and  N_20 
ROOT
ATOM      1  C   LIG d   1      -0.118  80.127 111.448  0.00  0.00     0.161 C 
ATOM      2  C   LIG d   1      -1.224  79.281 111.256  0.00  0.00     0.016 C 
ATOM      3  C   LIG d   1      -1.935  78.678 112.319  0.00  0.00     0.038 C 
ATOM      4  C   LIG d   1      -1.680  79.001 113.660  0.00  0.00     0.028 C 
ATOM      5  C   LIG d   1      -0.248  79.460 113.911  0.00  0.00    -0.047 C 
ATOM      6  C   LIG d   1       0.104  80.580 112.906  0.00  0.00     0.091 C 
ENDROOT
BRANCH   1   7
ATOM      7  O   LIG d   1      -0.223  81.272 110.578  0.00  0.00    -0.368 OA
BRANCH   7   8
ATOM      8  C   LIG d   1       0.747  81.347 109.504  0.00  0.00     0.119 C 
BRANCH   8   9
ATOM      9  C   LIG d   1       1.896  80.380 109.850  0.00  0.00     0.028 C 
ATOM     10  C   LIG d   1       3.277  81.050 109.747  0.00  0.00     0.006 C 
ENDBRANCH   8   9
BRANCH   8  11
ATOM     11  C   LIG d   1       1.392  82.734 109.431  0.00  0.00     0.028 C 
ATOM     12  C   LIG d   1       0.586  83.806 110.182  0.00  0.00     0.006 C 
ENDBRANCH   8  11
ENDBRANCH   7   8
ENDBRANCH   1   7
BRANCH   6  13
ATOM     13  N   LIG d   1       1.516  81.027 113.027  0.00  0.00    -0.311 N 
ATOM     14  C   LIG d   1       1.866  82.273 113.342  0.00  0.00     0.210 C 
ATOM     15  C   LIG d   1       3.376  82.527 113.395  0.00  0.00     0.109 C 
ATOM     16  O   LIG d   1       1.070  83.184 113.615  0.00  0.00    -0.276 OA
ATOM     17  H   LIG d   1       2.228  80.345 112.853  0.00  0.00     0.149 HD
ENDBRANCH   6  13
BRANCH   5  18
ATOM     18  N   LIG d   1      -0.159  79.895 115.317  0.00  0.00     0.381 N 
ATOM     19  H   LIG d   1      -1.046  80.247 115.619  0.00  0.00    -0.090 HD
ATOM     20  H   LIG d   1       0.515  80.638 115.386  0.00  0.00    -0.090 HD
ATOM     21  H   LIG d   1       0.117  79.132 115.894  0.00  0.00    -0.090 HD
ENDBRANCH   5  18
BRANCH   3  22
ATOM     22  C   LIG d   1      -2.887  77.708 112.044  0.00  0.00     0.382 C 
ATOM     23  O   LIG d   1      -3.373  77.614 110.891  0.00  0.00    -0.241 OA
ATOM     24  O   LIG d   1      -3.299  76.954 112.947  0.00  0.00    -0.241 OA
ENDBRANCH   3  22
TORSDOF 7
ENDMDL
MODEL 3
REMARK VINA RESULT:      -5.3      1.368      1.841
REMARK  7 active torsions:
REMARK  status: ('A' for Active; 'I' for Inactive)
REMARK    1  A    between atoms: C_2  and  C_3 
REMARK    2  A    between atoms: C_3  and  O_6 
REMARK    3  A    between atoms: C_3  and  C_4 
REMARK    4  A    between atoms: C_7  and  O_6 
REMARK    5  A    between atoms: C_9  and  C_10 
REMARK    6  A    between atoms: N_15  and  C_14 
REMARK    7  A    between atoms: N_20  and  C_19 
REMARK       I    between atoms: C_22  and  N_20 
ROOT
ATOM      1  C   LIG d   1       1.625  81.389 112.738  0.00  0.00     0.161 C 
ATOM      2  C   LIG d   1       2.670  82.064 112.085  0.00  0.00     0.016 C 
ATOM      3  C   LIG d   1       2.790  82.135 110.678  0.00  0.00     0.038 C 
ATOM      4  C   LIG d   1       1.784  81.662 109.823  0.00  0.00     0.028 C 
ATOM      5  C   LIG d   1       0.961  80.529 110.426  0.00  0.00    -0.047 C 
ATOM      6  C   LIG d   1       0.459  80.961 111.822  0.00  0.00     0.091 C 
ENDROOT
BRANCH   1   7
ATOM      7  O   LIG d   1       1.135  82.189 113.833  0.00  0.00    -0.368 OA
BRANCH   7   8
ATOM      8  C   LIG d   1       2.103  82.533 114.854  0.00  0.00     0.119 C 
BRANCH   8   9
ATOM      9  C   LIG d   1       2.249  81.312 115.784  0.00  0.00     0.028 C 
ATOM     10  C   LIG d   1       3.683  80.757 115.803  0.00  0.00     0.006 C 
ENDBRANCH   8   9
BRANCH   8  11
ATOM     11  C   LIG d   1       1.590  83.665 115.749  0.00  0.00     0.028 C 
ATOM     12  C   LIG d   1       1.013  83.158 117.080  0.00  0.00     0.006 C 
ENDBRANCH   8  11
ENDBRANCH   7   8
ENDBRANCH   1   7
BRANCH   6  13
ATOM     13  N   LIG d   1      -0.285  79.879 112.518  0.00  0.00    -0.311 N 
ATOM     14  C   LIG d   1      -1.608  79.885 112.679  0.00  0.00     0.210 C 
ATOM     15  C   LIG d   1      -2.172  78.682 113.442  0.00  0.00     0.109 C 
ATOM     16  O   LIG d   1      -2.370  80.756 112.234  0.00  0.00    -0.276 OA
ATOM     17  H   LIG d   1       0.252  79.117 112.883  0.00  0.00     0.149 HD
ENDBRANCH   6  13
BRANCH   5  18
ATOM     18  N   LIG d   1      -0.135  80.226 109.486  0.00  0.00     0.381 N 
ATOM     19  H   LIG d   1       0.084  79.400 108.965  0.00  0.00    -0.090 HD
ATOM     20  H   LIG d   1      -0.231  80.990 108.841  0.00  0.00    -0.090 HD
ATOM     21  H   LIG d   1      -0.987  80.095 109.986  0.00  0.00    -0.090 HD
ENDBRANCH   5  18
BRANCH   3  22
ATOM     22  C   LIG d   1       3.947  82.651 110.113  0.00  0.00     0.382 C 
ATOM     23  O   LIG d   1       4.009  83.867 109.812  0.00  0.00    -0.241 OA
ATOM     24  O   LIG d   1       4.912  81.906 109.860  0.00  0.00    -0.241 OA
ENDBRANCH   3  22
TORSDOF 7
ENDMDL
MODEL 4
REMARK VINA RESULT:      -4.8      1.806      4.909
REMARK  7 active torsions:
REMARK  status: ('A' for Active; 'I' for Inactive)
REMARK    1  A    between atoms: C_2  and  C_3 
REMARK    2  A    between atoms: C_3  and  O_6 
REMARK    3  A    between atoms: C_3  and  C_4 
REMARK    4  A    between atoms: C_7  and  O_6 
REMARK    5  A    between atoms: C_9  and  C_10 
REMARK    6  A    between atoms: N_15  and  C_14 
REMARK    7  A    between atoms: N_20  and  C_19 
REMARK       I    between atoms: C_22  and  N_20 
ROOT
ATOM      1  C   LIG d   1       0.519  82.042 111.879  0.00  0.00     0.161 C 
ATOM      2  C   LIG d   1      -0.709  81.570 112.371  0.00  0.00     0.016 C 
ATOM      3  C   LIG d   1      -1.290  80.346 111.968  0.00  0.00     0.038 C 
ATOM      4  C   LIG d   1      -0.605  79.433 111.152  0.00  0.00     0.028 C 
ATOM      5  C   LIG d   1       0.416  80.092 110.231  0.00  0.00    -0.047 C 
ATOM      6  C   LIG d   1       1.333  81.009 111.073  0.00  0.00     0.091 C 
ENDROOT
BRANCH   1   7
ATOM      7  O   LIG d   1       1.310  82.568 112.963  0.00  0.00    -0.368 OA
BRANCH   7   8
ATOM      8  C   LIG d   1       2.144  81.614 113.665  0.00  0.00     0.119 C 
BRANCH   8   9
ATOM      9  C   LIG d   1       1.417  81.234 114.968  0.00  0.00     0.028 C 
ATOM     10  C   LIG d   1       2.176  81.700 116.222  0.00  0.00     0.006 C 
ENDBRANCH   8   9
BRANCH   8  11
ATOM     11  C   LIG d   1       3.465  82.250 114.108  0.00  0.00     0.028 C 
ATOM     12  C   LIG d   1       3.631  83.693 113.605  0.00  0.00     0.006 C 
ENDBRANCH   8  11
ENDBRANCH   7   8
ENDBRANCH   1   7
BRANCH   6  13
ATOM     13  N   LIG d   1       2.308  81.757 110.238  0.00  0.00    -0.311 N 
ATOM     14  C   LIG d   1       3.628  81.652 110.381  0.00  0.00     0.210 C 
ATOM     15  C   LIG d   1       4.453  82.526 109.430  0.00  0.00     0.109 C 
ATOM     16  O   LIG d   1       4.195  80.895 111.182  0.00  0.00    -0.276 OA
ATOM     17  H   LIG d   1       1.935  82.371 109.541  0.00  0.00     0.149 HD
ENDBRANCH   6  13
BRANCH   5  18
ATOM     18  N   LIG d   1       1.152  79.016 109.540  0.00  0.00     0.381 N 
ATOM     19  H   LIG d   1       2.096  78.986 109.869  0.00  0.00    -0.090 HD
ATOM     20  H   LIG d   1       1.167  79.215 108.555  0.00  0.00    -0.090 HD
ATOM     21  H   LIG d   1       0.707  78.140 109.703  0.00  0.00    -0.090 HD
ENDBRANCH   5  18
BRANCH   3  22
ATOM     22  C   LIG d   1      -2.588  80.042 112.350  0.00  0.00     0.382 C 
ATOM     23  O   LIG d   1      -3.025  78.874 112.215  0.00  0.00    -0.241 OA
ATOM     24  O   LIG d   1      -3.343  80.932 112.786  0.00  0.00    -0.241 OA
ENDBRANCH   3  22
TORSDOF 7
ENDMDL
MODEL 5
REMARK VINA RESULT:      -4.3      3.609      5.056
REMARK  7 active torsions:
REMARK  status: ('A' for Active; 'I' for Inactive)
REMARK    1  A    between atoms: C_2  and  C_3 
REMARK    2  A    between atoms: C_3  and  O_6 
REMARK    3  A    between atoms: C_3  and  C_4 
REMARK    4  A    between atoms: C_7  and  O_6 
REMARK    5  A    between atoms: C_9  and  C_10 
REMARK    6  A    between atoms: N_15  and  C_14 
REMARK    7  A    between atoms: N_20  and  C_19 
REMARK       I    between atoms: C_22  and  N_20 
ROOT
ATOM      1  C   LIG d   1       3.440  81.426 113.936  0.00  0.00     0.161 C 
ATOM      2  C   LIG d   1       4.047  81.644 112.688  0.00  0.00     0.016 C 
ATOM      3  C   LIG d   1       3.607  82.625 111.770  0.00  0.00     0.038 C 
ATOM      4  C   LIG d   1       2.619  83.563 112.104  0.00  0.00     0.028 C 
ATOM      5  C   LIG d   1       1.637  83.059 113.156  0.00  0.00    -0.047 C 
ATOM      6  C   LIG d   1       2.432  82.512 114.363  0.00  0.00     0.091 C 
ENDROOT
BRANCH   1   7
ATOM      7  O   LIG d   1       4.452  81.255 114.948  0.00  0.00    -0.368 OA
BRANCH   7   8
ATOM      8  C   LIG d   1       4.629  79.908 115.452  0.00  0.00     0.119 C 
BRANCH   8   9
ATOM      9  C   LIG d   1       4.810  80.005 116.979  0.00  0.00     0.028 C 
ATOM     10  C   LIG d   1       3.607  79.439 117.751  0.00  0.00     0.006 C 
ENDBRANCH   8   9
BRANCH   8  11
ATOM     11  C   LIG d   1       5.925  79.283 114.928  0.00  0.00     0.028 C 
ATOM     12  C   LIG d   1       6.550  78.289 115.920  0.00  0.00     0.006 C 
ENDBRANCH   8  11
ENDBRANCH   7   8
ENDBRANCH   1   7
BRANCH   6  13
ATOM     13  N   LIG d   1       1.549  81.923 115.403  0.00  0.00    -0.311 N 
ATOM     14  C   LIG d   1       1.540  82.326 116.673  0.00  0.00     0.210 C 
ATOM     15  C   LIG d   1       0.568  81.571 117.584  0.00  0.00     0.109 C 
ATOM     16  O   LIG d   1       2.222  83.259 117.123  0.00  0.00    -0.276 OA
ATOM     17  H   LIG d   1       0.940  81.181 115.117  0.00  0.00     0.149 HD
ENDBRANCH   6  13
BRANCH   5  18
ATOM     18  N   LIG d   1       0.748  84.182 113.509  0.00  0.00     0.381 N 
ATOM     19  H   LIG d   1       0.985  84.986 112.964  0.00  0.00    -0.090 HD
ATOM     20  H   LIG d   1       0.880  84.409 114.479  0.00  0.00    -0.090 HD
ATOM     21  H   LIG d   1      -0.202  83.929 113.347  0.00  0.00    -0.090 HD
ENDBRANCH   5  18
BRANCH   3  22
ATOM     22  C   LIG d   1       4.132  82.650 110.486  0.00  0.00     0.382 C 
ATOM     23  O   LIG d   1       4.770  81.661 110.051  0.00  0.00    -0.241 OA
ATOM     24  O   LIG d   1       4.012  83.664 109.774  0.00  0.00    -0.241 OA
ENDBRANCH   3  22
TORSDOF 7
ENDMDL
MODEL 6
REMARK VINA RESULT:      -4.3      5.607      7.134
REMARK  7 active torsions:
REMARK  status: ('A' for Active; 'I' for Inactive)
REMARK    1  A    between atoms: C_2  and  C_3 
REMARK    2  A    between atoms: C_3  and  O_6 
REMARK    3  A    between atoms: C_3  and  C_4 
REMARK    4  A    between atoms: C_7  and  O_6 
REMARK    5  A    between atoms: C_9  and  C_10 
REMARK    6  A    between atoms: N_15  and  C_14 
REMARK    7  A    between atoms: N_20  and  C_19 
REMARK       I    between atoms: C_22  and  N_20 
ROOT
ATOM      1  C   LIG d   1      -0.063  78.514 116.161  0.00  0.00     0.161 C 
ATOM      2  C   LIG d   1      -1.067  79.015 115.316  0.00  0.00     0.016 C 
ATOM      3  C   LIG d   1      -1.822  78.203 114.438  0.00  0.00     0.038 C 
ATOM      4  C   LIG d   1      -1.727  76.804 114.456  0.00  0.00     0.028 C 
ATOM      5  C   LIG d   1      -0.370  76.295 114.931  0.00  0.00    -0.047 C 
ATOM      6  C   LIG d   1      -0.022  76.975 116.275  0.00  0.00     0.091 C 
ENDROOT
BRANCH   1   7
ATOM      7  O   LIG d   1      -0.182  79.110 117.468  0.00  0.00    -0.368 OA
BRANCH   7   8
ATOM      8  C   LIG d   1      -1.472  79.683 117.792  0.00  0.00     0.119 C 
BRANCH   8   9
ATOM      9  C   LIG d   1      -1.217  81.029 118.498  0.00  0.00     0.028 C 
ATOM     10  C   LIG d   1       0.012  81.763 117.935  0.00  0.00     0.006 C 
ENDBRANCH   8   9
BRANCH   8  11
ATOM     11  C   LIG d   1      -2.223  78.825 118.814  0.00  0.00     0.028 C 
ATOM     12  C   LIG d   1      -3.212  77.847 118.160  0.00  0.00     0.006 C 
ENDBRANCH   8  11
ENDBRANCH   7   8
ENDBRANCH   1   7
BRANCH   6  13
ATOM     13  N   LIG d   1       1.328  76.597 116.769  0.00  0.00    -0.311 N 
ATOM     14  C   LIG d   1       1.541  75.603 117.630  0.00  0.00     0.210 C 
ATOM     15  C   LIG d   1       3.006  75.393 118.025  0.00  0.00     0.109 C 
ATOM     16  O   LIG d   1       0.660  74.856 118.080  0.00  0.00    -0.276 OA
ATOM     17  H   LIG d   1       2.104  77.131 116.431  0.00  0.00     0.149 HD
ENDBRANCH   6  13
BRANCH   5  18
ATOM     18  N   LIG d   1      -0.456  74.826 115.033  0.00  0.00     0.381 N 
ATOM     19  H   LIG d   1      -1.405  74.533 114.912  0.00  0.00    -0.090 HD
ATOM     20  H   LIG d   1      -0.154  74.545 115.949  0.00  0.00    -0.090 HD
ATOM     21  H   LIG d   1       0.121  74.402 114.340  0.00  0.00    -0.090 HD
ENDBRANCH   5  18
BRANCH   3  22
ATOM     22  C   LIG d   1      -2.655  78.795 113.501  0.00  0.00     0.382 C 
ATOM     23  O   LIG d   1      -2.885  80.027 113.556  0.00  0.00    -0.241 OA
ATOM     24  O   LIG d   1      -3.215  78.105 112.628  0.00  0.00    -0.241 OA
ENDBRANCH   3  22
TORSDOF 7
ENDMDL
MODEL 7
REMARK VINA RESULT:      -4.2      4.310      6.059
REMARK  7 active torsions:
REMARK  status: ('A' for Active; 'I' for Inactive)
REMARK    1  A    between atoms: C_2  and  C_3 
REMARK    2  A    between atoms: C_3  and  O_6 
REMARK    3  A    between atoms: C_3  and  C_4 
REMARK    4  A    between atoms: C_7  and  O_6 
REMARK    5  A    between atoms: C_9  and  C_10 
REMARK    6  A    between atoms: N_15  and  C_14 
REMARK    7  A    between atoms: N_20  and  C_19 
REMARK       I    between atoms: C_22  and  N_20 
ROOT
ATOM      1  C   LIG d   1       4.339  81.200 114.396  0.00  0.00     0.161 C 
ATOM      2  C   LIG d   1       5.164  80.063 114.447  0.00  0.00     0.016 C 
ATOM      3  C   LIG d   1       5.295  79.248 115.594  0.00  0.00     0.038 C 
ATOM      4  C   LIG d   1       4.488  79.428 116.728  0.00  0.00     0.028 C 
ATOM      5  C   LIG d   1       4.008  80.864 116.907  0.00  0.00    -0.047 C 
ATOM      6  C   LIG d   1       3.368  81.348 115.586  0.00  0.00     0.091 C 
ENDROOT
BRANCH   1   7
ATOM      7  O   LIG d   1       3.613  81.221 113.151  0.00  0.00    -0.368 OA
BRANCH   7   8
ATOM      8  C   LIG d   1       4.063  82.185 112.167  0.00  0.00     0.119 C 
BRANCH   8   9
ATOM      9  C   LIG d   1       2.997  83.294 112.084  0.00  0.00     0.028 C 
ATOM     10  C   LIG d   1       3.532  84.660 112.546  0.00  0.00     0.006 C 
ENDBRANCH   8   9
BRANCH   8  11
ATOM     11  C   LIG d   1       4.117  81.568 110.767  0.00  0.00     0.028 C 
ATOM     12  C   LIG d   1       4.729  82.515 109.722  0.00  0.00     0.006 C 
ENDBRANCH   8  11
ENDBRANCH   7   8
ENDBRANCH   1   7
BRANCH   6  13
ATOM     13  N   LIG d   1       2.947  82.772 115.648  0.00  0.00    -0.311 N 
ATOM     14  C   LIG d   1       1.750  83.164 116.080  0.00  0.00     0.210 C 
ATOM     15  C   LIG d   1       1.513  84.677 116.043  0.00  0.00     0.109 C 
ATOM     16  O   LIG d   1       0.873  82.405 116.520  0.00  0.00    -0.276 OA
ATOM     17  H   LIG d   1       3.608  83.457 115.339  0.00  0.00     0.149 HD
ENDBRANCH   6  13
BRANCH   5  18
ATOM     18  N   LIG d   1       3.069  80.881 118.045  0.00  0.00     0.381 N 
ATOM     19  H   LIG d   1       2.503  80.056 118.029  0.00  0.00    -0.090 HD
ATOM     20  H   LIG d   1       2.465  81.679 117.956  0.00  0.00    -0.090 HD
ATOM     21  H   LIG d   1       3.573  80.931 118.902  0.00  0.00    -0.090 HD
ENDBRANCH   5  18
BRANCH   3  22
ATOM     22  C   LIG d   1       6.269  78.262 115.629  0.00  0.00     0.382 C 
ATOM     23  O   LIG d   1       6.454  77.600 116.679  0.00  0.00    -0.241 OA
ATOM     24  O   LIG d   1       6.997  78.057 114.639  0.00  0.00    -0.241 OA
ENDBRANCH   3  22
TORSDOF 7
ENDMDL
MODEL 8
REMARK VINA RESULT:      -4.2      4.822      7.425
REMARK  7 active torsions:
REMARK  status: ('A' for Active; 'I' for Inactive)
REMARK    1  A    between atoms: C_2  and  C_3 
REMARK    2  A    between atoms: C_3  and  O_6 
REMARK    3  A    between atoms: C_3  and  C_4 
REMARK    4  A    between atoms: C_7  and  O_6 
REMARK    5  A    between atoms: C_9  and  C_10 
REMARK    6  A    between atoms: N_15  and  C_14 
REMARK    7  A    between atoms: N_20  and  C_19 
REMARK       I    between atoms: C_22  and  N_20 
ROOT
ATOM      1  C   LIG d   1      -1.952  78.258 116.401  0.00  0.00     0.161 C 
ATOM      2  C   LIG d   1      -1.759  77.541 117.593  0.00  0.00     0.016 C 
ATOM      3  C   LIG d   1      -1.013  76.343 117.669  0.00  0.00     0.038 C 
ATOM      4  C   LIG d   1      -0.277  75.857 116.577  0.00  0.00     0.028 C 
ATOM      5  C   LIG d   1      -0.851  76.273 115.227  0.00  0.00    -0.047 C 
ATOM      6  C   LIG d   1      -1.065  77.804 115.222  0.00  0.00     0.091 C 
ENDROOT
BRANCH   1   7
ATOM      7  O   LIG d   1      -1.778  79.668 116.644  0.00  0.00    -0.368 OA
BRANCH   7   8
ATOM      8  C   LIG d   1      -0.862  80.022 117.710  0.00  0.00     0.119 C 
BRANCH   8   9
ATOM      9  C   LIG d   1      -1.487  81.198 118.485  0.00  0.00     0.028 C 
ATOM     10  C   LIG d   1      -0.601  82.455 118.458  0.00  0.00     0.006 C 
ENDBRANCH   8   9
BRANCH   8  11
ATOM     11  C   LIG d   1       0.459  80.560 117.152  0.00  0.00     0.028 C 
ATOM     12  C   LIG d   1       1.579  79.507 117.153  0.00  0.00     0.006 C 
ENDBRANCH   8  11
ENDBRANCH   7   8
ENDBRANCH   1   7
BRANCH   6  13
ATOM     13  N   LIG d   1      -1.702  78.283 113.968  0.00  0.00    -0.311 N 
ATOM     14  C   LIG d   1      -1.296  79.366 113.307  0.00  0.00     0.210 C 
ATOM     15  C   LIG d   1      -2.105  79.695 112.048  0.00  0.00     0.109 C 
ATOM     16  O   LIG d   1      -0.324  80.066 113.626  0.00  0.00    -0.276 OA
ATOM     17  H   LIG d   1      -2.480  77.756 113.622  0.00  0.00     0.149 HD
ENDBRANCH   6  13
BRANCH   5  18
ATOM     18  N   LIG d   1       0.088  75.817 114.184  0.00  0.00     0.381 N 
ATOM     19  H   LIG d   1       0.581  76.601 113.807  0.00  0.00    -0.090 HD
ATOM     20  H   LIG d   1      -0.435  75.386 113.442  0.00  0.00    -0.090 HD
ATOM     21  H   LIG d   1       0.733  75.163 114.569  0.00  0.00    -0.090 HD
ENDBRANCH   5  18
BRANCH   3  22
ATOM     22  C   LIG d   1      -1.030  75.595 118.836  0.00  0.00     0.382 C 
ATOM     23  O   LIG d   1      -0.743  74.374 118.803  0.00  0.00    -0.241 OA
ATOM     24  O   LIG d   1      -1.371  76.116 119.915  0.00  0.00    -0.241 OA
ENDBRANCH   3  22
TORSDOF 7
ENDMDL
MODEL 9
REMARK VINA RESULT:      -4.1      5.349      6.905
REMARK  7 active torsions:
REMARK  status: ('A' for Active; 'I' for Inactive)
REMARK    1  A    between atoms: C_2  and  C_3 
REMARK    2  A    between atoms: C_3  and  O_6 
REMARK    3  A    between atoms: C_3  and  C_4 
REMARK    4  A    between atoms: C_7  and  O_6 
REMARK    5  A    between atoms: C_9  and  C_10 
REMARK    6  A    between atoms: N_15  and  C_14 
REMARK    7  A    between atoms: N_20  and  C_19 
REMARK       I    between atoms: C_22  and  N_20 
ROOT
ATOM      1  C   LIG d   1       0.103  78.328 116.264  0.00  0.00     0.161 C 
ATOM      2  C   LIG d   1      -0.945  78.870 115.501  0.00  0.00     0.016 C 
ATOM      3  C   LIG d   1      -1.770  78.097 114.652  0.00  0.00     0.038 C 
ATOM      4  C   LIG d   1      -1.699  76.696 114.624  0.00  0.00     0.028 C 
ATOM      5  C   LIG d   1      -0.324  76.152 114.994  0.00  0.00    -0.047 C 
ATOM      6  C   LIG d   1       0.124  76.787 116.331  0.00  0.00     0.091 C 
ENDROOT
BRANCH   1   7
ATOM      7  O   LIG d   1       0.081  78.887 117.592  0.00  0.00    -0.368 OA
BRANCH   7   8
ATOM      8  C   LIG d   1       1.097  79.878 117.884  0.00  0.00     0.119 C 
BRANCH   8   9
ATOM      9  C   LIG d   1       0.463  81.267 117.676  0.00  0.00     0.028 C 
ATOM     10  C   LIG d   1      -0.924  81.382 118.330  0.00  0.00     0.006 C 
ENDBRANCH   8   9
BRANCH   8  11
ATOM     11  C   LIG d   1       2.251  79.805 116.879  0.00  0.00     0.028 C 
ATOM     12  C   LIG d   1       2.717  81.190 116.405  0.00  0.00     0.006 C 
ENDBRANCH   8  11
ENDBRANCH   7   8
ENDBRANCH   1   7
BRANCH   6  13
ATOM     13  N   LIG d   1       1.496  76.372 116.723  0.00  0.00    -0.311 N 
ATOM     14  C   LIG d   1       1.769  75.714 117.848  0.00  0.00     0.210 C 
ATOM     15  C   LIG d   1       3.253  75.401 118.070  0.00  0.00     0.109 C 
ATOM     16  O   LIG d   1       0.921  75.331 118.667  0.00  0.00    -0.276 OA
ATOM     17  H   LIG d   1       2.242  76.615 116.101  0.00  0.00     0.149 HD
ENDBRANCH   6  13
BRANCH   5  18
ATOM     18  N   LIG d   1      -0.429  74.682 115.059  0.00  0.00     0.381 N 
ATOM     19  H   LIG d   1       0.464  74.288 115.281  0.00  0.00    -0.090 HD
ATOM     20  H   LIG d   1      -0.710  74.336 114.158  0.00  0.00    -0.090 HD
ATOM     21  H   LIG d   1      -1.097  74.418 115.748  0.00  0.00    -0.090 HD
ENDBRANCH   5  18
BRANCH   3  22
ATOM     22  C   LIG d   1      -2.653  78.729 113.790  0.00  0.00     0.382 C 
ATOM     23  O   LIG d   1      -2.864  79.961 113.901  0.00  0.00    -0.241 OA
ATOM     24  O   LIG d   1      -3.274  78.076 112.931  0.00  0.00    -0.241 OA
ENDBRANCH   3  22
TORSDOF 7
ENDMDL
