MODEL 1
REMARK VINA RESULT:      -3.9      0.000      0.000
REMARK  7 active torsions:
REMARK  status: ('A' for Active; 'I' for Inactive)
REMARK    1  A    between atoms: C_2  and  C_3 
REMARK    2  A    between atoms: C_3  and  O_6 
REMARK    3  A    between atoms: C_3  and  C_4 
REMARK    4  A    between atoms: C_7  and  O_6 
REMARK    5  A    between atoms: C_9  and  C_10 
REMARK    6  A    between atoms: N_15  and  C_14 
REMARK    7  A    between atoms: N_20  and  C_19 
REMARK       I    between atoms: C_22  and  N_20 
ROOT
ATOM      1  C   LIG d   1       1.851  80.985 112.589  0.00  0.00     0.161 C 
ATOM      2  C   LIG d   1       2.809  81.673 111.826  0.00  0.00     0.016 C 
ATOM      3  C   LIG d   1       2.811  81.692 110.412  0.00  0.00     0.038 C 
ATOM      4  C   LIG d   1       1.759  81.144 109.662  0.00  0.00     0.028 C 
ATOM      5  C   LIG d   1       1.036  80.005 110.374  0.00  0.00    -0.047 C 
ATOM      6  C   LIG d   1       0.633  80.475 111.790  0.00  0.00     0.091 C 
ENDROOT
BRANCH   1   7
ATOM      7  O   LIG d   1       1.419  81.809 113.689  0.00  0.00    -0.368 OA
BRANCH   7   8
ATOM      8  C   LIG d   1       2.423  82.118 114.687  0.00  0.00     0.119 C 
BRANCH   8   9
ATOM      9  C   LIG d   1       2.237  81.127 115.852  0.00  0.00     0.028 C 
ATOM     10  C   LIG d   1       2.313  81.814 117.226  0.00  0.00     0.006 C 
ENDBRANCH   8   9
BRANCH   8  11
ATOM     11  C   LIG d   1       2.196  83.505 115.295  0.00  0.00     0.028 C 
ATOM     12  C   LIG d   1       2.662  84.643 114.374  0.00  0.00     0.006 C 
ENDBRANCH   8  11
ENDBRANCH   7   8
ENDBRANCH   1   7
BRANCH   6  13
ATOM     13  N   LIG d   1      -0.005  79.393 112.585  0.00  0.00    -0.311 N 
ATOM     14  C   LIG d   1      -1.323  79.267 112.727  0.00  0.00     0.210 C 
ATOM     15  C   LIG d   1      -1.771  78.094 113.605  0.00  0.00     0.109 C 
ATOM     16  O   LIG d   1      -2.166  79.996 112.182  0.00  0.00    -0.276 OA
ATOM     17  H   LIG d   1       0.604  78.739 113.036  0.00  0.00     0.149 HD
ENDBRANCH   6  13
BRANCH   5  18
ATOM     18  N   LIG d   1      -0.119  79.621 109.541  0.00  0.00     0.381 N 
ATOM     19  H   LIG d   1      -0.968  79.789 110.042  0.00  0.00    -0.090 HD
ATOM     20  H   LIG d   1      -0.061  78.639 109.338  0.00  0.00    -0.090 HD
ATOM     21  H   LIG d   1      -0.117  80.144 108.693  0.00  0.00    -0.090 HD
ENDBRANCH   5  18
BRANCH   3  22
ATOM     22  C   LIG d   1       3.894  82.229 109.733  0.00  0.00     0.382 C 
ATOM     23  O   LIG d   1       4.870  81.500 109.435  0.00  0.00    -0.241 OA
ATOM     24  O   LIG d   1       3.926  83.442 109.455  0.00  0.00    -0.241 OA
ENDBRANCH   3  22
TORSDOF 7
ENDMDL
MODEL 2
REMARK VINA RESULT:      -3.8      4.358      7.623
REMARK  7 active torsions:
REMARK  status: ('A' for Active; 'I' for Inactive)
REMARK    1  A    between atoms: C_2  and  C_3 
REMARK    2  A    between atoms: C_3  and  O_6 
REMARK    3  A    between atoms: C_3  and  C_4 
REMARK    4  A    between atoms: C_7  and  O_6 
REMARK    5  A    between atoms: C_9  and  C_10 
REMARK    6  A    between atoms: N_15  and  C_14 
REMARK    7  A    between atoms: N_20  and  C_19 
REMARK       I    between atoms: C_22  and  N_20 
ROOT
ATOM      1  C   LIG d   1      -0.646  78.437 115.446  0.00  0.00     0.161 C 
ATOM      2  C   LIG d   1      -1.049  77.202 114.913  0.00  0.00     0.016 C 
ATOM      3  C   LIG d   1      -1.633  76.173 115.688  0.00  0.00     0.038 C 
ATOM      4  C   LIG d   1      -1.994  76.369 117.029  0.00  0.00     0.028 C 
ATOM      5  C   LIG d   1      -1.148  77.422 117.737  0.00  0.00    -0.047 C 
ATOM      6  C   LIG d   1      -1.134  78.711 116.884  0.00  0.00     0.091 C 
ENDROOT
BRANCH   1   7
ATOM      7  O   LIG d   1      -1.053  79.505 114.567  0.00  0.00    -0.368 OA
BRANCH   7   8
ATOM      8  C   LIG d   1      -1.052  79.199 113.151  0.00  0.00     0.119 C 
BRANCH   8   9
ATOM      9  C   LIG d   1      -0.038  80.141 112.475  0.00  0.00     0.028 C 
ATOM     10  C   LIG d   1       0.167  79.813 110.986  0.00  0.00     0.006 C 
ENDBRANCH   8   9
BRANCH   8  11
ATOM     11  C   LIG d   1      -2.403  79.530 112.509  0.00  0.00     0.028 C 
ATOM     12  C   LIG d   1      -2.802  81.003 112.686  0.00  0.00     0.006 C 
ENDBRANCH   8  11
ENDBRANCH   7   8
ENDBRANCH   1   7
BRANCH   6  13
ATOM     13  N   LIG d   1      -0.260  79.764 117.463  0.00  0.00    -0.311 N 
ATOM     14  C   LIG d   1      -0.674  80.640 118.377  0.00  0.00     0.210 C 
ATOM     15  C   LIG d   1       0.383  81.655 118.825  0.00  0.00     0.109 C 
ATOM     16  O   LIG d   1      -1.806  80.653 118.882  0.00  0.00    -0.276 OA
ATOM     17  H   LIG d   1       0.684  79.806 117.132  0.00  0.00     0.149 HD
ENDBRANCH   6  13
BRANCH   5  18
ATOM     18  N   LIG d   1      -1.720  77.623 119.081  0.00  0.00     0.381 N 
ATOM     19  H   LIG d   1      -1.113  78.204 119.624  0.00  0.00    -0.090 HD
ATOM     20  H   LIG d   1      -1.796  76.732 119.539  0.00  0.00    -0.090 HD
ATOM     21  H   LIG d   1      -2.619  78.046 119.009  0.00  0.00    -0.090 HD
ENDBRANCH   5  18
BRANCH   3  22
ATOM     22  C   LIG d   1      -1.824  74.918 115.131  0.00  0.00     0.382 C 
ATOM     23  O   LIG d   1      -2.919  74.324 115.284  0.00  0.00    -0.241 OA
ATOM     24  O   LIG d   1      -0.900  74.352 114.515  0.00  0.00    -0.241 OA
ENDBRANCH   3  22
TORSDOF 7
ENDMDL
MODEL 3
REMARK VINA RESULT:      -3.8      3.738      6.513
REMARK  7 active torsions:
REMARK  status: ('A' for Active; 'I' for Inactive)
REMARK    1  A    between atoms: C_2  and  C_3 
REMARK    2  A    between atoms: C_3  and  O_6 
REMARK    3  A    between atoms: C_3  and  C_4 
REMARK    4  A    between atoms: C_7  and  O_6 
REMARK    5  A    between atoms: C_9  and  C_10 
REMARK    6  A    between atoms: N_15  and  C_14 
REMARK    7  A    between atoms: N_20  and  C_19 
REMARK       I    between atoms: C_22  and  N_20 
ROOT
ATOM      1  C   LIG d   1      -1.100  78.702 115.781  0.00  0.00     0.161 C 
ATOM      2  C   LIG d   1      -1.060  77.479 116.470  0.00  0.00     0.016 C 
ATOM      3  C   LIG d   1      -1.051  76.221 115.823  0.00  0.00     0.038 C 
ATOM      4  C   LIG d   1      -0.927  76.105 114.431  0.00  0.00     0.028 C 
ATOM      5  C   LIG d   1      -1.472  77.310 113.671  0.00  0.00    -0.047 C 
ATOM      6  C   LIG d   1      -0.853  78.597 114.262  0.00  0.00     0.091 C 
ENDROOT
BRANCH   1   7
ATOM      7  O   LIG d   1      -0.170  79.629 116.377  0.00  0.00    -0.368 OA
BRANCH   7   8
ATOM      8  C   LIG d   1       0.068  79.469 117.797  0.00  0.00     0.119 C 
BRANCH   8   9
ATOM      9  C   LIG d   1      -0.584  80.667 118.514  0.00  0.00     0.028 C 
ATOM     10  C   LIG d   1       0.343  81.893 118.569  0.00  0.00     0.006 C 
ENDBRANCH   8   9
BRANCH   8  11
ATOM     11  C   LIG d   1       1.560  79.562 118.127  0.00  0.00     0.028 C 
ATOM     12  C   LIG d   1       2.299  78.229 117.929  0.00  0.00     0.006 C 
ENDBRANCH   8  11
ENDBRANCH   7   8
ENDBRANCH   1   7
BRANCH   6  13
ATOM     13  N   LIG d   1      -1.397  79.828 113.632  0.00  0.00    -0.311 N 
ATOM     14  C   LIG d   1      -0.841  80.418 112.575  0.00  0.00     0.210 C 
ATOM     15  C   LIG d   1      -1.550  81.688 112.095  0.00  0.00     0.109 C 
ATOM     16  O   LIG d   1       0.154  79.992 111.969  0.00  0.00    -0.276 OA
ATOM     17  H   LIG d   1      -2.221  80.224 114.040  0.00  0.00     0.149 HD
ENDBRANCH   6  13
BRANCH   5  18
ATOM     18  N   LIG d   1      -1.155  77.118 112.244  0.00  0.00     0.381 N 
ATOM     19  H   LIG d   1      -0.861  77.986 111.842  0.00  0.00    -0.090 HD
ATOM     20  H   LIG d   1      -1.984  76.813 111.765  0.00  0.00    -0.090 HD
ATOM     21  H   LIG d   1      -0.435  76.436 112.143  0.00  0.00    -0.090 HD
ENDBRANCH   5  18
BRANCH   3  22
ATOM     22  C   LIG d   1      -1.207  75.063 116.570  0.00  0.00     0.382 C 
ATOM     23  O   LIG d   1      -0.285  74.678 117.328  0.00  0.00    -0.241 OA
ATOM     24  O   LIG d   1      -2.239  74.375 116.461  0.00  0.00    -0.241 OA
ENDBRANCH   3  22
TORSDOF 7
ENDMDL
MODEL 4
REMARK VINA RESULT:      -3.6      5.543      7.050
REMARK  7 active torsions:
REMARK  status: ('A' for Active; 'I' for Inactive)
REMARK    1  A    between atoms: C_2  and  C_3 
REMARK    2  A    between atoms: C_3  and  O_6 
REMARK    3  A    between atoms: C_3  and  C_4 
REMARK    4  A    between atoms: C_7  and  O_6 
REMARK    5  A    between atoms: C_9  and  C_10 
REMARK    6  A    between atoms: N_15  and  C_14 
REMARK    7  A    between atoms: N_20  and  C_19 
REMARK       I    between atoms: C_22  and  N_20 
ROOT
ATOM      1  C   LIG d   1      -0.129  77.119 117.690  0.00  0.00     0.161 C 
ATOM      2  C   LIG d   1       0.141  76.039 116.833  0.00  0.00     0.016 C 
ATOM      3  C   LIG d   1      -0.252  76.005 115.476  0.00  0.00     0.038 C 
ATOM      4  C   LIG d   1      -0.814  77.122 114.839  0.00  0.00     0.028 C 
ATOM      5  C   LIG d   1      -1.562  78.049 115.790  0.00  0.00    -0.047 C 
ATOM      6  C   LIG d   1      -0.642  78.392 116.984  0.00  0.00     0.091 C 
ENDROOT
BRANCH   1   7
ATOM      7  O   LIG d   1       1.039  77.421 118.479  0.00  0.00    -0.368 OA
BRANCH   7   8
ATOM      8  C   LIG d   1       2.275  77.600 117.745  0.00  0.00     0.119 C 
BRANCH   8   9
ATOM      9  C   LIG d   1       3.284  76.564 118.276  0.00  0.00     0.028 C 
ATOM     10  C   LIG d   1       4.382  76.234 117.251  0.00  0.00     0.006 C 
ENDBRANCH   8   9
BRANCH   8  11
ATOM     11  C   LIG d   1       2.904  78.966 118.039  0.00  0.00     0.028 C 
ATOM     12  C   LIG d   1       3.177  79.782 116.766  0.00  0.00     0.006 C 
ENDBRANCH   8  11
ENDBRANCH   7   8
ENDBRANCH   1   7
BRANCH   6  13
ATOM     13  N   LIG d   1      -1.326  79.227 118.005  0.00  0.00    -0.311 N 
ATOM     14  C   LIG d   1      -0.891  80.430 118.379  0.00  0.00     0.210 C 
ATOM     15  C   LIG d   1      -1.733  81.114 119.461  0.00  0.00     0.109 C 
ATOM     16  O   LIG d   1       0.093  81.008 117.895  0.00  0.00    -0.276 OA
ATOM     17  H   LIG d   1      -2.151  78.848 118.428  0.00  0.00     0.149 HD
ENDBRANCH   6  13
BRANCH   5  18
ATOM     18  N   LIG d   1      -1.977  79.237 115.021  0.00  0.00     0.381 N 
ATOM     19  H   LIG d   1      -1.639  79.168 114.082  0.00  0.00    -0.090 HD
ATOM     20  H   LIG d   1      -1.573  80.055 115.442  0.00  0.00    -0.090 HD
ATOM     21  H   LIG d   1      -2.971  79.313 115.019  0.00  0.00    -0.090 HD
ENDBRANCH   5  18
BRANCH   3  22
ATOM     22  C   LIG d   1      -0.121  74.831 114.751  0.00  0.00     0.382 C 
ATOM     23  O   LIG d   1       1.016  74.439 114.392  0.00  0.00    -0.241 OA
ATOM     24  O   LIG d   1      -1.128  74.180 114.414  0.00  0.00    -0.241 OA
ENDBRANCH   3  22
TORSDOF 7
ENDMDL
MODEL 5
REMARK VINA RESULT:      -3.6      5.574      6.833
REMARK  7 active torsions:
REMARK  status: ('A' for Active; 'I' for Inactive)
REMARK    1  A    between atoms: C_2  and  C_3 
REMARK    2  A    between atoms: C_3  and  O_6 
REMARK    3  A    between atoms: C_3  and  C_4 
REMARK    4  A    between atoms: C_7  and  O_6 
REMARK    5  A    between atoms: C_9  and  C_10 
REMARK    6  A    between atoms: N_15  and  C_14 
REMARK    7  A    between atoms: N_20  and  C_19 
REMARK       I    between atoms: C_22  and  N_20 
ROOT
ATOM      1  C   LIG d   1      -0.577  77.755 116.109  0.00  0.00     0.161 C 
ATOM      2  C   LIG d   1      -1.182  78.332 114.980  0.00  0.00     0.016 C 
ATOM      3  C   LIG d   1      -2.216  77.707 114.246  0.00  0.00     0.038 C 
ATOM      4  C   LIG d   1      -2.823  76.520 114.684  0.00  0.00     0.028 C 
ATOM      5  C   LIG d   1      -1.905  75.649 115.535  0.00  0.00    -0.047 C 
ATOM      6  C   LIG d   1      -1.301  76.512 116.667  0.00  0.00     0.091 C 
ENDROOT
BRANCH   1   7
ATOM      7  O   LIG d   1      -0.420  78.749 117.141  0.00  0.00    -0.368 OA
BRANCH   7   8
ATOM      8  C   LIG d   1       0.800  79.529 117.095  0.00  0.00     0.119 C 
BRANCH   8   9
ATOM      9  C   LIG d   1       1.951  78.617 117.564  0.00  0.00     0.028 C 
ATOM     10  C   LIG d   1       1.808  78.204 119.038  0.00  0.00     0.006 C 
ENDBRANCH   8   9
BRANCH   8  11
ATOM     11  C   LIG d   1       0.762  80.683 118.100  0.00  0.00     0.028 C 
ATOM     12  C   LIG d   1      -0.651  80.959 118.637  0.00  0.00     0.006 C 
ENDBRANCH   8  11
ENDBRANCH   7   8
ENDBRANCH   1   7
BRANCH   6  13
ATOM     13  N   LIG d   1      -0.326  75.757 117.496  0.00  0.00    -0.311 N 
ATOM     14  C   LIG d   1      -0.648  75.152 118.638  0.00  0.00     0.210 C 
ATOM     15  C   LIG d   1       0.512  74.447 119.346  0.00  0.00     0.109 C 
ATOM     16  O   LIG d   1      -1.792  75.105 119.115  0.00  0.00    -0.276 OA
ATOM     17  H   LIG d   1       0.619  75.718 117.167  0.00  0.00     0.149 HD
ENDBRANCH   6  13
BRANCH   5  18
ATOM     18  N   LIG d   1      -2.706  74.516 116.037  0.00  0.00     0.381 N 
ATOM     19  H   LIG d   1      -2.641  73.747 115.400  0.00  0.00    -0.090 HD
ATOM     20  H   LIG d   1      -3.668  74.798 116.093  0.00  0.00    -0.090 HD
ATOM     21  H   LIG d   1      -2.379  74.240 116.937  0.00  0.00    -0.090 HD
ENDBRANCH   5  18
BRANCH   3  22
ATOM     22  C   LIG d   1      -2.626  78.249 113.038  0.00  0.00     0.382 C 
ATOM     23  O   LIG d   1      -2.818  79.485 112.938  0.00  0.00    -0.241 OA
ATOM     24  O   LIG d   1      -2.848  77.513 112.058  0.00  0.00    -0.241 OA
ENDBRANCH   3  22
TORSDOF 7
ENDMDL
MODEL 6
REMARK VINA RESULT:      -3.5      5.935      7.099
REMARK  7 active torsions:
REMARK  status: ('A' for Active; 'I' for Inactive)
REMARK    1  A    between atoms: C_2  and  C_3 
REMARK    2  A    between atoms: C_3  and  O_6 
REMARK    3  A    between atoms: C_3  and  C_4 
REMARK    4  A    between atoms: C_7  and  O_6 
REMARK    5  A    between atoms: C_9  and  C_10 
REMARK    6  A    between atoms: N_15  and  C_14 
REMARK    7  A    between atoms: N_20  and  C_19 
REMARK       I    between atoms: C_22  and  N_20 
ROOT
ATOM      1  C   LIG d   1       0.346  78.013 116.575  0.00  0.00     0.161 C 
ATOM      2  C   LIG d   1      -0.825  78.330 115.868  0.00  0.00     0.016 C 
ATOM      3  C   LIG d   1      -1.663  77.359 115.273  0.00  0.00     0.038 C 
ATOM      4  C   LIG d   1      -1.465  75.985 115.476  0.00  0.00     0.028 C 
ATOM      5  C   LIG d   1      -0.012  75.618 115.759  0.00  0.00    -0.047 C 
ATOM      6  C   LIG d   1       0.519  76.514 116.901  0.00  0.00     0.091 C 
ENDROOT
BRANCH   1   7
ATOM      7  O   LIG d   1       0.418  78.799 117.780  0.00  0.00    -0.368 OA
BRANCH   7   8
ATOM      8  C   LIG d   1       1.147  80.048 117.685  0.00  0.00     0.119 C 
BRANCH   8   9
ATOM      9  C   LIG d   1       2.533  79.824 118.321  0.00  0.00     0.028 C 
ATOM     10  C   LIG d   1       3.615  79.513 117.274  0.00  0.00     0.006 C 
ENDBRANCH   8   9
BRANCH   8  11
ATOM     11  C   LIG d   1       0.487  81.144 118.525  0.00  0.00     0.028 C 
ATOM     12  C   LIG d   1      -0.999  80.868 118.804  0.00  0.00     0.006 C 
ENDBRANCH   8  11
ENDBRANCH   7   8
ENDBRANCH   1   7
BRANCH   6  13
ATOM     13  N   LIG d   1       1.958  76.278 117.184  0.00  0.00    -0.311 N 
ATOM     14  C   LIG d   1       2.436  76.038 118.404  0.00  0.00     0.210 C 
ATOM     15  C   LIG d   1       3.953  75.843 118.478  0.00  0.00     0.109 C 
ATOM     16  O   LIG d   1       1.742  75.937 119.428  0.00  0.00    -0.276 OA
ATOM     17  H   LIG d   1       2.588  76.312 116.406  0.00  0.00     0.149 HD
ENDBRANCH   6  13
BRANCH   5  18
ATOM     18  N   LIG d   1       0.029  74.180 116.086  0.00  0.00     0.381 N 
ATOM     19  H   LIG d   1      -0.002  74.057 117.078  0.00  0.00    -0.090 HD
ATOM     20  H   LIG d   1       0.892  73.794 115.747  0.00  0.00    -0.090 HD
ATOM     21  H   LIG d   1      -0.742  73.712 115.662  0.00  0.00    -0.090 HD
ENDBRANCH   5  18
BRANCH   3  22
ATOM     22  C   LIG d   1      -2.690  77.759 114.432  0.00  0.00     0.382 C 
ATOM     23  O   LIG d   1      -3.217  76.933 113.648  0.00  0.00    -0.241 OA
ATOM     24  O   LIG d   1      -3.067  78.946 114.416  0.00  0.00    -0.241 OA
ENDBRANCH   3  22
TORSDOF 7
ENDMDL
MODEL 7
REMARK VINA RESULT:      -3.4      4.989      7.122
REMARK  7 active torsions:
REMARK  status: ('A' for Active; 'I' for Inactive)
REMARK    1  A    between atoms: C_2  and  C_3 
REMARK    2  A    between atoms: C_3  and  O_6 
REMARK    3  A    between atoms: C_3  and  C_4 
REMARK    4  A    between atoms: C_7  and  O_6 
REMARK    5  A    between atoms: C_9  and  C_10 
REMARK    6  A    between atoms: N_15  and  C_14 
REMARK    7  A    between atoms: N_20  and  C_19 
REMARK       I    between atoms: C_22  and  N_20 
ROOT
ATOM      1  C   LIG d   1      -0.099  78.874 117.297  0.00  0.00     0.161 C 
ATOM      2  C   LIG d   1       1.071  79.604 117.029  0.00  0.00     0.016 C 
ATOM      3  C   LIG d   1       2.372  79.072 117.180  0.00  0.00     0.038 C 
ATOM      4  C   LIG d   1       2.590  77.716 117.467  0.00  0.00     0.028 C 
ATOM      5  C   LIG d   1       1.445  77.069 118.239  0.00  0.00    -0.047 C 
ATOM      6  C   LIG d   1       0.117  77.360 117.504  0.00  0.00     0.091 C 
ENDROOT
BRANCH   1   7
ATOM      7  O   LIG d   1      -1.068  79.105 116.255  0.00  0.00    -0.368 OA
BRANCH   7   8
ATOM      8  C   LIG d   1      -0.988  78.227 115.105  0.00  0.00     0.119 C 
BRANCH   8   9
ATOM      9  C   LIG d   1      -0.763  79.112 113.863  0.00  0.00     0.028 C 
ATOM     10  C   LIG d   1      -1.520  78.594 112.629  0.00  0.00     0.006 C 
ENDBRANCH   8   9
BRANCH   8  11
ATOM     11  C   LIG d   1      -2.319  77.511 114.857  0.00  0.00     0.028 C 
ATOM     12  C   LIG d   1      -3.439  77.994 115.791  0.00  0.00     0.006 C 
ENDBRANCH   8  11
ENDBRANCH   7   8
ENDBRANCH   1   7
BRANCH   6  13
ATOM     13  N   LIG d   1      -1.064  76.834 118.237  0.00  0.00    -0.311 N 
ATOM     14  C   LIG d   1      -1.600  75.638 118.001  0.00  0.00     0.210 C 
ATOM     15  C   LIG d   1      -2.826  75.299 118.855  0.00  0.00     0.109 C 
ATOM     16  O   LIG d   1      -1.158  74.813 117.188  0.00  0.00    -0.276 OA
ATOM     17  H   LIG d   1      -1.468  77.426 118.936  0.00  0.00     0.149 HD
ENDBRANCH   6  13
BRANCH   5  18
ATOM     18  N   LIG d   1       1.741  75.628 118.349  0.00  0.00     0.381 N 
ATOM     19  H   LIG d   1       2.683  75.499 118.659  0.00  0.00    -0.090 HD
ATOM     20  H   LIG d   1       1.646  75.206 117.442  0.00  0.00    -0.090 HD
ATOM     21  H   LIG d   1       1.110  75.199 118.991  0.00  0.00    -0.090 HD
ENDBRANCH   5  18
BRANCH   3  22
ATOM     22  C   LIG d   1       3.473  79.910 117.083  0.00  0.00     0.382 C 
ATOM     23  O   LIG d   1       3.363  81.027 116.523  0.00  0.00    -0.241 OA
ATOM     24  O   LIG d   1       4.585  79.544 117.509  0.00  0.00    -0.241 OA
ENDBRANCH   3  22
TORSDOF 7
ENDMDL
MODEL 8
REMARK VINA RESULT:      -3.4      5.312      8.259
REMARK  7 active torsions:
REMARK  status: ('A' for Active; 'I' for Inactive)
REMARK    1  A    between atoms: C_2  and  C_3 
REMARK    2  A    between atoms: C_3  and  O_6 
REMARK    3  A    between atoms: C_3  and  C_4 
REMARK    4  A    between atoms: C_7  and  O_6 
REMARK    5  A    between atoms: C_9  and  C_10 
REMARK    6  A    between atoms: N_15  and  C_14 
REMARK    7  A    between atoms: N_20  and  C_19 
REMARK       I    between atoms: C_22  and  N_20 
ROOT
ATOM      1  C   LIG d   1       1.519  77.450 118.462  0.00  0.00     0.161 C 
ATOM      2  C   LIG d   1       0.838  76.228 118.341  0.00  0.00     0.016 C 
ATOM      3  C   LIG d   1      -0.097  75.955 117.316  0.00  0.00     0.038 C 
ATOM      4  C   LIG d   1      -0.303  76.839 116.247  0.00  0.00     0.028 C 
ATOM      5  C   LIG d   1      -0.014  78.294 116.599  0.00  0.00    -0.047 C 
ATOM      6  C   LIG d   1       1.389  78.386 117.241  0.00  0.00     0.091 C 
ENDROOT
BRANCH   1   7
ATOM      7  O   LIG d   1       2.907  77.209 118.763  0.00  0.00    -0.368 OA
BRANCH   7   8
ATOM      8  C   LIG d   1       3.493  76.027 118.165  0.00  0.00     0.119 C 
BRANCH   8   9
ATOM      9  C   LIG d   1       4.374  75.354 119.235  0.00  0.00     0.028 C 
ATOM     10  C   LIG d   1       3.661  74.182 119.930  0.00  0.00     0.006 C 
ENDBRANCH   8   9
BRANCH   8  11
ATOM     11  C   LIG d   1       4.449  76.394 117.026  0.00  0.00     0.028 C 
ATOM     12  C   LIG d   1       5.443  77.500 117.415  0.00  0.00     0.006 C 
ENDBRANCH   8  11
ENDBRANCH   7   8
ENDBRANCH   1   7
BRANCH   6  13
ATOM     13  N   LIG d   1       1.717  79.763 117.693  0.00  0.00    -0.311 N 
ATOM     14  C   LIG d   1       2.692  80.497 117.159  0.00  0.00     0.210 C 
ATOM     15  C   LIG d   1       2.875  81.883 117.787  0.00  0.00     0.109 C 
ATOM     16  O   LIG d   1       3.400  80.145 116.204  0.00  0.00    -0.276 OA
ATOM     17  H   LIG d   1       1.171  80.139 118.443  0.00  0.00     0.149 HD
ENDBRANCH   6  13
BRANCH   5  18
ATOM     18  N   LIG d   1      -0.136  79.086 115.361  0.00  0.00     0.381 N 
ATOM     19  H   LIG d   1       0.748  79.123 114.894  0.00  0.00    -0.090 HD
ATOM     20  H   LIG d   1      -0.406  80.024 115.600  0.00  0.00    -0.090 HD
ATOM     21  H   LIG d   1      -0.819  78.678 114.761  0.00  0.00    -0.090 HD
ENDBRANCH   5  18
BRANCH   3  22
ATOM     22  C   LIG d   1      -0.866  74.803 117.376  0.00  0.00     0.382 C 
ATOM     23  O   LIG d   1      -1.283  74.272 116.319  0.00  0.00    -0.241 OA
ATOM     24  O   LIG d   1      -1.186  74.314 118.476  0.00  0.00    -0.241 OA
ENDBRANCH   3  22
TORSDOF 7
ENDMDL
MODEL 9
REMARK VINA RESULT:      -3.3      5.733      7.934
REMARK  7 active torsions:
REMARK  status: ('A' for Active; 'I' for Inactive)
REMARK    1  A    between atoms: C_2  and  C_3 
REMARK    2  A    between atoms: C_3  and  O_6 
REMARK    3  A    between atoms: C_3  and  C_4 
REMARK    4  A    between atoms: C_7  and  O_6 
REMARK    5  A    between atoms: C_9  and  C_10 
REMARK    6  A    between atoms: N_15  and  C_14 
REMARK    7  A    between atoms: N_20  and  C_19 
REMARK       I    between atoms: C_22  and  N_20 
ROOT
ATOM      1  C   LIG d   1       0.632  77.056 116.893  0.00  0.00     0.161 C 
ATOM      2  C   LIG d   1       1.643  76.741 117.815  0.00  0.00     0.016 C 
ATOM      3  C   LIG d   1       2.393  77.716 118.513  0.00  0.00     0.038 C 
ATOM      4  C   LIG d   1       2.076  79.081 118.447  0.00  0.00     0.028 C 
ATOM      5  C   LIG d   1       1.394  79.482 117.143  0.00  0.00    -0.047 C 
ATOM      6  C   LIG d   1       0.197  78.537 116.891  0.00  0.00     0.091 C 
ENDROOT
BRANCH   1   7
ATOM      7  O   LIG d   1      -0.508  76.200 117.105  0.00  0.00    -0.368 OA
BRANCH   7   8
ATOM      8  C   LIG d   1      -0.517  74.955 116.363  0.00  0.00     0.119 C 
BRANCH   8   9
ATOM      9  C   LIG d   1      -0.207  75.292 114.892  0.00  0.00     0.028 C 
ATOM     10  C   LIG d   1       0.809  74.319 114.269  0.00  0.00     0.006 C 
ENDBRANCH   8   9
BRANCH   8  11
ATOM     11  C   LIG d   1      -1.913  74.325 116.350  0.00  0.00     0.028 C 
ATOM     12  C   LIG d   1      -2.948  75.185 115.608  0.00  0.00     0.006 C 
ENDBRANCH   8  11
ENDBRANCH   7   8
ENDBRANCH   1   7
BRANCH   6  13
ATOM     13  N   LIG d   1      -0.475  78.807 115.594  0.00  0.00    -0.311 N 
ATOM     14  C   LIG d   1      -1.797  78.891 115.456  0.00  0.00     0.210 C 
ATOM     15  C   LIG d   1      -2.283  79.155 114.028  0.00  0.00     0.109 C 
ATOM     16  O   LIG d   1      -2.612  78.803 116.387  0.00  0.00    -0.276 OA
ATOM     17  H   LIG d   1       0.112  78.922 114.791  0.00  0.00     0.149 HD
ENDBRANCH   6  13
BRANCH   5  18
ATOM     18  N   LIG d   1       0.997  80.898 117.265  0.00  0.00     0.381 N 
ATOM     19  H   LIG d   1       0.033  80.958 117.528  0.00  0.00    -0.090 HD
ATOM     20  H   LIG d   1       1.109  81.345 116.373  0.00  0.00    -0.090 HD
ATOM     21  H   LIG d   1       1.563  81.353 117.947  0.00  0.00    -0.090 HD
ENDBRANCH   5  18
BRANCH   3  22
ATOM     22  C   LIG d   1       3.498  77.331 119.256  0.00  0.00     0.382 C 
ATOM     23  O   LIG d   1       3.842  76.125 119.290  0.00  0.00    -0.241 OA
ATOM     24  O   LIG d   1       4.129  78.168 119.929  0.00  0.00    -0.241 OA
ENDBRANCH   3  22
TORSDOF 7
ENDMDL
