MODEL 1
REMARK VINA RESULT:      -5.1      0.000      0.000
REMARK  7 active torsions:
REMARK  status: ('A' for Active; 'I' for Inactive)
REMARK    1  A    between atoms: C_2  and  C_3 
REMARK    2  A    between atoms: C_3  and  O_6 
REMARK    3  A    between atoms: C_3  and  C_4 
REMARK    4  A    between atoms: C_7  and  O_6 
REMARK    5  A    between atoms: C_9  and  C_10 
REMARK    6  A    between atoms: N_15  and  C_14 
REMARK    7  A    between atoms: N_20  and  C_19 
REMARK       I    between atoms: C_22  and  N_20 
ROOT
ATOM      1  C   LIG d   1       0.554  81.217 113.255  0.00  0.00     0.161 C 
ATOM      2  C   LIG d   1       1.646  82.088 113.105  0.00  0.00     0.016 C 
ATOM      3  C   LIG d   1       2.119  82.534 111.849  0.00  0.00     0.038 C 
ATOM      4  C   LIG d   1       1.433  82.257 110.658  0.00  0.00     0.028 C 
ATOM      5  C   LIG d   1       0.619  80.969 110.712  0.00  0.00    -0.047 C 
ATOM      6  C   LIG d   1      -0.275  80.994 111.973  0.00  0.00     0.091 C 
ENDROOT
BRANCH   1   7
ATOM      7  O   LIG d   1      -0.294  81.677 114.326  0.00  0.00    -0.368 OA
BRANCH   7   8
ATOM      8  C   LIG d   1      -0.254  80.901 115.548  0.00  0.00     0.119 C 
BRANCH   8   9
ATOM      9  C   LIG d   1       0.577  81.696 116.574  0.00  0.00     0.028 C 
ATOM     10  C   LIG d   1      -0.286  82.273 117.708  0.00  0.00     0.006 C 
ENDBRANCH   8   9
BRANCH   8  11
ATOM     11  C   LIG d   1       0.502  79.584 115.348  0.00  0.00     0.028 C 
ATOM     12  C   LIG d   1      -0.400  78.349 115.505  0.00  0.00     0.006 C 
ENDBRANCH   8  11
ENDBRANCH   7   8
ENDBRANCH   1   7
BRANCH   6  13
ATOM     13  N   LIG d   1      -1.043  79.733 112.148  0.00  0.00    -0.311 N 
ATOM     14  C   LIG d   1      -2.316  79.699 112.537  0.00  0.00     0.210 C 
ATOM     15  C   LIG d   1      -2.913  78.294 112.674  0.00  0.00     0.109 C 
ATOM     16  O   LIG d   1      -3.018  80.699 112.751  0.00  0.00    -0.276 OA
ATOM     17  H   LIG d   1      -0.560  78.876 111.965  0.00  0.00     0.149 HD
ENDBRANCH   6  13
BRANCH   5  18
ATOM     18  N   LIG d   1      -0.151  80.875 109.458  0.00  0.00     0.381 N 
ATOM     19  H   LIG d   1      -0.841  81.598 109.429  0.00  0.00    -0.090 HD
ATOM     20  H   LIG d   1      -0.623  79.988 109.432  0.00  0.00    -0.090 HD
ATOM     21  H   LIG d   1       0.460  80.957 108.675  0.00  0.00    -0.090 HD
ENDBRANCH   5  18
BRANCH   3  22
ATOM     22  C   LIG d   1       3.315  83.233 111.774  0.00  0.00     0.382 C 
ATOM     23  O   LIG d   1       3.604  83.870 110.733  0.00  0.00    -0.241 OA
ATOM     24  O   LIG d   1       4.127  83.198 112.718  0.00  0.00    -0.241 OA
ENDBRANCH   3  22
TORSDOF 7
ENDMDL
MODEL 2
REMARK VINA RESULT:      -5.1      0.472      1.707
REMARK  7 active torsions:
REMARK  status: ('A' for Active; 'I' for Inactive)
REMARK    1  A    between atoms: C_2  and  C_3 
REMARK    2  A    between atoms: C_3  and  O_6 
REMARK    3  A    between atoms: C_3  and  C_4 
REMARK    4  A    between atoms: C_7  and  O_6 
REMARK    5  A    between atoms: C_9  and  C_10 
REMARK    6  A    between atoms: N_15  and  C_14 
REMARK    7  A    between atoms: N_20  and  C_19 
REMARK       I    between atoms: C_22  and  N_20 
ROOT
ATOM      1  C   LIG d   1       0.847  81.276 113.184  0.00  0.00     0.161 C 
ATOM      2  C   LIG d   1       1.932  82.148 112.994  0.00  0.00     0.016 C 
ATOM      3  C   LIG d   1       2.329  82.631 111.726  0.00  0.00     0.038 C 
ATOM      4  C   LIG d   1       1.570  82.394 110.571  0.00  0.00     0.028 C 
ATOM      5  C   LIG d   1       0.754  81.107 110.637  0.00  0.00    -0.047 C 
ATOM      6  C   LIG d   1      -0.060  81.095 111.950  0.00  0.00     0.091 C 
ENDROOT
BRANCH   1   7
ATOM      7  O   LIG d   1       0.070  81.705 114.320  0.00  0.00    -0.368 OA
BRANCH   7   8
ATOM      8  C   LIG d   1       0.322  81.008 115.565  0.00  0.00     0.119 C 
BRANCH   8   9
ATOM      9  C   LIG d   1      -0.861  80.050 115.807  0.00  0.00     0.028 C 
ATOM     10  C   LIG d   1      -0.478  78.577 115.589  0.00  0.00     0.006 C 
ENDBRANCH   8   9
BRANCH   8  11
ATOM     11  C   LIG d   1       0.314  81.972 116.755  0.00  0.00     0.028 C 
ATOM     12  C   LIG d   1      -0.801  81.662 117.765  0.00  0.00     0.006 C 
ENDBRANCH   8  11
ENDBRANCH   7   8
ENDBRANCH   1   7
BRANCH   6  13
ATOM     13  N   LIG d   1      -0.822  79.832 112.133  0.00  0.00    -0.311 N 
ATOM     14  C   LIG d   1      -2.133  79.793 112.367  0.00  0.00     0.210 C 
ATOM     15  C   LIG d   1      -2.716  78.388 112.545  0.00  0.00     0.109 C 
ATOM     16  O   LIG d   1      -2.873  80.787 112.411  0.00  0.00    -0.276 OA
ATOM     17  H   LIG d   1      -0.305  78.976 112.082  0.00  0.00     0.149 HD
ENDBRANCH   6  13
BRANCH   5  18
ATOM     18  N   LIG d   1      -0.093  81.054 109.430  0.00  0.00     0.381 N 
ATOM     19  H   LIG d   1      -0.385  81.978 109.181  0.00  0.00    -0.090 HD
ATOM     20  H   LIG d   1      -0.911  80.507 109.631  0.00  0.00    -0.090 HD
ATOM     21  H   LIG d   1       0.413  80.643 108.676  0.00  0.00    -0.090 HD
ENDBRANCH   5  18
BRANCH   3  22
ATOM     22  C   LIG d   1       3.521  83.329 111.599  0.00  0.00     0.382 C 
ATOM     23  O   LIG d   1       4.405  83.226 112.483  0.00  0.00    -0.241 OA
ATOM     24  O   LIG d   1       3.704  84.095 110.634  0.00  0.00    -0.241 OA
ENDBRANCH   3  22
TORSDOF 7
ENDMDL
MODEL 3
REMARK VINA RESULT:      -4.7      3.313      4.827
REMARK  7 active torsions:
REMARK  status: ('A' for Active; 'I' for Inactive)
REMARK    1  A    between atoms: C_2  and  C_3 
REMARK    2  A    between atoms: C_3  and  O_6 
REMARK    3  A    between atoms: C_3  and  C_4 
REMARK    4  A    between atoms: C_7  and  O_6 
REMARK    5  A    between atoms: C_9  and  C_10 
REMARK    6  A    between atoms: N_15  and  C_14 
REMARK    7  A    between atoms: N_20  and  C_19 
REMARK       I    between atoms: C_22  and  N_20 
ROOT
ATOM      1  C   LIG d   1       0.200  80.059 115.292  0.00  0.00     0.161 C 
ATOM      2  C   LIG d   1      -0.455  81.004 114.485  0.00  0.00     0.016 C 
ATOM      3  C   LIG d   1      -1.629  80.720 113.751  0.00  0.00     0.038 C 
ATOM      4  C   LIG d   1      -2.318  79.507 113.895  0.00  0.00     0.028 C 
ATOM      5  C   LIG d   1      -1.421  78.346 114.309  0.00  0.00    -0.047 C 
ATOM      6  C   LIG d   1      -0.599  78.764 115.549  0.00  0.00     0.091 C 
ENDROOT
BRANCH   1   7
ATOM      7  O   LIG d   1       0.584  80.667 116.542  0.00  0.00    -0.368 OA
BRANCH   7   8
ATOM      8  C   LIG d   1      -0.254  81.753 117.007  0.00  0.00     0.119 C 
BRANCH   8   9
ATOM      9  C   LIG d   1       0.674  82.847 117.569  0.00  0.00     0.028 C 
ATOM     10  C   LIG d   1      -0.084  83.881 118.418  0.00  0.00     0.006 C 
ENDBRANCH   8   9
BRANCH   8  11
ATOM     11  C   LIG d   1      -1.127  81.316 118.187  0.00  0.00     0.028 C 
ATOM     12  C   LIG d   1      -2.577  81.014 117.776  0.00  0.00     0.006 C 
ENDBRANCH   8  11
ENDBRANCH   7   8
ENDBRANCH   1   7
BRANCH   6  13
ATOM     13  N   LIG d   1       0.367  77.716 115.970  0.00  0.00    -0.311 N 
ATOM     14  C   LIG d   1       0.393  77.191 117.193  0.00  0.00     0.210 C 
ATOM     15  C   LIG d   1       1.482  76.138 117.422  0.00  0.00     0.109 C 
ATOM     16  O   LIG d   1      -0.404  77.473 118.101  0.00  0.00    -0.276 OA
ATOM     17  H   LIG d   1       1.030  77.406 115.286  0.00  0.00     0.149 HD
ENDBRANCH   6  13
BRANCH   5  18
ATOM     18  N   LIG d   1      -2.287  77.178 114.556  0.00  0.00     0.381 N 
ATOM     19  H   LIG d   1      -1.980  76.696 115.377  0.00  0.00    -0.090 HD
ATOM     20  H   LIG d   1      -2.216  76.549 113.776  0.00  0.00    -0.090 HD
ATOM     21  H   LIG d   1      -3.232  77.473 114.670  0.00  0.00    -0.090 HD
ENDBRANCH   5  18
BRANCH   3  22
ATOM     22  C   LIG d   1      -2.104  81.642 112.830  0.00  0.00     0.382 C 
ATOM     23  O   LIG d   1      -1.351  82.553 112.410  0.00  0.00    -0.241 OA
ATOM     24  O   LIG d   1      -3.289  81.600 112.448  0.00  0.00    -0.241 OA
ENDBRANCH   3  22
TORSDOF 7
ENDMDL
MODEL 4
REMARK VINA RESULT:      -4.6      2.169      5.063
REMARK  7 active torsions:
REMARK  status: ('A' for Active; 'I' for Inactive)
REMARK    1  A    between atoms: C_2  and  C_3 
REMARK    2  A    between atoms: C_3  and  O_6 
REMARK    3  A    between atoms: C_3  and  C_4 
REMARK    4  A    between atoms: C_7  and  O_6 
REMARK    5  A    between atoms: C_9  and  C_10 
REMARK    6  A    between atoms: N_15  and  C_14 
REMARK    7  A    between atoms: N_20  and  C_19 
REMARK       I    between atoms: C_22  and  N_20 
ROOT
ATOM      1  C   LIG d   1      -1.407  80.848 114.312  0.00  0.00     0.161 C 
ATOM      2  C   LIG d   1      -1.975  79.689 114.866  0.00  0.00     0.016 C 
ATOM      3  C   LIG d   1      -2.257  78.525 114.115  0.00  0.00     0.038 C 
ATOM      4  C   LIG d   1      -1.849  78.387 112.780  0.00  0.00     0.028 C 
ATOM      5  C   LIG d   1      -1.727  79.717 112.043  0.00  0.00    -0.047 C 
ATOM      6  C   LIG d   1      -0.853  80.677 112.882  0.00  0.00     0.091 C 
ENDROOT
BRANCH   1   7
ATOM      7  O   LIG d   1      -0.382  81.358 115.189  0.00  0.00    -0.368 OA
BRANCH   7   8
ATOM      8  C   LIG d   1       0.364  80.368 115.939  0.00  0.00     0.119 C 
BRANCH   8   9
ATOM      9  C   LIG d   1       0.534  80.906 117.373  0.00  0.00     0.028 C 
ATOM     10  C   LIG d   1       0.058  82.362 117.514  0.00  0.00     0.006 C 
ENDBRANCH   8   9
BRANCH   8  11
ATOM     11  C   LIG d   1       1.787  80.212 115.393  0.00  0.00     0.028 C 
ATOM     12  C   LIG d   1       2.805  79.839 116.482  0.00  0.00     0.006 C 
ENDBRANCH   8  11
ENDBRANCH   7   8
ENDBRANCH   1   7
BRANCH   6  13
ATOM     13  N   LIG d   1      -0.752  82.029 112.274  0.00  0.00    -0.311 N 
ATOM     14  C   LIG d   1       0.213  82.381 111.426  0.00  0.00     0.210 C 
ATOM     15  C   LIG d   1       0.143  83.830 110.932  0.00  0.00     0.109 C 
ATOM     16  O   LIG d   1       1.101  81.622 111.010  0.00  0.00    -0.276 OA
ATOM     17  H   LIG d   1      -1.450  82.699 112.532  0.00  0.00     0.149 HD
ENDBRANCH   6  13
BRANCH   5  18
ATOM     18  N   LIG d   1      -1.163  79.438 110.709  0.00  0.00     0.381 N 
ATOM     19  H   LIG d   1      -0.250  79.041 110.804  0.00  0.00    -0.090 HD
ATOM     20  H   LIG d   1      -1.081  80.302 110.204  0.00  0.00    -0.090 HD
ATOM     21  H   LIG d   1      -1.756  78.809 110.213  0.00  0.00    -0.090 HD
ENDBRANCH   5  18
BRANCH   3  22
ATOM     22  C   LIG d   1      -2.992  77.498 114.689  0.00  0.00     0.382 C 
ATOM     23  O   LIG d   1      -3.207  77.497 115.925  0.00  0.00    -0.241 OA
ATOM     24  O   LIG d   1      -3.403  76.551 113.993  0.00  0.00    -0.241 OA
ENDBRANCH   3  22
TORSDOF 7
ENDMDL
MODEL 5
REMARK VINA RESULT:      -4.4      2.867      4.659
REMARK  7 active torsions:
REMARK  status: ('A' for Active; 'I' for Inactive)
REMARK    1  A    between atoms: C_2  and  C_3 
REMARK    2  A    between atoms: C_3  and  O_6 
REMARK    3  A    between atoms: C_3  and  C_4 
REMARK    4  A    between atoms: C_7  and  O_6 
REMARK    5  A    between atoms: C_9  and  C_10 
REMARK    6  A    between atoms: N_15  and  C_14 
REMARK    7  A    between atoms: N_20  and  C_19 
REMARK       I    between atoms: C_22  and  N_20 
ROOT
ATOM      1  C   LIG d   1      -1.820  80.610 114.494  0.00  0.00     0.161 C 
ATOM      2  C   LIG d   1      -1.706  81.300 113.275  0.00  0.00     0.016 C 
ATOM      3  C   LIG d   1      -0.466  81.623 112.677  0.00  0.00     0.038 C 
ATOM      4  C   LIG d   1       0.750  81.143 113.186  0.00  0.00     0.028 C 
ATOM      5  C   LIG d   1       0.714  80.873 114.686  0.00  0.00    -0.047 C 
ATOM      6  C   LIG d   1      -0.507  79.982 115.006  0.00  0.00     0.091 C 
ENDROOT
BRANCH   1   7
ATOM      7  O   LIG d   1      -2.850  79.607 114.393  0.00  0.00    -0.368 OA
BRANCH   7   8
ATOM      8  C   LIG d   1      -2.442  78.327 113.851  0.00  0.00     0.119 C 
BRANCH   8   9
ATOM      9  C   LIG d   1      -3.032  78.215 112.432  0.00  0.00     0.028 C 
ATOM     10  C   LIG d   1      -1.954  78.311 111.339  0.00  0.00     0.006 C 
ENDBRANCH   8   9
BRANCH   8  11
ATOM     11  C   LIG d   1      -3.058  77.167 114.639  0.00  0.00     0.028 C 
ATOM     12  C   LIG d   1      -3.439  77.558 116.076  0.00  0.00     0.006 C 
ENDBRANCH   8  11
ENDBRANCH   7   8
ENDBRANCH   1   7
BRANCH   6  13
ATOM     13  N   LIG d   1      -0.665  79.738 116.464  0.00  0.00    -0.311 N 
ATOM     14  C   LIG d   1      -0.186  78.661 117.083  0.00  0.00     0.210 C 
ATOM     15  C   LIG d   1      -0.476  78.596 118.586  0.00  0.00     0.109 C 
ATOM     16  O   LIG d   1       0.480  77.768 116.537  0.00  0.00    -0.276 OA
ATOM     17  H   LIG d   1      -1.165  80.428 116.990  0.00  0.00     0.149 HD
ENDBRANCH   6  13
BRANCH   5  18
ATOM     18  N   LIG d   1       1.998  80.249 115.057  0.00  0.00     0.381 N 
ATOM     19  H   LIG d   1       2.734  80.629 114.496  0.00  0.00    -0.090 HD
ATOM     20  H   LIG d   1       1.944  79.261 114.878  0.00  0.00    -0.090 HD
ATOM     21  H   LIG d   1       2.189  80.409 116.021  0.00  0.00    -0.090 HD
ENDBRANCH   5  18
BRANCH   3  22
ATOM     22  C   LIG d   1      -0.433  82.470 111.579  0.00  0.00     0.382 C 
ATOM     23  O   LIG d   1      -0.793  83.666 111.698  0.00  0.00    -0.241 OA
ATOM     24  O   LIG d   1      -0.090  82.041 110.461  0.00  0.00    -0.241 OA
ENDBRANCH   3  22
TORSDOF 7
ENDMDL
MODEL 6
REMARK VINA RESULT:      -4.3      2.484      6.165
REMARK  7 active torsions:
REMARK  status: ('A' for Active; 'I' for Inactive)
REMARK    1  A    between atoms: C_2  and  C_3 
REMARK    2  A    between atoms: C_3  and  O_6 
REMARK    3  A    between atoms: C_3  and  C_4 
REMARK    4  A    between atoms: C_7  and  O_6 
REMARK    5  A    between atoms: C_9  and  C_10 
REMARK    6  A    between atoms: N_15  and  C_14 
REMARK    7  A    between atoms: N_20  and  C_19 
REMARK       I    between atoms: C_22  and  N_20 
ROOT
ATOM      1  C   LIG d   1       1.246  81.719 113.452  0.00  0.00     0.161 C 
ATOM      2  C   LIG d   1       0.163  81.266 112.680  0.00  0.00     0.016 C 
ATOM      3  C   LIG d   1      -1.016  80.722 113.238  0.00  0.00     0.038 C 
ATOM      4  C   LIG d   1      -1.257  80.734 114.620  0.00  0.00     0.028 C 
ATOM      5  C   LIG d   1       0.018  80.718 115.457  0.00  0.00    -0.047 C 
ATOM      6  C   LIG d   1       0.956  81.843 114.963  0.00  0.00     0.091 C 
ENDROOT
BRANCH   1   7
ATOM      7  O   LIG d   1       1.727  82.973 112.930  0.00  0.00    -0.368 OA
BRANCH   7   8
ATOM      8  C   LIG d   1       2.078  82.986 111.525  0.00  0.00     0.119 C 
BRANCH   8   9
ATOM      9  C   LIG d   1       3.590  82.709 111.422  0.00  0.00     0.028 C 
ATOM     10  C   LIG d   1       3.904  81.484 110.546  0.00  0.00     0.006 C 
ENDBRANCH   8   9
BRANCH   8  11
ATOM     11  C   LIG d   1       1.878  84.376 110.913  0.00  0.00     0.028 C 
ATOM     12  C   LIG d   1       1.460  84.323 109.435  0.00  0.00     0.006 C 
ENDBRANCH   8  11
ENDBRANCH   7   8
ENDBRANCH   1   7
BRANCH   6  13
ATOM     13  N   LIG d   1       2.262  81.844 115.673  0.00  0.00    -0.311 N 
ATOM     14  C   LIG d   1       2.789  82.929 116.237  0.00  0.00     0.210 C 
ATOM     15  C   LIG d   1       4.153  82.716 116.900  0.00  0.00     0.109 C 
ATOM     16  O   LIG d   1       2.241  84.041 116.279  0.00  0.00    -0.276 OA
ATOM     17  H   LIG d   1       2.760  80.976 115.713  0.00  0.00     0.149 HD
ENDBRANCH   6  13
BRANCH   5  18
ATOM     18  N   LIG d   1      -0.375  80.872 116.870  0.00  0.00     0.381 N 
ATOM     19  H   LIG d   1      -0.957  81.679 116.974  0.00  0.00    -0.090 HD
ATOM     20  H   LIG d   1       0.452  81.006 117.425  0.00  0.00    -0.090 HD
ATOM     21  H   LIG d   1      -0.863  80.060 117.179  0.00  0.00    -0.090 HD
ENDBRANCH   5  18
BRANCH   3  22
ATOM     22  C   LIG d   1      -1.954  80.122 112.411  0.00  0.00     0.382 C 
ATOM     23  O   LIG d   1      -3.149  80.028 112.783  0.00  0.00    -0.241 OA
ATOM     24  O   LIG d   1      -1.612  79.633 111.318  0.00  0.00    -0.241 OA
ENDBRANCH   3  22
TORSDOF 7
ENDMDL
MODEL 7
REMARK VINA RESULT:      -4.3      2.660      6.140
REMARK  7 active torsions:
REMARK  status: ('A' for Active; 'I' for Inactive)
REMARK    1  A    between atoms: C_2  and  C_3 
REMARK    2  A    between atoms: C_3  and  O_6 
REMARK    3  A    between atoms: C_3  and  C_4 
REMARK    4  A    between atoms: C_7  and  O_6 
REMARK    5  A    between atoms: C_9  and  C_10 
REMARK    6  A    between atoms: N_15  and  C_14 
REMARK    7  A    between atoms: N_20  and  C_19 
REMARK       I    between atoms: C_22  and  N_20 
ROOT
ATOM      1  C   LIG d   1      -0.575  80.952 113.224  0.00  0.00     0.161 C 
ATOM      2  C   LIG d   1      -1.378  79.961 112.633  0.00  0.00     0.016 C 
ATOM      3  C   LIG d   1      -2.157  79.046 113.377  0.00  0.00     0.038 C 
ATOM      4  C   LIG d   1      -2.305  79.157 114.768  0.00  0.00     0.028 C 
ATOM      5  C   LIG d   1      -1.117  79.825 115.452  0.00  0.00    -0.047 C 
ATOM      6  C   LIG d   1      -0.811  81.160 114.734  0.00  0.00     0.091 C 
ENDROOT
BRANCH   1   7
ATOM      7  O   LIG d   1      -0.736  82.197 112.516  0.00  0.00    -0.368 OA
BRANCH   7   8
ATOM      8  C   LIG d   1       0.107  82.382 111.352  0.00  0.00     0.119 C 
BRANCH   8   9
ATOM      9  C   LIG d   1       1.568  82.205 111.806  0.00  0.00     0.028 C 
ATOM     10  C   LIG d   1       2.334  81.193 110.938  0.00  0.00     0.006 C 
ENDBRANCH   8   9
BRANCH   8  11
ATOM     11  C   LIG d   1       0.017  83.816 110.822  0.00  0.00     0.028 C 
ATOM     12  C   LIG d   1       1.226  84.677 111.224  0.00  0.00     0.006 C 
ENDBRANCH   8  11
ENDBRANCH   7   8
ENDBRANCH   1   7
BRANCH   6  13
ATOM     13  N   LIG d   1       0.390  81.838 115.288  0.00  0.00    -0.311 N 
ATOM     14  C   LIG d   1       1.561  81.228 115.464  0.00  0.00     0.210 C 
ATOM     15  C   LIG d   1       2.663  82.104 116.067  0.00  0.00     0.109 C 
ATOM     16  O   LIG d   1       1.800  80.052 115.149  0.00  0.00    -0.276 OA
ATOM     17  H   LIG d   1       0.294  82.802 115.541  0.00  0.00     0.149 HD
ENDBRANCH   6  13
BRANCH   5  18
ATOM     18  N   LIG d   1      -1.464  80.001 116.875  0.00  0.00     0.381 N 
ATOM     19  H   LIG d   1      -2.297  80.548 116.956  0.00  0.00    -0.090 HD
ATOM     20  H   LIG d   1      -0.717  80.493 117.333  0.00  0.00    -0.090 HD
ATOM     21  H   LIG d   1      -1.598  79.112 117.305  0.00  0.00    -0.090 HD
ENDBRANCH   5  18
BRANCH   3  22
ATOM     22  C   LIG d   1      -2.766  77.980 112.733  0.00  0.00     0.382 C 
ATOM     23  O   LIG d   1      -3.439  77.151 113.392  0.00  0.00    -0.241 OA
ATOM     24  O   LIG d   1      -2.616  77.812 111.508  0.00  0.00    -0.241 OA
ENDBRANCH   3  22
TORSDOF 7
ENDMDL
MODEL 8
REMARK VINA RESULT:      -4.2      2.600      5.888
REMARK  7 active torsions:
REMARK  status: ('A' for Active; 'I' for Inactive)
REMARK    1  A    between atoms: C_2  and  C_3 
REMARK    2  A    between atoms: C_3  and  O_6 
REMARK    3  A    between atoms: C_3  and  C_4 
REMARK    4  A    between atoms: C_7  and  O_6 
REMARK    5  A    between atoms: C_9  and  C_10 
REMARK    6  A    between atoms: N_15  and  C_14 
REMARK    7  A    between atoms: N_20  and  C_19 
REMARK       I    between atoms: C_22  and  N_20 
ROOT
ATOM      1  C   LIG d   1       0.874  81.162 113.914  0.00  0.00     0.161 C 
ATOM      2  C   LIG d   1      -0.358  81.271 113.248  0.00  0.00     0.016 C 
ATOM      3  C   LIG d   1      -1.580  80.810 113.791  0.00  0.00     0.038 C 
ATOM      4  C   LIG d   1      -1.674  80.341 115.110  0.00  0.00     0.028 C 
ATOM      5  C   LIG d   1      -0.373  79.745 115.636  0.00  0.00    -0.047 C 
ATOM      6  C   LIG d   1       0.773  80.755 115.399  0.00  0.00     0.091 C 
ENDROOT
BRANCH   1   7
ATOM      7  O   LIG d   1       1.612  82.393 113.781  0.00  0.00    -0.368 OA
BRANCH   7   8
ATOM      8  C   LIG d   1       2.507  82.480 112.645  0.00  0.00     0.119 C 
BRANCH   8   9
ATOM      9  C   LIG d   1       1.978  83.596 111.723  0.00  0.00     0.028 C 
ATOM     10  C   LIG d   1       3.078  84.590 111.314  0.00  0.00     0.006 C 
ENDBRANCH   8   9
BRANCH   8  11
ATOM     11  C   LIG d   1       2.464  81.202 111.802  0.00  0.00     0.028 C 
ATOM     12  C   LIG d   1       3.634  81.103 110.811  0.00  0.00     0.006 C 
ENDBRANCH   8  11
ENDBRANCH   7   8
ENDBRANCH   1   7
BRANCH   6  13
ATOM     13  N   LIG d   1       2.097  80.217 115.808  0.00  0.00    -0.311 N 
ATOM     14  C   LIG d   1       2.611  80.384 117.025  0.00  0.00     0.210 C 
ATOM     15  C   LIG d   1       3.997  79.765 117.232  0.00  0.00     0.109 C 
ATOM     16  O   LIG d   1       2.037  80.957 117.963  0.00  0.00    -0.276 OA
ATOM     17  H   LIG d   1       2.617  79.711 115.118  0.00  0.00     0.149 HD
ENDBRANCH   6  13
BRANCH   5  18
ATOM     18  N   LIG d   1      -0.574  79.424 117.062  0.00  0.00     0.381 N 
ATOM     19  H   LIG d   1      -1.237  78.680 117.151  0.00  0.00    -0.090 HD
ATOM     20  H   LIG d   1      -0.944  80.233 117.528  0.00  0.00    -0.090 HD
ATOM     21  H   LIG d   1       0.292  79.159 117.477  0.00  0.00    -0.090 HD
ENDBRANCH   5  18
BRANCH   3  22
ATOM     22  C   LIG d   1      -2.716  80.777 112.997  0.00  0.00     0.382 C 
ATOM     23  O   LIG d   1      -3.356  79.707 112.863  0.00  0.00    -0.241 OA
ATOM     24  O   LIG d   1      -3.084  81.794 112.379  0.00  0.00    -0.241 OA
ENDBRANCH   3  22
TORSDOF 7
ENDMDL
MODEL 9
REMARK VINA RESULT:      -4.2      3.352      5.100
REMARK  7 active torsions:
REMARK  status: ('A' for Active; 'I' for Inactive)
REMARK    1  A    between atoms: C_2  and  C_3 
REMARK    2  A    between atoms: C_3  and  O_6 
REMARK    3  A    between atoms: C_3  and  C_4 
REMARK    4  A    between atoms: C_7  and  O_6 
REMARK    5  A    between atoms: C_9  and  C_10 
REMARK    6  A    between atoms: N_15  and  C_14 
REMARK    7  A    between atoms: N_20  and  C_19 
REMARK       I    between atoms: C_22  and  N_20 
ROOT
ATOM      1  C   LIG d   1       0.259  80.027 115.147  0.00  0.00     0.161 C 
ATOM      2  C   LIG d   1      -0.390  80.980 114.344  0.00  0.00     0.016 C 
ATOM      3  C   LIG d   1      -1.624  80.741 113.696  0.00  0.00     0.038 C 
ATOM      4  C   LIG d   1      -2.372  79.578 113.931  0.00  0.00     0.028 C 
ATOM      5  C   LIG d   1      -1.518  78.380 114.334  0.00  0.00    -0.047 C 
ATOM      6  C   LIG d   1      -0.596  78.793 115.504  0.00  0.00     0.091 C 
ENDROOT
BRANCH   1   7
ATOM      7  O   LIG d   1       0.757  80.655 116.344  0.00  0.00    -0.368 OA
BRANCH   7   8
ATOM      8  C   LIG d   1       2.174  80.959 116.362  0.00  0.00     0.119 C 
BRANCH   8   9
ATOM      9  C   LIG d   1       2.837  80.013 117.382  0.00  0.00     0.028 C 
ATOM     10  C   LIG d   1       3.770  78.989 116.712  0.00  0.00     0.006 C 
ENDBRANCH   8   9
BRANCH   8  11
ATOM     11  C   LIG d   1       2.434  82.372 116.892  0.00  0.00     0.028 C 
ATOM     12  C   LIG d   1       3.804  82.924 116.469  0.00  0.00     0.006 C 
ENDBRANCH   8  11
ENDBRANCH   7   8
ENDBRANCH   1   7
BRANCH   6  13
ATOM     13  N   LIG d   1       0.332  77.704 115.905  0.00  0.00    -0.311 N 
ATOM     14  C   LIG d   1       0.391  77.208 117.140  0.00  0.00     0.210 C 
ATOM     15  C   LIG d   1       1.432  76.103 117.345  0.00  0.00     0.109 C 
ATOM     16  O   LIG d   1      -0.343  77.556 118.078  0.00  0.00    -0.276 OA
ATOM     17  H   LIG d   1       0.942  77.341 115.199  0.00  0.00     0.149 HD
ENDBRANCH   6  13
BRANCH   5  18
ATOM     18  N   LIG d   1      -2.434  77.277 114.682  0.00  0.00     0.381 N 
ATOM     19  H   LIG d   1      -2.924  76.974 113.864  0.00  0.00    -0.090 HD
ATOM     20  H   LIG d   1      -3.109  77.612 115.347  0.00  0.00    -0.090 HD
ATOM     21  H   LIG d   1      -1.921  76.518 115.071  0.00  0.00    -0.090 HD
ENDBRANCH   5  18
BRANCH   3  22
ATOM     22  C   LIG d   1      -2.102  81.656 112.770  0.00  0.00     0.382 C 
ATOM     23  O   LIG d   1      -3.321  81.669 112.474  0.00  0.00    -0.241 OA
ATOM     24  O   LIG d   1      -1.322  82.439 112.195  0.00  0.00    -0.241 OA
ENDBRANCH   3  22
TORSDOF 7
ENDMDL
