MODEL 1
REMARK VINA RESULT:      -5.4      0.000      0.000
REMARK  7 active torsions:
REMARK  status: ('A' for Active; 'I' for Inactive)
REMARK    1  A    between atoms: C_2  and  C_3 
REMARK    2  A    between atoms: C_3  and  O_6 
REMARK    3  A    between atoms: C_3  and  C_4 
REMARK    4  A    between atoms: C_7  and  O_6 
REMARK    5  A    between atoms: C_9  and  C_10 
REMARK    6  A    between atoms: N_15  and  C_14 
REMARK    7  A    between atoms: N_20  and  C_19 
REMARK       I    between atoms: C_22  and  N_20 
ROOT
ATOM      1  C   LIG d   1      -0.036  80.314 111.487  0.00  0.00     0.161 C 
ATOM      2  C   LIG d   1      -1.072  79.401 111.231  0.00  0.00     0.016 C 
ATOM      3  C   LIG d   1      -1.867  78.820 112.246  0.00  0.00     0.038 C 
ATOM      4  C   LIG d   1      -1.777  79.232 113.584  0.00  0.00     0.028 C 
ATOM      5  C   LIG d   1      -0.404  79.780 113.959  0.00  0.00    -0.047 C 
ATOM      6  C   LIG d   1       0.003  80.860 112.930  0.00  0.00     0.091 C 
ENDROOT
BRANCH   1   7
ATOM      7  O   LIG d   1      -0.098  81.401 110.542  0.00  0.00    -0.368 OA
BRANCH   7   8
ATOM      8  C   LIG d   1       0.945  81.431 109.537  0.00  0.00     0.119 C 
BRANCH   8   9
ATOM      9  C   LIG d   1       1.975  80.346 109.906  0.00  0.00     0.028 C 
ATOM     10  C   LIG d   1       3.377  80.929 110.157  0.00  0.00     0.006 C 
ENDBRANCH   8   9
BRANCH   8  11
ATOM     11  C   LIG d   1       1.717  82.754 109.575  0.00  0.00     0.028 C 
ATOM     12  C   LIG d   1       0.814  83.963 109.863  0.00  0.00     0.006 C 
ENDBRANCH   8  11
ENDBRANCH   7   8
ENDBRANCH   1   7
BRANCH   6  13
ATOM     13  N   LIG d   1       1.370  81.388 113.174  0.00  0.00    -0.311 N 
ATOM     14  C   LIG d   1       1.633  82.680 113.366  0.00  0.00     0.210 C 
ATOM     15  C   LIG d   1       3.113  83.013 113.581  0.00  0.00     0.109 C 
ATOM     16  O   LIG d   1       0.778  83.577 113.411  0.00  0.00    -0.276 OA
ATOM     17  H   LIG d   1       2.120  80.725 113.185  0.00  0.00     0.149 HD
ENDBRANCH   6  13
BRANCH   5  18
ATOM     18  N   LIG d   1      -0.492  80.299 115.337  0.00  0.00     0.381 N 
ATOM     19  H   LIG d   1       0.421  80.336 115.743  0.00  0.00    -0.090 HD
ATOM     20  H   LIG d   1      -1.056  79.672 115.884  0.00  0.00    -0.090 HD
ATOM     21  H   LIG d   1      -0.901  81.207 115.334  0.00  0.00    -0.090 HD
ENDBRANCH   5  18
BRANCH   3  22
ATOM     22  C   LIG d   1      -2.736  77.787 111.931  0.00  0.00     0.382 C 
ATOM     23  O   LIG d   1      -3.201  77.060 112.842  0.00  0.00    -0.241 OA
ATOM     24  O   LIG d   1      -3.026  77.544 110.745  0.00  0.00    -0.241 OA
ENDBRANCH   3  22
TORSDOF 7
ENDMDL
MODEL 2
REMARK VINA RESULT:      -4.6      1.996      2.716
REMARK  7 active torsions:
REMARK  status: ('A' for Active; 'I' for Inactive)
REMARK    1  A    between atoms: C_2  and  C_3 
REMARK    2  A    between atoms: C_3  and  O_6 
REMARK    3  A    between atoms: C_3  and  C_4 
REMARK    4  A    between atoms: C_7  and  O_6 
REMARK    5  A    between atoms: C_9  and  C_10 
REMARK    6  A    between atoms: N_15  and  C_14 
REMARK    7  A    between atoms: N_20  and  C_19 
REMARK       I    between atoms: C_22  and  N_20 
ROOT
ATOM      1  C   LIG d   1      -0.184  80.443 112.944  0.00  0.00     0.161 C 
ATOM      2  C   LIG d   1      -0.877  79.678 111.991  0.00  0.00     0.016 C 
ATOM      3  C   LIG d   1      -1.524  78.459 112.294  0.00  0.00     0.038 C 
ATOM      4  C   LIG d   1      -1.652  77.994 113.612  0.00  0.00     0.028 C 
ATOM      5  C   LIG d   1      -0.536  78.474 114.534  0.00  0.00    -0.047 C 
ATOM      6  C   LIG d   1      -0.407  80.010 114.408  0.00  0.00     0.091 C 
ENDROOT
BRANCH   1   7
ATOM      7  O   LIG d   1      -0.508  81.838 112.780  0.00  0.00    -0.368 OA
BRANCH   7   8
ATOM      8  C   LIG d   1       0.534  82.672 112.215  0.00  0.00     0.119 C 
BRANCH   8   9
ATOM      9  C   LIG d   1       0.135  82.988 110.760  0.00  0.00     0.028 C 
ATOM     10  C   LIG d   1      -0.344  84.439 110.585  0.00  0.00     0.006 C 
ENDBRANCH   8   9
BRANCH   8  11
ATOM     11  C   LIG d   1       1.862  81.916 112.117  0.00  0.00     0.028 C 
ATOM     12  C   LIG d   1       2.524  82.052 110.737  0.00  0.00     0.006 C 
ENDBRANCH   8  11
ENDBRANCH   7   8
ENDBRANCH   1   7
BRANCH   6  13
ATOM     13  N   LIG d   1       0.718  80.552 115.214  0.00  0.00    -0.311 N 
ATOM     14  C   LIG d   1       0.582  80.980 116.468  0.00  0.00     0.210 C 
ATOM     15  C   LIG d   1       1.864  81.519 117.110  0.00  0.00     0.109 C 
ATOM     16  O   LIG d   1      -0.472  80.934 117.120  0.00  0.00    -0.276 OA
ATOM     17  H   LIG d   1       1.616  80.596 114.773  0.00  0.00     0.149 HD
ENDBRANCH   6  13
BRANCH   5  18
ATOM     18  N   LIG d   1      -0.868  78.033 115.902  0.00  0.00     0.381 N 
ATOM     19  H   LIG d   1      -0.792  78.804 116.535  0.00  0.00    -0.090 HD
ATOM     20  H   LIG d   1      -0.210  77.327 116.184  0.00  0.00    -0.090 HD
ATOM     21  H   LIG d   1      -1.793  77.663 115.926  0.00  0.00    -0.090 HD
ENDBRANCH   5  18
BRANCH   3  22
ATOM     22  C   LIG d   1      -2.018  77.669 111.267  0.00  0.00     0.382 C 
ATOM     23  O   LIG d   1      -3.234  77.726 110.962  0.00  0.00    -0.241 OA
ATOM     24  O   LIG d   1      -1.273  76.868 110.671  0.00  0.00    -0.241 OA
ENDBRANCH   3  22
TORSDOF 7
ENDMDL
MODEL 3
REMARK VINA RESULT:      -4.5      2.115      4.622
REMARK  7 active torsions:
REMARK  status: ('A' for Active; 'I' for Inactive)
REMARK    1  A    between atoms: C_2  and  C_3 
REMARK    2  A    between atoms: C_3  and  O_6 
REMARK    3  A    between atoms: C_3  and  C_4 
REMARK    4  A    between atoms: C_7  and  O_6 
REMARK    5  A    between atoms: C_9  and  C_10 
REMARK    6  A    between atoms: N_15  and  C_14 
REMARK    7  A    between atoms: N_20  and  C_19 
REMARK       I    between atoms: C_22  and  N_20 
ROOT
ATOM      1  C   LIG d   1      -0.817  80.505 113.175  0.00  0.00     0.161 C 
ATOM      2  C   LIG d   1      -1.301  79.280 112.686  0.00  0.00     0.016 C 
ATOM      3  C   LIG d   1      -0.997  78.782 111.398  0.00  0.00     0.038 C 
ATOM      4  C   LIG d   1      -0.060  79.408 110.563  0.00  0.00     0.028 C 
ATOM      5  C   LIG d   1       0.066  80.908 110.811  0.00  0.00    -0.047 C 
ATOM      6  C   LIG d   1       0.295  81.149 112.321  0.00  0.00     0.091 C 
ENDROOT
BRANCH   1   7
ATOM      7  O   LIG d   1      -0.374  80.347 114.537  0.00  0.00    -0.368 OA
BRANCH   7   8
ATOM      8  C   LIG d   1      -0.884  79.188 115.243  0.00  0.00     0.119 C 
BRANCH   8   9
ATOM      9  C   LIG d   1      -1.826  79.699 116.351  0.00  0.00     0.028 C 
ATOM     10  C   LIG d   1      -3.294  79.320 116.093  0.00  0.00     0.006 C 
ENDBRANCH   8   9
BRANCH   8  11
ATOM     11  C   LIG d   1       0.236  78.444 115.974  0.00  0.00     0.028 C 
ATOM     12  C   LIG d   1       0.446  77.015 115.447  0.00  0.00     0.006 C 
ENDBRANCH   8  11
ENDBRANCH   7   8
ENDBRANCH   1   7
BRANCH   6  13
ATOM     13  N   LIG d   1       0.345  82.594 112.663  0.00  0.00    -0.311 N 
ATOM     14  C   LIG d   1       1.382  83.168 113.271  0.00  0.00     0.210 C 
ATOM     15  C   LIG d   1       1.220  84.666 113.549  0.00  0.00     0.109 C 
ATOM     16  O   LIG d   1       2.433  82.586 113.577  0.00  0.00    -0.276 OA
ATOM     17  H   LIG d   1      -0.454  83.148 112.422  0.00  0.00     0.149 HD
ENDBRANCH   6  13
BRANCH   5  18
ATOM     18  N   LIG d   1       1.171  81.408 109.972  0.00  0.00     0.381 N 
ATOM     19  H   LIG d   1       1.431  80.710 109.303  0.00  0.00    -0.090 HD
ATOM     20  H   LIG d   1       1.965  81.595 110.558  0.00  0.00    -0.090 HD
ATOM     21  H   LIG d   1       0.892  82.240 109.501  0.00  0.00    -0.090 HD
ENDBRANCH   5  18
BRANCH   3  22
ATOM     22  C   LIG d   1      -1.664  77.665 110.918  0.00  0.00     0.382 C 
ATOM     23  O   LIG d   1      -1.023  76.622 110.642  0.00  0.00    -0.241 OA
ATOM     24  O   LIG d   1      -2.893  77.702 110.716  0.00  0.00    -0.241 OA
ENDBRANCH   3  22
TORSDOF 7
ENDMDL
MODEL 4
REMARK VINA RESULT:      -4.5      3.122      5.728
REMARK  7 active torsions:
REMARK  status: ('A' for Active; 'I' for Inactive)
REMARK    1  A    between atoms: C_2  and  C_3 
REMARK    2  A    between atoms: C_3  and  O_6 
REMARK    3  A    between atoms: C_3  and  C_4 
REMARK    4  A    between atoms: C_7  and  O_6 
REMARK    5  A    between atoms: C_9  and  C_10 
REMARK    6  A    between atoms: N_15  and  C_14 
REMARK    7  A    between atoms: N_20  and  C_19 
REMARK       I    between atoms: C_22  and  N_20 
ROOT
ATOM      1  C   LIG d   1      -2.315  78.511 114.686  0.00  0.00     0.161 C 
ATOM      2  C   LIG d   1      -2.502  78.046 113.374  0.00  0.00     0.016 C 
ATOM      3  C   LIG d   1      -1.721  78.479 112.277  0.00  0.00     0.038 C 
ATOM      4  C   LIG d   1      -0.595  79.298 112.446  0.00  0.00     0.028 C 
ATOM      5  C   LIG d   1      -0.674  80.191 113.679  0.00  0.00    -0.047 C 
ATOM      6  C   LIG d   1      -1.020  79.320 114.908  0.00  0.00     0.091 C 
ENDROOT
BRANCH   1   7
ATOM      7  O   LIG d   1      -2.380  77.406 115.610  0.00  0.00    -0.368 OA
BRANCH   7   8
ATOM      8  C   LIG d   1      -1.946  76.122 115.098  0.00  0.00     0.119 C 
BRANCH   8   9
ATOM      9  C   LIG d   1      -2.879  75.048 115.692  0.00  0.00     0.028 C 
ATOM     10  C   LIG d   1      -2.189  74.207 116.778  0.00  0.00     0.006 C 
ENDBRANCH   8   9
BRANCH   8  11
ATOM     11  C   LIG d   1      -0.545  75.766 115.603  0.00  0.00     0.028 C 
ATOM     12  C   LIG d   1       0.537  75.931 114.524  0.00  0.00     0.006 C 
ENDBRANCH   8  11
ENDBRANCH   7   8
ENDBRANCH   1   7
BRANCH   6  13
ATOM     13  N   LIG d   1      -1.200  80.127 116.143  0.00  0.00    -0.311 N 
ATOM     14  C   LIG d   1      -0.226  80.343 117.026  0.00  0.00     0.210 C 
ATOM     15  C   LIG d   1      -0.629  81.186 118.240  0.00  0.00     0.109 C 
ATOM     16  O   LIG d   1       0.941  79.943 116.903  0.00  0.00    -0.276 OA
ATOM     17  H   LIG d   1      -2.108  80.516 116.305  0.00  0.00     0.149 HD
ENDBRANCH   6  13
BRANCH   5  18
ATOM     18  N   LIG d   1       0.620  80.887 113.809  0.00  0.00     0.381 N 
ATOM     19  H   LIG d   1       0.599  81.495 114.604  0.00  0.00    -0.090 HD
ATOM     20  H   LIG d   1       0.772  81.446 112.988  0.00  0.00    -0.090 HD
ATOM     21  H   LIG d   1       1.356  80.223 113.909  0.00  0.00    -0.090 HD
ENDBRANCH   5  18
BRANCH   3  22
ATOM     22  C   LIG d   1      -2.090  78.123 110.988  0.00  0.00     0.382 C 
ATOM     23  O   LIG d   1      -1.407  78.513 110.011  0.00  0.00    -0.241 OA
ATOM     24  O   LIG d   1      -3.122  77.455 110.789  0.00  0.00    -0.241 OA
ENDBRANCH   3  22
TORSDOF 7
ENDMDL
MODEL 5
REMARK VINA RESULT:      -4.3      3.738      6.209
REMARK  7 active torsions:
REMARK  status: ('A' for Active; 'I' for Inactive)
REMARK    1  A    between atoms: C_2  and  C_3 
REMARK    2  A    between atoms: C_3  and  O_6 
REMARK    3  A    between atoms: C_3  and  C_4 
REMARK    4  A    between atoms: C_7  and  O_6 
REMARK    5  A    between atoms: C_9  and  C_10 
REMARK    6  A    between atoms: N_15  and  C_14 
REMARK    7  A    between atoms: N_20  and  C_19 
REMARK       I    between atoms: C_22  and  N_20 
ROOT
ATOM      1  C   LIG d   1       4.105  83.038 112.974  0.00  0.00     0.161 C 
ATOM      2  C   LIG d   1       5.122  82.654 113.864  0.00  0.00     0.016 C 
ATOM      3  C   LIG d   1       4.901  82.405 115.238  0.00  0.00     0.038 C 
ATOM      4  C   LIG d   1       3.610  82.377 115.787  0.00  0.00     0.028 C 
ATOM      5  C   LIG d   1       2.613  83.252 115.037  0.00  0.00    -0.047 C 
ATOM      6  C   LIG d   1       2.673  82.904 113.532  0.00  0.00     0.091 C 
ENDROOT
BRANCH   1   7
ATOM      7  O   LIG d   1       4.233  82.304 111.740  0.00  0.00    -0.368 OA
BRANCH   7   8
ATOM      8  C   LIG d   1       5.088  82.897 110.732  0.00  0.00     0.119 C 
BRANCH   8   9
ATOM      9  C   LIG d   1       4.372  84.152 110.196  0.00  0.00     0.028 C 
ATOM     10  C   LIG d   1       3.078  83.811 109.439  0.00  0.00     0.006 C 
ENDBRANCH   8   9
BRANCH   8  11
ATOM     11  C   LIG d   1       5.246  81.972 109.521  0.00  0.00     0.028 C 
ATOM     12  C   LIG d   1       4.847  80.519 109.825  0.00  0.00     0.006 C 
ENDBRANCH   8  11
ENDBRANCH   7   8
ENDBRANCH   1   7
BRANCH   6  13
ATOM     13  N   LIG d   1       1.788  83.773 112.713  0.00  0.00    -0.311 N 
ATOM     14  C   LIG d   1       0.542  83.443 112.378  0.00  0.00     0.210 C 
ATOM     15  C   LIG d   1      -0.190  84.473 111.512  0.00  0.00     0.109 C 
ATOM     16  O   LIG d   1      -0.038  82.409 112.742  0.00  0.00    -0.276 OA
ATOM     17  H   LIG d   1       2.168  84.645 112.401  0.00  0.00     0.149 HD
ENDBRANCH   6  13
BRANCH   5  18
ATOM     18  N   LIG d   1       1.282  83.021 115.630  0.00  0.00     0.381 N 
ATOM     19  H   LIG d   1       1.348  82.328 116.349  0.00  0.00    -0.090 HD
ATOM     20  H   LIG d   1       0.663  82.678 114.917  0.00  0.00    -0.090 HD
ATOM     21  H   LIG d   1       0.926  83.871 116.009  0.00  0.00    -0.090 HD
ENDBRANCH   5  18
BRANCH   3  22
ATOM     22  C   LIG d   1       5.982  82.220 116.086  0.00  0.00     0.382 C 
ATOM     23  O   LIG d   1       6.317  83.131 116.881  0.00  0.00    -0.241 OA
ATOM     24  O   LIG d   1       6.654  81.173 116.034  0.00  0.00    -0.241 OA
ENDBRANCH   3  22
TORSDOF 7
ENDMDL
MODEL 6
REMARK VINA RESULT:      -4.0      3.743      6.432
REMARK  7 active torsions:
REMARK  status: ('A' for Active; 'I' for Inactive)
REMARK    1  A    between atoms: C_2  and  C_3 
REMARK    2  A    between atoms: C_3  and  O_6 
REMARK    3  A    between atoms: C_3  and  C_4 
REMARK    4  A    between atoms: C_7  and  O_6 
REMARK    5  A    between atoms: C_9  and  C_10 
REMARK    6  A    between atoms: N_15  and  C_14 
REMARK    7  A    between atoms: N_20  and  C_19 
REMARK       I    between atoms: C_22  and  N_20 
ROOT
ATOM      1  C   LIG d   1      -1.843  77.120 114.301  0.00  0.00     0.161 C 
ATOM      2  C   LIG d   1      -1.525  77.647 113.038  0.00  0.00     0.016 C 
ATOM      3  C   LIG d   1      -1.024  78.954 112.844  0.00  0.00     0.038 C 
ATOM      4  C   LIG d   1      -0.662  79.778 113.921  0.00  0.00     0.028 C 
ATOM      5  C   LIG d   1      -1.438  79.478 115.199  0.00  0.00    -0.047 C 
ATOM      6  C   LIG d   1      -1.351  77.964 115.496  0.00  0.00     0.091 C 
ENDROOT
BRANCH   1   7
ATOM      7  O   LIG d   1      -1.352  75.769 114.405  0.00  0.00    -0.368 OA
BRANCH   7   8
ATOM      8  C   LIG d   1      -0.181  75.579 115.237  0.00  0.00     0.119 C 
BRANCH   8   9
ATOM      9  C   LIG d   1       1.050  75.584 114.311  0.00  0.00     0.028 C 
ATOM     10  C   LIG d   1       1.327  74.202 113.695  0.00  0.00     0.006 C 
ENDBRANCH   8   9
BRANCH   8  11
ATOM     11  C   LIG d   1      -0.186  74.198 115.899  0.00  0.00     0.028 C 
ATOM     12  C   LIG d   1      -0.939  74.181 117.238  0.00  0.00     0.006 C 
ENDBRANCH   8  11
ENDBRANCH   7   8
ENDBRANCH   1   7
BRANCH   6  13
ATOM     13  N   LIG d   1      -2.153  77.572 116.684  0.00  0.00    -0.311 N 
ATOM     14  C   LIG d   1      -1.669  77.560 117.924  0.00  0.00     0.210 C 
ATOM     15  C   LIG d   1      -2.659  77.105 119.001  0.00  0.00     0.109 C 
ATOM     16  O   LIG d   1      -0.523  77.915 118.239  0.00  0.00    -0.276 OA
ATOM     17  H   LIG d   1      -3.103  77.299 116.523  0.00  0.00     0.149 HD
ENDBRANCH   6  13
BRANCH   5  18
ATOM     18  N   LIG d   1      -0.866  80.312 116.273  0.00  0.00     0.381 N 
ATOM     19  H   LIG d   1      -0.003  80.714 115.966  0.00  0.00    -0.090 HD
ATOM     20  H   LIG d   1      -0.677  79.730 117.070  0.00  0.00    -0.090 HD
ATOM     21  H   LIG d   1      -1.507  81.033 116.523  0.00  0.00    -0.090 HD
ENDBRANCH   5  18
BRANCH   3  22
ATOM     22  C   LIG d   1      -0.918  79.466 111.559  0.00  0.00     0.382 C 
ATOM     23  O   LIG d   1      -0.451  80.617 111.379  0.00  0.00    -0.241 OA
ATOM     24  O   LIG d   1      -1.323  78.808 110.582  0.00  0.00    -0.241 OA
ENDBRANCH   3  22
TORSDOF 7
ENDMDL
MODEL 7
REMARK VINA RESULT:      -3.8      2.929      5.796
REMARK  7 active torsions:
REMARK  status: ('A' for Active; 'I' for Inactive)
REMARK    1  A    between atoms: C_2  and  C_3 
REMARK    2  A    between atoms: C_3  and  O_6 
REMARK    3  A    between atoms: C_3  and  C_4 
REMARK    4  A    between atoms: C_7  and  O_6 
REMARK    5  A    between atoms: C_9  and  C_10 
REMARK    6  A    between atoms: N_15  and  C_14 
REMARK    7  A    between atoms: N_20  and  C_19 
REMARK       I    between atoms: C_22  and  N_20 
ROOT
ATOM      1  C   LIG d   1       2.426  82.522 112.532  0.00  0.00     0.161 C 
ATOM      2  C   LIG d   1       3.125  82.069 111.401  0.00  0.00     0.016 C 
ATOM      3  C   LIG d   1       4.535  81.985 111.340  0.00  0.00     0.038 C 
ATOM      4  C   LIG d   1       5.340  82.209 112.467  0.00  0.00     0.028 C 
ATOM      5  C   LIG d   1       4.711  83.155 113.483  0.00  0.00    -0.047 C 
ATOM      6  C   LIG d   1       3.282  82.665 113.808  0.00  0.00     0.091 C 
ENDROOT
BRANCH   1   7
ATOM      7  O   LIG d   1       1.293  81.667 112.781  0.00  0.00    -0.368 OA
BRANCH   7   8
ATOM      8  C   LIG d   1       0.365  81.500 111.680  0.00  0.00     0.119 C 
BRANCH   8   9
ATOM      9  C   LIG d   1      -0.673  82.635 111.774  0.00  0.00     0.028 C 
ATOM     10  C   LIG d   1      -0.399  83.765 110.768  0.00  0.00     0.006 C 
ENDBRANCH   8   9
BRANCH   8  11
ATOM     11  C   LIG d   1      -0.437  80.203 111.820  0.00  0.00     0.028 C 
ATOM     12  C   LIG d   1      -1.302  80.171 113.090  0.00  0.00     0.006 C 
ENDBRANCH   8  11
ENDBRANCH   7   8
ENDBRANCH   1   7
BRANCH   6  13
ATOM     13  N   LIG d   1       2.564  83.582 114.731  0.00  0.00    -0.311 N 
ATOM     14  C   LIG d   1       2.506  83.397 116.049  0.00  0.00     0.210 C 
ATOM     15  C   LIG d   1       1.697  84.450 116.814  0.00  0.00     0.109 C 
ATOM     16  O   LIG d   1       3.074  82.480 116.660  0.00  0.00    -0.276 OA
ATOM     17  H   LIG d   1       2.100  84.369 114.322  0.00  0.00     0.149 HD
ENDBRANCH   6  13
BRANCH   5  18
ATOM     18  N   LIG d   1       5.593  83.190 114.665  0.00  0.00     0.381 N 
ATOM     19  H   LIG d   1       5.687  82.269 115.045  0.00  0.00    -0.090 HD
ATOM     20  H   LIG d   1       5.175  83.778 115.365  0.00  0.00    -0.090 HD
ATOM     21  H   LIG d   1       6.488  83.546 114.412  0.00  0.00    -0.090 HD
ENDBRANCH   5  18
BRANCH   3  22
ATOM     22  C   LIG d   1       5.156  81.714 110.130  0.00  0.00     0.382 C 
ATOM     23  O   LIG d   1       5.603  82.654 109.430  0.00  0.00    -0.241 OA
ATOM     24  O   LIG d   1       5.234  80.544 109.709  0.00  0.00    -0.241 OA
ENDBRANCH   3  22
TORSDOF 7
ENDMDL
MODEL 8
REMARK VINA RESULT:      -3.8      3.457      6.625
REMARK  7 active torsions:
REMARK  status: ('A' for Active; 'I' for Inactive)
REMARK    1  A    between atoms: C_2  and  C_3 
REMARK    2  A    between atoms: C_3  and  O_6 
REMARK    3  A    between atoms: C_3  and  C_4 
REMARK    4  A    between atoms: C_7  and  O_6 
REMARK    5  A    between atoms: C_9  and  C_10 
REMARK    6  A    between atoms: N_15  and  C_14 
REMARK    7  A    between atoms: N_20  and  C_19 
REMARK       I    between atoms: C_22  and  N_20 
ROOT
ATOM      1  C   LIG d   1      -0.292  78.690 114.759  0.00  0.00     0.161 C 
ATOM      2  C   LIG d   1      -0.397  79.904 114.059  0.00  0.00     0.016 C 
ATOM      3  C   LIG d   1      -1.425  80.179 113.128  0.00  0.00     0.038 C 
ATOM      4  C   LIG d   1      -2.512  79.311 112.945  0.00  0.00     0.028 C 
ATOM      5  C   LIG d   1      -2.182  77.855 113.256  0.00  0.00    -0.047 C 
ATOM      6  C   LIG d   1      -1.530  77.775 114.655  0.00  0.00     0.091 C 
ENDROOT
BRANCH   1   7
ATOM      7  O   LIG d   1       0.025  78.949 116.141  0.00  0.00    -0.368 OA
BRANCH   7   8
ATOM      8  C   LIG d   1      -1.104  79.108 117.035  0.00  0.00     0.119 C 
BRANCH   8   9
ATOM      9  C   LIG d   1      -1.037  80.533 117.617  0.00  0.00     0.028 C 
ATOM     10  C   LIG d   1       0.397  81.087 117.650  0.00  0.00     0.006 C 
ENDBRANCH   8   9
BRANCH   8  11
ATOM     11  C   LIG d   1      -0.994  78.171 118.242  0.00  0.00     0.028 C 
ATOM     12  C   LIG d   1       0.450  77.725 118.520  0.00  0.00     0.006 C 
ENDBRANCH   8  11
ENDBRANCH   7   8
ENDBRANCH   1   7
BRANCH   6  13
ATOM     13  N   LIG d   1      -1.100  76.396 115.003  0.00  0.00    -0.311 N 
ATOM     14  C   LIG d   1      -1.848  75.551 115.711  0.00  0.00     0.210 C 
ATOM     15  C   LIG d   1      -1.207  74.185 115.974  0.00  0.00     0.109 C 
ATOM     16  O   LIG d   1      -2.994  75.792 116.118  0.00  0.00    -0.276 OA
ATOM     17  H   LIG d   1      -0.196  76.106 114.685  0.00  0.00     0.149 HD
ENDBRANCH   6  13
BRANCH   5  18
ATOM     18  N   LIG d   1      -3.436  77.083 113.158  0.00  0.00     0.381 N 
ATOM     19  H   LIG d   1      -3.968  77.193 113.998  0.00  0.00    -0.090 HD
ATOM     20  H   LIG d   1      -3.211  76.110 113.051  0.00  0.00    -0.090 HD
ATOM     21  H   LIG d   1      -3.968  77.397 112.376  0.00  0.00    -0.090 HD
ENDBRANCH   5  18
BRANCH   3  22
ATOM     22  C   LIG d   1      -1.351  81.317 112.339  0.00  0.00     0.382 C 
ATOM     23  O   LIG d   1      -2.171  82.251 112.507  0.00  0.00    -0.241 OA
ATOM     24  O   LIG d   1      -0.502  81.402 111.431  0.00  0.00    -0.241 OA
ENDBRANCH   3  22
TORSDOF 7
ENDMDL
MODEL 9
REMARK VINA RESULT:      -3.7      2.315      6.260
REMARK  7 active torsions:
REMARK  status: ('A' for Active; 'I' for Inactive)
REMARK    1  A    between atoms: C_2  and  C_3 
REMARK    2  A    between atoms: C_3  and  O_6 
REMARK    3  A    between atoms: C_3  and  C_4 
REMARK    4  A    between atoms: C_7  and  O_6 
REMARK    5  A    between atoms: C_9  and  C_10 
REMARK    6  A    between atoms: N_15  and  C_14 
REMARK    7  A    between atoms: N_20  and  C_19 
REMARK       I    between atoms: C_22  and  N_20 
ROOT
ATOM      1  C   LIG d   1       0.093  80.483 113.554  0.00  0.00     0.161 C 
ATOM      2  C   LIG d   1       1.119  81.400 113.833  0.00  0.00     0.016 C 
ATOM      3  C   LIG d   1       1.711  82.229 112.852  0.00  0.00     0.038 C 
ATOM      4  C   LIG d   1       1.209  82.304 111.545  0.00  0.00     0.028 C 
ATOM      5  C   LIG d   1       0.505  81.029 111.092  0.00  0.00    -0.047 C 
ATOM      6  C   LIG d   1      -0.543  80.630 112.156  0.00  0.00     0.091 C 
ENDROOT
BRANCH   1   7
ATOM      7  O   LIG d   1      -0.921  80.557 114.576  0.00  0.00    -0.368 OA
BRANCH   7   8
ATOM      8  C   LIG d   1      -1.068  79.384 115.414  0.00  0.00     0.119 C 
BRANCH   8   9
ATOM      9  C   LIG d   1      -0.701  79.796 116.853  0.00  0.00     0.028 C 
ATOM     10  C   LIG d   1       0.800  79.635 117.146  0.00  0.00     0.006 C 
ENDBRANCH   8   9
BRANCH   8  11
ATOM     11  C   LIG d   1      -0.058  78.297 115.034  0.00  0.00     0.028 C 
ATOM     12  C   LIG d   1      -0.729  76.970 114.646  0.00  0.00     0.006 C 
ENDBRANCH   8  11
ENDBRANCH   7   8
ENDBRANCH   1   7
BRANCH   6  13
ATOM     13  N   LIG d   1      -1.220  79.347 111.832  0.00  0.00    -0.311 N 
ATOM     14  C   LIG d   1      -2.504  79.109 112.092  0.00  0.00     0.210 C 
ATOM     15  C   LIG d   1      -2.997  77.714 111.695  0.00  0.00     0.109 C 
ATOM     16  O   LIG d   1      -3.290  79.933 112.584  0.00  0.00    -0.276 OA
ATOM     17  H   LIG d   1      -0.663  78.634 111.402  0.00  0.00     0.149 HD
ENDBRANCH   6  13
BRANCH   5  18
ATOM     18  N   LIG d   1      -0.088  81.294 109.767  0.00  0.00     0.381 N 
ATOM     19  H   LIG d   1      -0.119  80.447 109.235  0.00  0.00    -0.090 HD
ATOM     20  H   LIG d   1       0.492  81.953 109.278  0.00  0.00    -0.090 HD
ATOM     21  H   LIG d   1      -1.007  81.663 109.872  0.00  0.00    -0.090 HD
ENDBRANCH   5  18
BRANCH   3  22
ATOM     22  C   LIG d   1       2.843  82.964 113.167  0.00  0.00     0.382 C 
ATOM     23  O   LIG d   1       3.607  83.360 112.253  0.00  0.00    -0.241 OA
ATOM     24  O   LIG d   1       3.134  83.200 114.355  0.00  0.00    -0.241 OA
ENDBRANCH   3  22
TORSDOF 7
ENDMDL
