MODEL 1
REMARK VINA RESULT:      -4.6      0.000      0.000
REMARK  7 active torsions:
REMARK  status: ('A' for Active; 'I' for Inactive)
REMARK    1  A    between atoms: C_2  and  C_3 
REMARK    2  A    between atoms: C_3  and  O_6 
REMARK    3  A    between atoms: C_3  and  C_4 
REMARK    4  A    between atoms: C_7  and  O_6 
REMARK    5  A    between atoms: C_9  and  C_10 
REMARK    6  A    between atoms: N_15  and  C_14 
REMARK    7  A    between atoms: N_20  and  C_19 
REMARK       I    between atoms: C_22  and  N_20 
ROOT
ATOM      1  C   LIG d   1      -0.455  79.785 113.366  0.00  0.00     0.161 C 
ATOM      2  C   LIG d   1      -1.439  78.808 113.141  0.00  0.00     0.016 C 
ATOM      3  C   LIG d   1      -1.770  78.318 111.857  0.00  0.00     0.038 C 
ATOM      4  C   LIG d   1      -1.031  78.667 110.717  0.00  0.00     0.028 C 
ATOM      5  C   LIG d   1      -0.359  80.031 110.824  0.00  0.00    -0.047 C 
ATOM      6  C   LIG d   1       0.439  80.096 112.147  0.00  0.00     0.091 C 
ENDROOT
BRANCH   1   7
ATOM      7  O   LIG d   1       0.354  79.413 114.499  0.00  0.00    -0.368 OA
BRANCH   7   8
ATOM      8  C   LIG d   1      -0.347  78.800 115.609  0.00  0.00     0.119 C 
BRANCH   8   9
ATOM      9  C   LIG d   1      -0.400  79.835 116.750  0.00  0.00     0.028 C 
ATOM     10  C   LIG d   1      -0.652  79.184 118.120  0.00  0.00     0.006 C 
ENDBRANCH   8   9
BRANCH   8  11
ATOM     11  C   LIG d   1       0.437  77.612 116.175  0.00  0.00     0.028 C 
ATOM     12  C   LIG d   1      -0.034  76.264 115.609  0.00  0.00     0.006 C 
ENDBRANCH   8  11
ENDBRANCH   7   8
ENDBRANCH   1   7
BRANCH   6  13
ATOM     13  N   LIG d   1       1.058  81.428 112.371  0.00  0.00    -0.311 N 
ATOM     14  C   LIG d   1       2.283  81.746 111.956  0.00  0.00     0.210 C 
ATOM     15  C   LIG d   1       2.737  83.166 112.308  0.00  0.00     0.109 C 
ATOM     16  O   LIG d   1       3.025  80.997 111.301  0.00  0.00    -0.276 OA
ATOM     17  H   LIG d   1       0.514  82.106 112.867  0.00  0.00     0.149 HD
ENDBRANCH   6  13
BRANCH   5  18
ATOM     18  N   LIG d   1       0.488  80.207 109.629  0.00  0.00     0.381 N 
ATOM     19  H   LIG d   1       0.837  81.144 109.596  0.00  0.00    -0.090 HD
ATOM     20  H   LIG d   1      -0.071  80.049 108.809  0.00  0.00    -0.090 HD
ATOM     21  H   LIG d   1       1.247  79.562 109.652  0.00  0.00    -0.090 HD
ENDBRANCH   5  18
BRANCH   3  22
ATOM     22  C   LIG d   1      -2.879  77.501 111.698  0.00  0.00     0.382 C 
ATOM     23  O   LIG d   1      -3.437  77.412 110.578  0.00  0.00    -0.241 OA
ATOM     24  O   LIG d   1      -3.355  76.886 112.671  0.00  0.00    -0.241 OA
ENDBRANCH   3  22
TORSDOF 7
ENDMDL
MODEL 2
REMARK VINA RESULT:      -4.5      3.261      4.896
REMARK  7 active torsions:
REMARK  status: ('A' for Active; 'I' for Inactive)
REMARK    1  A    between atoms: C_2  and  C_3 
REMARK    2  A    between atoms: C_3  and  O_6 
REMARK    3  A    between atoms: C_3  and  C_4 
REMARK    4  A    between atoms: C_7  and  O_6 
REMARK    5  A    between atoms: C_9  and  C_10 
REMARK    6  A    between atoms: N_15  and  C_14 
REMARK    7  A    between atoms: N_20  and  C_19 
REMARK       I    between atoms: C_22  and  N_20 
ROOT
ATOM      1  C   LIG d   1      -1.787  77.287 116.408  0.00  0.00     0.161 C 
ATOM      2  C   LIG d   1      -2.379  77.196 115.137  0.00  0.00     0.016 C 
ATOM      3  C   LIG d   1      -1.890  77.881 114.000  0.00  0.00     0.038 C 
ATOM      4  C   LIG d   1      -0.679  78.588 114.025  0.00  0.00     0.028 C 
ATOM      5  C   LIG d   1      -0.317  79.121 115.407  0.00  0.00    -0.047 C 
ATOM      6  C   LIG d   1      -0.402  77.965 116.429  0.00  0.00     0.091 C 
ENDROOT
BRANCH   1   7
ATOM      7  O   LIG d   1      -1.714  75.978 117.007  0.00  0.00    -0.368 OA
BRANCH   7   8
ATOM      8  C   LIG d   1      -0.429  75.314 116.933  0.00  0.00     0.119 C 
BRANCH   8   9
ATOM      9  C   LIG d   1      -0.515  74.264 115.808  0.00  0.00     0.028 C 
ATOM     10  C   LIG d   1       0.311  74.658 114.572  0.00  0.00     0.006 C 
ENDBRANCH   8   9
BRANCH   8  11
ATOM     11  C   LIG d   1      -0.138  74.518 118.209  0.00  0.00     0.028 C 
ATOM     12  C   LIG d   1       1.202  74.901 118.857  0.00  0.00     0.006 C 
ENDBRANCH   8  11
ENDBRANCH   7   8
ENDBRANCH   1   7
BRANCH   6  13
ATOM     13  N   LIG d   1      -0.144  78.418 117.821  0.00  0.00    -0.311 N 
ATOM     14  C   LIG d   1       1.069  78.449 118.370  0.00  0.00     0.210 C 
ATOM     15  C   LIG d   1       1.109  78.931 119.823  0.00  0.00     0.109 C 
ATOM     16  O   LIG d   1       2.119  78.153 117.780  0.00  0.00    -0.276 OA
ATOM     17  H   LIG d   1      -0.937  78.706 118.361  0.00  0.00     0.149 HD
ENDBRANCH   6  13
BRANCH   5  18
ATOM     18  N   LIG d   1       1.030  79.716 115.317  0.00  0.00     0.381 N 
ATOM     19  H   LIG d   1       1.038  80.431 114.618  0.00  0.00    -0.090 HD
ATOM     20  H   LIG d   1       1.683  79.002 115.045  0.00  0.00    -0.090 HD
ATOM     21  H   LIG d   1       1.294  80.098 116.198  0.00  0.00    -0.090 HD
ENDBRANCH   5  18
BRANCH   3  22
ATOM     22  C   LIG d   1      -2.637  77.894 112.832  0.00  0.00     0.382 C 
ATOM     23  O   LIG d   1      -2.563  76.933 112.030  0.00  0.00    -0.241 OA
ATOM     24  O   LIG d   1      -3.349  78.876 112.549  0.00  0.00    -0.241 OA
ENDBRANCH   3  22
TORSDOF 7
ENDMDL
MODEL 3
REMARK VINA RESULT:      -4.3      3.579      5.384
REMARK  7 active torsions:
REMARK  status: ('A' for Active; 'I' for Inactive)
REMARK    1  A    between atoms: C_2  and  C_3 
REMARK    2  A    between atoms: C_3  and  O_6 
REMARK    3  A    between atoms: C_3  and  C_4 
REMARK    4  A    between atoms: C_7  and  O_6 
REMARK    5  A    between atoms: C_9  and  C_10 
REMARK    6  A    between atoms: N_15  and  C_14 
REMARK    7  A    between atoms: N_20  and  C_19 
REMARK       I    between atoms: C_22  and  N_20 
ROOT
ATOM      1  C   LIG d   1      -1.991  78.223 116.270  0.00  0.00     0.161 C 
ATOM      2  C   LIG d   1      -2.464  79.046 115.234  0.00  0.00     0.016 C 
ATOM      3  C   LIG d   1      -2.164  78.830 113.870  0.00  0.00     0.038 C 
ATOM      4  C   LIG d   1      -1.490  77.680 113.432  0.00  0.00     0.028 C 
ATOM      5  C   LIG d   1      -0.561  77.085 114.485  0.00  0.00    -0.047 C 
ATOM      6  C   LIG d   1      -1.347  76.901 115.803  0.00  0.00     0.091 C 
ENDROOT
BRANCH   1   7
ATOM      7  O   LIG d   1      -3.053  77.959 117.208  0.00  0.00    -0.368 OA
BRANCH   7   8
ATOM      8  C   LIG d   1      -3.111  78.827 118.366  0.00  0.00     0.119 C 
BRANCH   8   9
ATOM      9  C   LIG d   1      -1.696  79.393 118.592  0.00  0.00     0.028 C 
ATOM     10  C   LIG d   1      -1.714  80.885 118.966  0.00  0.00     0.006 C 
ENDBRANCH   8   9
BRANCH   8  11
ATOM     11  C   LIG d   1      -3.440  78.039 119.638  0.00  0.00     0.028 C 
ATOM     12  C   LIG d   1      -2.683  76.704 119.723  0.00  0.00     0.006 C 
ENDBRANCH   8  11
ENDBRANCH   7   8
ENDBRANCH   1   7
BRANCH   6  13
ATOM     13  N   LIG d   1      -0.490  76.402 116.910  0.00  0.00    -0.311 N 
ATOM     14  C   LIG d   1      -0.356  75.111 117.208  0.00  0.00     0.210 C 
ATOM     15  C   LIG d   1       0.560  74.814 118.399  0.00  0.00     0.109 C 
ATOM     16  O   LIG d   1      -0.883  74.181 116.579  0.00  0.00    -0.276 OA
ATOM     17  H   LIG d   1      -0.001  77.087 117.452  0.00  0.00     0.149 HD
ENDBRANCH   6  13
BRANCH   5  18
ATOM     18  N   LIG d   1      -0.031  75.818 113.946  0.00  0.00     0.381 N 
ATOM     19  H   LIG d   1      -0.628  75.060 114.212  0.00  0.00    -0.090 HD
ATOM     20  H   LIG d   1       0.880  75.654 114.338  0.00  0.00    -0.090 HD
ATOM     21  H   LIG d   1       0.031  75.869 112.953  0.00  0.00    -0.090 HD
ENDBRANCH   5  18
BRANCH   3  22
ATOM     22  C   LIG d   1      -2.505  79.791 112.930  0.00  0.00     0.382 C 
ATOM     23  O   LIG d   1      -3.378  80.650 113.201  0.00  0.00    -0.241 OA
ATOM     24  O   LIG d   1      -1.983  79.782 111.799  0.00  0.00    -0.241 OA
ENDBRANCH   3  22
TORSDOF 7
ENDMDL
MODEL 4
REMARK VINA RESULT:      -4.3      2.193      4.780
REMARK  7 active torsions:
REMARK  status: ('A' for Active; 'I' for Inactive)
REMARK    1  A    between atoms: C_2  and  C_3 
REMARK    2  A    between atoms: C_3  and  O_6 
REMARK    3  A    between atoms: C_3  and  C_4 
REMARK    4  A    between atoms: C_7  and  O_6 
REMARK    5  A    between atoms: C_9  and  C_10 
REMARK    6  A    between atoms: N_15  and  C_14 
REMARK    7  A    between atoms: N_20  and  C_19 
REMARK       I    between atoms: C_22  and  N_20 
ROOT
ATOM      1  C   LIG d   1       0.175  79.693 112.709  0.00  0.00     0.161 C 
ATOM      2  C   LIG d   1      -0.679  79.043 111.802  0.00  0.00     0.016 C 
ATOM      3  C   LIG d   1      -1.605  78.045 112.184  0.00  0.00     0.038 C 
ATOM      4  C   LIG d   1      -1.847  77.734 113.530  0.00  0.00     0.028 C 
ATOM      5  C   LIG d   1      -0.652  78.003 114.439  0.00  0.00    -0.047 C 
ATOM      6  C   LIG d   1      -0.153  79.446 114.196  0.00  0.00     0.091 C 
ENDROOT
BRANCH   1   7
ATOM      7  O   LIG d   1       0.200  81.106 112.429  0.00  0.00    -0.368 OA
BRANCH   7   8
ATOM      8  C   LIG d   1       1.122  81.535 111.397  0.00  0.00     0.119 C 
BRANCH   8   9
ATOM      9  C   LIG d   1       2.347  82.153 112.099  0.00  0.00     0.028 C 
ATOM     10  C   LIG d   1       3.670  81.520 111.635  0.00  0.00     0.006 C 
ENDBRANCH   8   9
BRANCH   8  11
ATOM     11  C   LIG d   1       0.527  82.665 110.552  0.00  0.00     0.028 C 
ATOM     12  C   LIG d   1      -0.324  83.643 111.379  0.00  0.00     0.006 C 
ENDBRANCH   8  11
ENDBRANCH   7   8
ENDBRANCH   1   7
BRANCH   6  13
ATOM     13  N   LIG d   1       1.066  79.764 114.984  0.00  0.00    -0.311 N 
ATOM     14  C   LIG d   1       1.034  80.177 116.250  0.00  0.00     0.210 C 
ATOM     15  C   LIG d   1       2.405  80.469 116.870  0.00  0.00     0.109 C 
ATOM     16  O   LIG d   1       0.003  80.298 116.929  0.00  0.00    -0.276 OA
ATOM     17  H   LIG d   1       1.948  79.663 114.521  0.00  0.00     0.149 HD
ENDBRANCH   6  13
BRANCH   5  18
ATOM     18  N   LIG d   1      -1.086  77.768 115.828  0.00  0.00     0.381 N 
ATOM     19  H   LIG d   1      -0.555  78.343 116.451  0.00  0.00    -0.090 HD
ATOM     20  H   LIG d   1      -0.915  76.806 116.064  0.00  0.00    -0.090 HD
ATOM     21  H   LIG d   1      -2.057  77.972 115.922  0.00  0.00    -0.090 HD
ENDBRANCH   5  18
BRANCH   3  22
ATOM     22  C   LIG d   1      -2.271  77.317 111.210  0.00  0.00     0.382 C 
ATOM     23  O   LIG d   1      -1.683  76.384 110.612  0.00  0.00    -0.241 OA
ATOM     24  O   LIG d   1      -3.439  77.610 110.891  0.00  0.00    -0.241 OA
ENDBRANCH   3  22
TORSDOF 7
ENDMDL
MODEL 5
REMARK VINA RESULT:      -4.2      3.140      4.625
REMARK  7 active torsions:
REMARK  status: ('A' for Active; 'I' for Inactive)
REMARK    1  A    between atoms: C_2  and  C_3 
REMARK    2  A    between atoms: C_3  and  O_6 
REMARK    3  A    between atoms: C_3  and  C_4 
REMARK    4  A    between atoms: C_7  and  O_6 
REMARK    5  A    between atoms: C_9  and  C_10 
REMARK    6  A    between atoms: N_15  and  C_14 
REMARK    7  A    between atoms: N_20  and  C_19 
REMARK       I    between atoms: C_22  and  N_20 
ROOT
ATOM      1  C   LIG d   1      -1.628  76.929 115.846  0.00  0.00     0.161 C 
ATOM      2  C   LIG d   1      -2.211  76.916 114.568  0.00  0.00     0.016 C 
ATOM      3  C   LIG d   1      -1.794  77.762 113.514  0.00  0.00     0.038 C 
ATOM      4  C   LIG d   1      -0.659  78.578 113.624  0.00  0.00     0.028 C 
ATOM      5  C   LIG d   1      -0.349  78.996 115.057  0.00  0.00    -0.047 C 
ATOM      6  C   LIG d   1      -0.316  77.735 115.951  0.00  0.00     0.091 C 
ENDROOT
BRANCH   1   7
ATOM      7  O   LIG d   1      -1.425  75.578 116.305  0.00  0.00    -0.368 OA
BRANCH   7   8
ATOM      8  C   LIG d   1      -2.247  75.152 117.419  0.00  0.00     0.119 C 
BRANCH   8   9
ATOM      9  C   LIG d   1      -3.085  76.366 117.866  0.00  0.00     0.028 C 
ATOM     10  C   LIG d   1      -2.802  76.769 119.324  0.00  0.00     0.006 C 
ENDBRANCH   8   9
BRANCH   8  11
ATOM     11  C   LIG d   1      -1.391  74.780 118.633  0.00  0.00     0.028 C 
ATOM     12  C   LIG d   1       0.077  74.512 118.268  0.00  0.00     0.006 C 
ENDBRANCH   8  11
ENDBRANCH   7   8
ENDBRANCH   1   7
BRANCH   6  13
ATOM     13  N   LIG d   1      -0.102  78.061 117.385  0.00  0.00    -0.311 N 
ATOM     14  C   LIG d   1       1.085  77.987 117.984  0.00  0.00     0.210 C 
ATOM     15  C   LIG d   1       1.081  78.348 119.473  0.00  0.00     0.109 C 
ATOM     16  O   LIG d   1       2.146  77.687 117.417  0.00  0.00    -0.276 OA
ATOM     17  H   LIG d   1      -0.904  78.344 117.913  0.00  0.00     0.149 HD
ENDBRANCH   6  13
BRANCH   5  18
ATOM     18  N   LIG d   1       0.933  79.726 115.041  0.00  0.00     0.381 N 
ATOM     19  H   LIG d   1       1.120  80.101 115.950  0.00  0.00    -0.090 HD
ATOM     20  H   LIG d   1       0.863  80.491 114.393  0.00  0.00    -0.090 HD
ATOM     21  H   LIG d   1       1.670  79.115 114.767  0.00  0.00    -0.090 HD
ENDBRANCH   5  18
BRANCH   3  22
ATOM     22  C   LIG d   1      -2.542  77.825 112.348  0.00  0.00     0.382 C 
ATOM     23  O   LIG d   1      -3.406  78.723 112.206  0.00  0.00    -0.241 OA
ATOM     24  O   LIG d   1      -2.393  76.970 111.455  0.00  0.00    -0.241 OA
ENDBRANCH   3  22
TORSDOF 7
ENDMDL
MODEL 6
REMARK VINA RESULT:      -4.1      2.803      4.243
REMARK  7 active torsions:
REMARK  status: ('A' for Active; 'I' for Inactive)
REMARK    1  A    between atoms: C_2  and  C_3 
REMARK    2  A    between atoms: C_3  and  O_6 
REMARK    3  A    between atoms: C_3  and  C_4 
REMARK    4  A    between atoms: C_7  and  O_6 
REMARK    5  A    between atoms: C_9  and  C_10 
REMARK    6  A    between atoms: N_15  and  C_14 
REMARK    7  A    between atoms: N_20  and  C_19 
REMARK       I    between atoms: C_22  and  N_20 
ROOT
ATOM      1  C   LIG d   1      -2.465  77.842 115.061  0.00  0.00     0.161 C 
ATOM      2  C   LIG d   1      -2.712  77.322 113.779  0.00  0.00     0.016 C 
ATOM      3  C   LIG d   1      -1.902  77.605 112.655  0.00  0.00     0.038 C 
ATOM      4  C   LIG d   1      -0.695  78.310 112.770  0.00  0.00     0.028 C 
ATOM      5  C   LIG d   1      -0.669  79.279 113.948  0.00  0.00    -0.047 C 
ATOM      6  C   LIG d   1      -1.091  78.523 115.229  0.00  0.00     0.091 C 
ENDROOT
BRANCH   1   7
ATOM      7  O   LIG d   1      -2.635  76.806 116.049  0.00  0.00    -0.368 OA
BRANCH   7   8
ATOM      8  C   LIG d   1      -2.112  75.501 115.701  0.00  0.00     0.119 C 
BRANCH   8   9
ATOM      9  C   LIG d   1      -2.667  74.492 116.725  0.00  0.00     0.028 C 
ATOM     10  C   LIG d   1      -1.722  74.290 117.921  0.00  0.00     0.006 C 
ENDBRANCH   8   9
BRANCH   8  11
ATOM     11  C   LIG d   1      -0.590  75.448 115.863  0.00  0.00     0.028 C 
ATOM     12  C   LIG d   1       0.113  74.768 114.678  0.00  0.00     0.006 C 
ENDBRANCH   8  11
ENDBRANCH   7   8
ENDBRANCH   1   7
BRANCH   6  13
ATOM     13  N   LIG d   1      -1.173  79.417 116.413  0.00  0.00    -0.311 N 
ATOM     14  C   LIG d   1      -0.496  79.204 117.540  0.00  0.00     0.210 C 
ATOM     15  C   LIG d   1      -0.741  80.236 118.646  0.00  0.00     0.109 C 
ATOM     16  O   LIG d   1       0.309  78.278 117.718  0.00  0.00    -0.276 OA
ATOM     17  H   LIG d   1      -1.779  80.210 116.344  0.00  0.00     0.149 HD
ENDBRANCH   6  13
BRANCH   5  18
ATOM     18  N   LIG d   1       0.691  79.843 114.031  0.00  0.00     0.381 N 
ATOM     19  H   LIG d   1       1.340  79.127 114.291  0.00  0.00    -0.090 HD
ATOM     20  H   LIG d   1       0.705  80.554 114.741  0.00  0.00    -0.090 HD
ATOM     21  H   LIG d   1       0.952  80.235 113.153  0.00  0.00    -0.090 HD
ENDBRANCH   5  18
BRANCH   3  22
ATOM     22  C   LIG d   1      -2.318  77.214 111.392  0.00  0.00     0.382 C 
ATOM     23  O   LIG d   1      -3.440  77.575 110.962  0.00  0.00    -0.241 OA
ATOM     24  O   LIG d   1      -1.605  76.467 110.695  0.00  0.00    -0.241 OA
ENDBRANCH   3  22
TORSDOF 7
ENDMDL
MODEL 7
REMARK VINA RESULT:      -4.1      2.813      5.237
REMARK  7 active torsions:
REMARK  status: ('A' for Active; 'I' for Inactive)
REMARK    1  A    between atoms: C_2  and  C_3 
REMARK    2  A    between atoms: C_3  and  O_6 
REMARK    3  A    between atoms: C_3  and  C_4 
REMARK    4  A    between atoms: C_7  and  O_6 
REMARK    5  A    between atoms: C_9  and  C_10 
REMARK    6  A    between atoms: N_15  and  C_14 
REMARK    7  A    between atoms: N_20  and  C_19 
REMARK       I    between atoms: C_22  and  N_20 
ROOT
ATOM      1  C   LIG d   1      -0.245  78.370 114.832  0.00  0.00     0.161 C 
ATOM      2  C   LIG d   1      -1.047  77.217 114.794  0.00  0.00     0.016 C 
ATOM      3  C   LIG d   1      -1.256  76.376 115.911  0.00  0.00     0.038 C 
ATOM      4  C   LIG d   1      -0.795  76.717 117.191  0.00  0.00     0.028 C 
ATOM      5  C   LIG d   1       0.442  77.608 117.172  0.00  0.00    -0.047 C 
ATOM      6  C   LIG d   1       0.175  78.818 116.248  0.00  0.00     0.091 C 
ENDROOT
BRANCH   1   7
ATOM      7  O   LIG d   1      -0.906  79.448 114.141  0.00  0.00    -0.368 OA
BRANCH   7   8
ATOM      8  C   LIG d   1      -1.089  79.274 112.714  0.00  0.00     0.119 C 
BRANCH   8   9
ATOM      9  C   LIG d   1      -0.520  80.525 112.018  0.00  0.00     0.028 C 
ATOM     10  C   LIG d   1       0.736  80.215 111.187  0.00  0.00     0.006 C 
ENDBRANCH   8   9
BRANCH   8  11
ATOM     11  C   LIG d   1      -2.574  79.242 112.342  0.00  0.00     0.028 C 
ATOM     12  C   LIG d   1      -2.979  77.951 111.615  0.00  0.00     0.006 C 
ENDBRANCH   8  11
ENDBRANCH   7   8
ENDBRANCH   1   7
BRANCH   6  13
ATOM     13  N   LIG d   1       1.365  79.697 116.106  0.00  0.00    -0.311 N 
ATOM     14  C   LIG d   1       1.610  80.733 116.906  0.00  0.00     0.210 C 
ATOM     15  C   LIG d   1       2.882  81.520 116.573  0.00  0.00     0.109 C 
ATOM     16  O   LIG d   1       0.913  81.056 117.879  0.00  0.00    -0.276 OA
ATOM     17  H   LIG d   1       2.001  79.487 115.361  0.00  0.00     0.149 HD
ENDBRANCH   6  13
BRANCH   5  18
ATOM     18  N   LIG d   1       0.732  77.998 118.565  0.00  0.00     0.381 N 
ATOM     19  H   LIG d   1      -0.026  77.726 119.158  0.00  0.00    -0.090 HD
ATOM     20  H   LIG d   1       0.824  78.998 118.610  0.00  0.00    -0.090 HD
ATOM     21  H   LIG d   1       1.575  77.565 118.872  0.00  0.00    -0.090 HD
ENDBRANCH   5  18
BRANCH   3  22
ATOM     22  C   LIG d   1      -1.899  75.159 115.745  0.00  0.00     0.382 C 
ATOM     23  O   LIG d   1      -2.829  75.050 114.909  0.00  0.00    -0.241 OA
ATOM     24  O   LIG d   1      -1.592  74.180 116.451  0.00  0.00    -0.241 OA
ENDBRANCH   3  22
TORSDOF 7
ENDMDL
MODEL 8
REMARK VINA RESULT:      -4.0      3.629      4.871
REMARK  7 active torsions:
REMARK  status: ('A' for Active; 'I' for Inactive)
REMARK    1  A    between atoms: C_2  and  C_3 
REMARK    2  A    between atoms: C_3  and  O_6 
REMARK    3  A    between atoms: C_3  and  C_4 
REMARK    4  A    between atoms: C_7  and  O_6 
REMARK    5  A    between atoms: C_9  and  C_10 
REMARK    6  A    between atoms: N_15  and  C_14 
REMARK    7  A    between atoms: N_20  and  C_19 
REMARK       I    between atoms: C_22  and  N_20 
ROOT
ATOM      1  C   LIG d   1      -0.118  79.005 115.680  0.00  0.00     0.161 C 
ATOM      2  C   LIG d   1      -1.230  78.947 114.824  0.00  0.00     0.016 C 
ATOM      3  C   LIG d   1      -1.794  77.736 114.362  0.00  0.00     0.038 C 
ATOM      4  C   LIG d   1      -1.374  76.489 114.850  0.00  0.00     0.028 C 
ATOM      5  C   LIG d   1       0.074  76.482 115.327  0.00  0.00    -0.047 C 
ATOM      6  C   LIG d   1       0.284  77.655 116.311  0.00  0.00     0.091 C 
ENDROOT
BRANCH   1   7
ATOM      7  O   LIG d   1      -0.343  79.991 116.708  0.00  0.00    -0.368 OA
BRANCH   7   8
ATOM      8  C   LIG d   1      -0.868  79.493 117.964  0.00  0.00     0.119 C 
BRANCH   8   9
ATOM      9  C   LIG d   1      -2.321  79.990 118.087  0.00  0.00     0.028 C 
ATOM     10  C   LIG d   1      -3.346  78.863 117.874  0.00  0.00     0.006 C 
ENDBRANCH   8   9
BRANCH   8  11
ATOM     11  C   LIG d   1      -0.128  80.104 119.158  0.00  0.00     0.028 C 
ATOM     12  C   LIG d   1       1.195  80.776 118.758  0.00  0.00     0.006 C 
ENDBRANCH   8  11
ENDBRANCH   7   8
ENDBRANCH   1   7
BRANCH   6  13
ATOM     13  N   LIG d   1       1.696  77.772 116.761  0.00  0.00    -0.311 N 
ATOM     14  C   LIG d   1       2.155  77.225 117.885  0.00  0.00     0.210 C 
ATOM     15  C   LIG d   1       3.637  77.483 118.172  0.00  0.00     0.109 C 
ATOM     16  O   LIG d   1       1.482  76.524 118.656  0.00  0.00    -0.276 OA
ATOM     17  H   LIG d   1       2.318  78.298 116.179  0.00  0.00     0.149 HD
ENDBRANCH   6  13
BRANCH   5  18
ATOM     18  N   LIG d   1       0.337  75.164 115.934  0.00  0.00     0.381 N 
ATOM     19  H   LIG d   1      -0.029  74.441 115.347  0.00  0.00    -0.090 HD
ATOM     20  H   LIG d   1      -0.131  75.116 116.822  0.00  0.00    -0.090 HD
ATOM     21  H   LIG d   1       1.317  75.035 116.060  0.00  0.00    -0.090 HD
ENDBRANCH   5  18
BRANCH   3  22
ATOM     22  C   LIG d   1      -2.764  77.763 113.372  0.00  0.00     0.382 C 
ATOM     23  O   LIG d   1      -3.143  78.860 112.896  0.00  0.00    -0.241 OA
ATOM     24  O   LIG d   1      -3.296  76.707 112.980  0.00  0.00    -0.241 OA
ENDBRANCH   3  22
TORSDOF 7
ENDMDL
MODEL 9
REMARK VINA RESULT:      -4.0      2.006      2.622
REMARK  7 active torsions:
REMARK  status: ('A' for Active; 'I' for Inactive)
REMARK    1  A    between atoms: C_2  and  C_3 
REMARK    2  A    between atoms: C_3  and  O_6 
REMARK    3  A    between atoms: C_3  and  C_4 
REMARK    4  A    between atoms: C_7  and  O_6 
REMARK    5  A    between atoms: C_9  and  C_10 
REMARK    6  A    between atoms: N_15  and  C_14 
REMARK    7  A    between atoms: N_20  and  C_19 
REMARK       I    between atoms: C_22  and  N_20 
ROOT
ATOM      1  C   LIG d   1      -0.979  79.233 114.683  0.00  0.00     0.161 C 
ATOM      2  C   LIG d   1      -1.426  78.031 115.257  0.00  0.00     0.016 C 
ATOM      3  C   LIG d   1      -1.623  76.842 114.518  0.00  0.00     0.038 C 
ATOM      4  C   LIG d   1      -1.239  76.733 113.173  0.00  0.00     0.028 C 
ATOM      5  C   LIG d   1      -1.256  78.063 112.429  0.00  0.00    -0.047 C 
ATOM      6  C   LIG d   1      -0.449  79.103 113.240  0.00  0.00     0.091 C 
ENDROOT
BRANCH   1   7
ATOM      7  O   LIG d   1       0.018  79.838 115.530  0.00  0.00    -0.368 OA
BRANCH   7   8
ATOM      8  C   LIG d   1       0.052  79.377 116.903  0.00  0.00     0.119 C 
BRANCH   8   9
ATOM      9  C   LIG d   1      -0.192  80.600 117.809  0.00  0.00     0.028 C 
ATOM     10  C   LIG d   1      -1.467  80.457 118.657  0.00  0.00     0.006 C 
ENDBRANCH   8   9
BRANCH   8  11
ATOM     11  C   LIG d   1       1.444  78.862 117.284  0.00  0.00     0.028 C 
ATOM     12  C   LIG d   1       1.489  77.335 117.450  0.00  0.00     0.006 C 
ENDBRANCH   8  11
ENDBRANCH   7   8
ENDBRANCH   1   7
BRANCH   6  13
ATOM     13  N   LIG d   1      -0.486  80.455 112.624  0.00  0.00    -0.311 N 
ATOM     14  C   LIG d   1       0.410  80.880 111.735  0.00  0.00     0.210 C 
ATOM     15  C   LIG d   1       0.200  82.314 111.240  0.00  0.00     0.109 C 
ATOM     16  O   LIG d   1       1.340  80.194 111.285  0.00  0.00    -0.276 OA
ATOM     17  H   LIG d   1      -1.226  81.066 112.909  0.00  0.00     0.149 HD
ENDBRANCH   6  13
BRANCH   5  18
ATOM     18  N   LIG d   1      -0.704  77.827 111.081  0.00  0.00     0.381 N 
ATOM     19  H   LIG d   1      -1.450  77.690 110.429  0.00  0.00    -0.090 HD
ATOM     20  H   LIG d   1      -0.145  76.992 111.101  0.00  0.00    -0.090 HD
ATOM     21  H   LIG d   1      -0.145  78.603 110.801  0.00  0.00    -0.090 HD
ENDBRANCH   5  18
BRANCH   3  22
ATOM     22  C   LIG d   1      -2.247  75.757 115.115  0.00  0.00     0.382 C 
ATOM     23  O   LIG d   1      -3.381  75.392 114.723  0.00  0.00    -0.241 OA
ATOM     24  O   LIG d   1      -1.709  75.167 116.071  0.00  0.00    -0.241 OA
ENDBRANCH   3  22
TORSDOF 7
ENDMDL
