MODEL 1
REMARK VINA RESULT:      -5.3      0.000      0.000
REMARK  7 active torsions:
REMARK  status: ('A' for Active; 'I' for Inactive)
REMARK    1  A    between atoms: C_2  and  C_3 
REMARK    2  A    between atoms: C_3  and  O_6 
REMARK    3  A    between atoms: C_3  and  C_4 
REMARK    4  A    between atoms: C_7  and  O_6 
REMARK    5  A    between atoms: C_9  and  C_10 
REMARK    6  A    between atoms: N_15  and  C_14 
REMARK    7  A    between atoms: N_20  and  C_19 
REMARK       I    between atoms: C_22  and  N_20 
ROOT
ATOM      1  C   LIG d   1      -3.795  90.888 117.785  0.00  0.00     0.161 C 
ATOM      2  C   LIG d   1      -4.226  90.345 116.563  0.00  0.00     0.016 C 
ATOM      3  C   LIG d   1      -5.553  90.453 116.088  0.00  0.00     0.038 C 
ATOM      4  C   LIG d   1      -6.510  91.248 116.736  0.00  0.00     0.028 C 
ATOM      5  C   LIG d   1      -6.258  91.401 118.232  0.00  0.00    -0.047 C 
ATOM      6  C   LIG d   1      -4.797  91.854 118.452  0.00  0.00     0.091 C 
ENDROOT
BRANCH   1   7
ATOM      7  O   LIG d   1      -2.518  91.534 117.609  0.00  0.00    -0.368 OA
BRANCH   7   8
ATOM      8  C   LIG d   1      -1.408  90.959 118.341  0.00  0.00     0.119 C 
BRANCH   8   9
ATOM      9  C   LIG d   1      -0.809  92.071 119.223  0.00  0.00     0.028 C 
ATOM     10  C   LIG d   1      -1.160  93.479 118.712  0.00  0.00     0.006 C 
ENDBRANCH   8   9
BRANCH   8  11
ATOM     11  C   LIG d   1      -0.278  90.537 117.397  0.00  0.00     0.028 C 
ATOM     12  C   LIG d   1      -0.375  89.064 116.972  0.00  0.00     0.006 C 
ENDBRANCH   8  11
ENDBRANCH   7   8
ENDBRANCH   1   7
BRANCH   6  13
ATOM     13  N   LIG d   1      -4.442  91.946 119.892  0.00  0.00    -0.311 N 
ATOM     14  C   LIG d   1      -4.480  93.083 120.586  0.00  0.00     0.210 C 
ATOM     15  C   LIG d   1      -4.056  92.960 122.052  0.00  0.00     0.109 C 
ATOM     16  O   LIG d   1      -4.856  94.175 120.133  0.00  0.00    -0.276 OA
ATOM     17  H   LIG d   1      -4.156  91.101 120.346  0.00  0.00     0.149 HD
ENDBRANCH   6  13
BRANCH   5  18
ATOM     18  N   LIG d   1      -7.247  92.362 118.755  0.00  0.00     0.381 N 
ATOM     19  H   LIG d   1      -7.061  92.549 119.720  0.00  0.00    -0.090 HD
ATOM     20  H   LIG d   1      -8.164  91.957 118.684  0.00  0.00    -0.090 HD
ATOM     21  H   LIG d   1      -7.208  93.209 118.232  0.00  0.00    -0.090 HD
ENDBRANCH   5  18
BRANCH   3  22
ATOM     22  C   LIG d   1      -5.945  89.728 114.973  0.00  0.00     0.382 C 
ATOM     23  O   LIG d   1      -5.116  89.003 114.373  0.00  0.00    -0.241 OA
ATOM     24  O   LIG d   1      -7.107  89.824 114.533  0.00  0.00    -0.241 OA
ENDBRANCH   3  22
TORSDOF 7
ENDMDL
MODEL 2
REMARK VINA RESULT:      -5.1     15.007     17.282
REMARK  7 active torsions:
REMARK  status: ('A' for Active; 'I' for Inactive)
REMARK    1  A    between atoms: C_2  and  C_3 
REMARK    2  A    between atoms: C_3  and  O_6 
REMARK    3  A    between atoms: C_3  and  C_4 
REMARK    4  A    between atoms: C_7  and  O_6 
REMARK    5  A    between atoms: C_9  and  C_10 
REMARK    6  A    between atoms: N_15  and  C_14 
REMARK    7  A    between atoms: N_20  and  C_19 
REMARK       I    between atoms: C_22  and  N_20 
ROOT
ATOM      1  C   LIG d   1      -2.461  74.786 116.550  0.00  0.00     0.161 C 
ATOM      2  C   LIG d   1      -3.000  75.489 117.641  0.00  0.00     0.016 C 
ATOM      3  C   LIG d   1      -2.256  76.407 118.418  0.00  0.00     0.038 C 
ATOM      4  C   LIG d   1      -0.958  76.799 118.062  0.00  0.00     0.028 C 
ATOM      5  C   LIG d   1      -0.202  75.740 117.266  0.00  0.00    -0.047 C 
ATOM      6  C   LIG d   1      -1.079  75.283 116.078  0.00  0.00     0.091 C 
ENDROOT
BRANCH   1   7
ATOM      7  O   LIG d   1      -3.398  74.793 115.454  0.00  0.00    -0.368 OA
BRANCH   7   8
ATOM      8  C   LIG d   1      -4.798  74.892 115.813  0.00  0.00     0.119 C 
BRANCH   8   9
ATOM      9  C   LIG d   1      -5.430  73.502 115.601  0.00  0.00     0.028 C 
ATOM     10  C   LIG d   1      -5.678  72.762 116.926  0.00  0.00     0.006 C 
ENDBRANCH   8   9
BRANCH   8  11
ATOM     11  C   LIG d   1      -5.551  75.829 114.864  0.00  0.00     0.028 C 
ATOM     12  C   LIG d   1      -6.945  76.211 115.386  0.00  0.00     0.006 C 
ENDBRANCH   8  11
ENDBRANCH   7   8
ENDBRANCH   1   7
BRANCH   6  13
ATOM     13  N   LIG d   1      -0.449  74.188 115.297  0.00  0.00    -0.311 N 
ATOM     14  C   LIG d   1      -0.146  74.290 114.004  0.00  0.00     0.210 C 
ATOM     15  C   LIG d   1       0.479  73.036 113.385  0.00  0.00     0.109 C 
ATOM     16  O   LIG d   1      -0.305  75.311 113.319  0.00  0.00    -0.276 OA
ATOM     17  H   LIG d   1      -0.256  73.333 115.782  0.00  0.00     0.149 HD
ENDBRANCH   6  13
BRANCH   5  18
ATOM     18  N   LIG d   1       1.081  76.332 116.843  0.00  0.00     0.381 N 
ATOM     19  H   LIG d   1       1.839  75.759 117.158  0.00  0.00    -0.090 HD
ATOM     20  H   LIG d   1       1.176  77.239 117.265  0.00  0.00    -0.090 HD
ATOM     21  H   LIG d   1       1.108  76.415 115.851  0.00  0.00    -0.090 HD
ENDBRANCH   5  18
BRANCH   3  22
ATOM     22  C   LIG d   1      -2.799  76.912 119.590  0.00  0.00     0.382 C 
ATOM     23  O   LIG d   1      -3.978  77.340 119.601  0.00  0.00    -0.241 OA
ATOM     24  O   LIG d   1      -2.110  76.987 120.624  0.00  0.00    -0.241 OA
ENDBRANCH   3  22
TORSDOF 7
ENDMDL
MODEL 3
REMARK VINA RESULT:      -5.1      2.252      4.557
REMARK  7 active torsions:
REMARK  status: ('A' for Active; 'I' for Inactive)
REMARK    1  A    between atoms: C_2  and  C_3 
REMARK    2  A    between atoms: C_3  and  O_6 
REMARK    3  A    between atoms: C_3  and  C_4 
REMARK    4  A    between atoms: C_7  and  O_6 
REMARK    5  A    between atoms: C_9  and  C_10 
REMARK    6  A    between atoms: N_15  and  C_14 
REMARK    7  A    between atoms: N_20  and  C_19 
REMARK       I    between atoms: C_22  and  N_20 
ROOT
ATOM      1  C   LIG d   1      -5.990  92.036 118.388  0.00  0.00     0.161 C 
ATOM      2  C   LIG d   1      -6.719  91.453 117.339  0.00  0.00     0.016 C 
ATOM      3  C   LIG d   1      -6.138  90.620 116.356  0.00  0.00     0.038 C 
ATOM      4  C   LIG d   1      -4.806  90.188 116.444  0.00  0.00     0.028 C 
ATOM      5  C   LIG d   1      -3.904  91.155 117.203  0.00  0.00    -0.047 C 
ATOM      6  C   LIG d   1      -4.558  91.487 118.564  0.00  0.00     0.091 C 
ENDROOT
BRANCH   1   7
ATOM      7  O   LIG d   1      -6.727  91.917 119.621  0.00  0.00    -0.368 OA
BRANCH   7   8
ATOM      8  C   LIG d   1      -7.081  93.160 120.275  0.00  0.00     0.119 C 
BRANCH   8   9
ATOM      9  C   LIG d   1      -8.583  93.093 120.615  0.00  0.00     0.028 C 
ATOM     10  C   LIG d   1      -9.470  93.582 119.458  0.00  0.00     0.006 C 
ENDBRANCH   8   9
BRANCH   8  11
ATOM     11  C   LIG d   1      -6.935  94.352 119.323  0.00  0.00     0.028 C 
ATOM     12  C   LIG d   1      -5.993  95.437 119.868  0.00  0.00     0.006 C 
ENDBRANCH   8  11
ENDBRANCH   7   8
ENDBRANCH   1   7
BRANCH   6  13
ATOM     13  N   LIG d   1      -3.783  92.493 119.336  0.00  0.00    -0.311 N 
ATOM     14  C   LIG d   1      -3.306  92.270 120.559  0.00  0.00     0.210 C 
ATOM     15  C   LIG d   1      -2.552  93.448 121.184  0.00  0.00     0.109 C 
ATOM     16  O   LIG d   1      -3.409  91.198 121.174  0.00  0.00    -0.276 OA
ATOM     17  H   LIG d   1      -3.625  93.380 118.899  0.00  0.00     0.149 HD
ENDBRANCH   6  13
BRANCH   5  18
ATOM     18  N   LIG d   1      -2.581  90.518 117.338  0.00  0.00     0.381 N 
ATOM     19  H   LIG d   1      -1.978  91.102 117.883  0.00  0.00    -0.090 HD
ATOM     20  H   LIG d   1      -2.176  90.413 116.425  0.00  0.00    -0.090 HD
ATOM     21  H   LIG d   1      -2.674  89.627 117.773  0.00  0.00    -0.090 HD
ENDBRANCH   5  18
BRANCH   3  22
ATOM     22  C   LIG d   1      -6.881  90.242 115.248  0.00  0.00     0.382 C 
ATOM     23  O   LIG d   1      -6.351  89.553 114.343  0.00  0.00    -0.241 OA
ATOM     24  O   LIG d   1      -8.062  90.618 115.121  0.00  0.00    -0.241 OA
ENDBRANCH   3  22
TORSDOF 7
ENDMDL
MODEL 4
REMARK VINA RESULT:      -5.1     14.342     16.800
REMARK  7 active torsions:
REMARK  status: ('A' for Active; 'I' for Inactive)
REMARK    1  A    between atoms: C_2  and  C_3 
REMARK    2  A    between atoms: C_3  and  O_6 
REMARK    3  A    between atoms: C_3  and  C_4 
REMARK    4  A    between atoms: C_7  and  O_6 
REMARK    5  A    between atoms: C_9  and  C_10 
REMARK    6  A    between atoms: N_15  and  C_14 
REMARK    7  A    between atoms: N_20  and  C_19 
REMARK       I    between atoms: C_22  and  N_20 
ROOT
ATOM      1  C   LIG d   1      -2.562  75.320 116.124  0.00  0.00     0.161 C 
ATOM      2  C   LIG d   1      -1.924  74.715 117.219  0.00  0.00     0.016 C 
ATOM      3  C   LIG d   1      -0.699  75.174 117.756  0.00  0.00     0.038 C 
ATOM      4  C   LIG d   1      -0.102  76.369 117.327  0.00  0.00     0.028 C 
ATOM      5  C   LIG d   1      -0.448  76.735 115.888  0.00  0.00    -0.047 C 
ATOM      6  C   LIG d   1      -1.983  76.690 115.713  0.00  0.00     0.091 C 
ENDROOT
BRANCH   1   7
ATOM      7  O   LIG d   1      -3.976  75.430 116.382  0.00  0.00    -0.368 OA
BRANCH   7   8
ATOM      8  C   LIG d   1      -4.818  74.431 115.757  0.00  0.00     0.119 C 
BRANCH   8   9
ATOM      9  C   LIG d   1      -6.057  75.155 115.195  0.00  0.00     0.028 C 
ATOM     10  C   LIG d   1      -5.758  75.889 113.876  0.00  0.00     0.006 C 
ENDBRANCH   8   9
BRANCH   8  11
ATOM     11  C   LIG d   1      -5.363  73.438 116.788  0.00  0.00     0.028 C 
ATOM     12  C   LIG d   1      -6.304  72.392 116.168  0.00  0.00     0.006 C 
ENDBRANCH   8  11
ENDBRANCH   7   8
ENDBRANCH   1   7
BRANCH   6  13
ATOM     13  N   LIG d   1      -2.403  76.954 114.312  0.00  0.00    -0.311 N 
ATOM     14  C   LIG d   1      -2.761  78.157 113.868  0.00  0.00     0.210 C 
ATOM     15  C   LIG d   1      -3.177  78.206 112.395  0.00  0.00     0.109 C 
ATOM     16  O   LIG d   1      -2.742  79.195 114.547  0.00  0.00    -0.276 OA
ATOM     17  H   LIG d   1      -2.417  76.173 113.685  0.00  0.00     0.149 HD
ENDBRANCH   6  13
BRANCH   5  18
ATOM     18  N   LIG d   1       0.125  78.067 115.617  0.00  0.00     0.381 N 
ATOM     19  H   LIG d   1      -0.242  78.426 114.758  0.00  0.00    -0.090 HD
ATOM     20  H   LIG d   1       1.122  77.978 115.521  0.00  0.00    -0.090 HD
ATOM     21  H   LIG d   1      -0.090  78.689 116.364  0.00  0.00    -0.090 HD
ENDBRANCH   5  18
BRANCH   3  22
ATOM     22  C   LIG d   1      -0.038  74.412 118.708  0.00  0.00     0.382 C 
ATOM     23  O   LIG d   1      -0.004  73.163 118.598  0.00  0.00    -0.241 OA
ATOM     24  O   LIG d   1       0.487  74.955 119.698  0.00  0.00    -0.241 OA
ENDBRANCH   3  22
TORSDOF 7
ENDMDL
MODEL 5
REMARK VINA RESULT:      -5.0     11.373     13.171
REMARK  7 active torsions:
REMARK  status: ('A' for Active; 'I' for Inactive)
REMARK    1  A    between atoms: C_2  and  C_3 
REMARK    2  A    between atoms: C_3  and  O_6 
REMARK    3  A    between atoms: C_3  and  C_4 
REMARK    4  A    between atoms: C_7  and  O_6 
REMARK    5  A    between atoms: C_9  and  C_10 
REMARK    6  A    between atoms: N_15  and  C_14 
REMARK    7  A    between atoms: N_20  and  C_19 
REMARK       I    between atoms: C_22  and  N_20 
ROOT
ATOM      1  C   LIG d   1      -6.036  78.867 117.539  0.00  0.00     0.161 C 
ATOM      2  C   LIG d   1      -7.408  78.645 117.748  0.00  0.00     0.016 C 
ATOM      3  C   LIG d   1      -8.332  79.680 118.018  0.00  0.00     0.038 C 
ATOM      4  C   LIG d   1      -7.970  81.034 117.947  0.00  0.00     0.028 C 
ATOM      5  C   LIG d   1      -6.494  81.282 118.238  0.00  0.00    -0.047 C 
ATOM      6  C   LIG d   1      -5.643  80.347 117.348  0.00  0.00     0.091 C 
ENDROOT
BRANCH   1   7
ATOM      7  O   LIG d   1      -5.578  78.079 116.423  0.00  0.00    -0.368 OA
BRANCH   7   8
ATOM      8  C   LIG d   1      -5.820  76.653 116.507  0.00  0.00     0.119 C 
BRANCH   8   9
ATOM      9  C   LIG d   1      -4.482  75.978 116.868  0.00  0.00     0.028 C 
ATOM     10  C   LIG d   1      -4.368  75.666 118.369  0.00  0.00     0.006 C 
ENDBRANCH   8   9
BRANCH   8  11
ATOM     11  C   LIG d   1      -6.213  76.073 115.146  0.00  0.00     0.028 C 
ATOM     12  C   LIG d   1      -5.331  74.886 114.727  0.00  0.00     0.006 C 
ENDBRANCH   8  11
ENDBRANCH   7   8
ENDBRANCH   1   7
BRANCH   6  13
ATOM     13  N   LIG d   1      -4.189  80.466 117.629  0.00  0.00    -0.311 N 
ATOM     14  C   LIG d   1      -3.277  80.700 116.687  0.00  0.00     0.210 C 
ATOM     15  C   LIG d   1      -1.831  80.765 117.189  0.00  0.00     0.109 C 
ATOM     16  O   LIG d   1      -3.531  80.891 115.489  0.00  0.00    -0.276 OA
ATOM     17  H   LIG d   1      -3.897  80.355 118.581  0.00  0.00     0.149 HD
ENDBRANCH   6  13
BRANCH   5  18
ATOM     18  N   LIG d   1      -6.226  82.712 117.995  0.00  0.00     0.381 N 
ATOM     19  H   LIG d   1      -5.639  82.815 117.191  0.00  0.00    -0.090 HD
ATOM     20  H   LIG d   1      -5.743  83.092 118.790  0.00  0.00    -0.090 HD
ATOM     21  H   LIG d   1      -7.083  83.200 117.854  0.00  0.00    -0.090 HD
ENDBRANCH   5  18
BRANCH   3  22
ATOM     22  C   LIG d   1      -9.626  79.363 118.402  0.00  0.00     0.382 C 
ATOM     23  O   LIG d   1     -10.305  80.189 119.059  0.00  0.00    -0.241 OA
ATOM     24  O   LIG d   1     -10.107  78.245 118.139  0.00  0.00    -0.241 OA
ENDBRANCH   3  22
TORSDOF 7
ENDMDL
MODEL 6
REMARK VINA RESULT:      -4.9      2.335      4.584
REMARK  7 active torsions:
REMARK  status: ('A' for Active; 'I' for Inactive)
REMARK    1  A    between atoms: C_2  and  C_3 
REMARK    2  A    between atoms: C_3  and  O_6 
REMARK    3  A    between atoms: C_3  and  C_4 
REMARK    4  A    between atoms: C_7  and  O_6 
REMARK    5  A    between atoms: C_9  and  C_10 
REMARK    6  A    between atoms: N_15  and  C_14 
REMARK    7  A    between atoms: N_20  and  C_19 
REMARK       I    between atoms: C_22  and  N_20 
ROOT
ATOM      1  C   LIG d   1      -5.055  92.100 119.269  0.00  0.00     0.161 C 
ATOM      2  C   LIG d   1      -6.075  91.715 118.384  0.00  0.00     0.016 C 
ATOM      3  C   LIG d   1      -5.843  90.959 117.211  0.00  0.00     0.038 C 
ATOM      4  C   LIG d   1      -4.587  90.405 116.923  0.00  0.00     0.028 C 
ATOM      5  C   LIG d   1      -3.426  91.190 117.523  0.00  0.00    -0.047 C 
ATOM      6  C   LIG d   1      -3.695  91.411 119.029  0.00  0.00     0.091 C 
ENDROOT
BRANCH   1   7
ATOM      7  O   LIG d   1      -5.486  91.898 120.629  0.00  0.00    -0.368 OA
BRANCH   7   8
ATOM      8  C   LIG d   1      -6.368  92.910 121.176  0.00  0.00     0.119 C 
BRANCH   8   9
ATOM      9  C   LIG d   1      -5.651  93.546 122.383  0.00  0.00     0.028 C 
ATOM     10  C   LIG d   1      -4.563  94.547 121.958  0.00  0.00     0.006 C 
ENDBRANCH   8   9
BRANCH   8  11
ATOM     11  C   LIG d   1      -7.646  92.286 121.745  0.00  0.00     0.028 C 
ATOM     12  C   LIG d   1      -8.919  93.011 121.282  0.00  0.00     0.006 C 
ENDBRANCH   8  11
ENDBRANCH   7   8
ENDBRANCH   1   7
BRANCH   6  13
ATOM     13  N   LIG d   1      -2.648  92.244 119.676  0.00  0.00    -0.311 N 
ATOM     14  C   LIG d   1      -2.035  91.903 120.809  0.00  0.00     0.210 C 
ATOM     15  C   LIG d   1      -1.002  92.914 121.314  0.00  0.00     0.109 C 
ATOM     16  O   LIG d   1      -2.227  90.844 121.425  0.00  0.00    -0.276 OA
ATOM     17  H   LIG d   1      -2.408  93.106 119.226  0.00  0.00     0.149 HD
ENDBRANCH   6  13
BRANCH   5  18
ATOM     18  N   LIG d   1      -2.190  90.428 117.263  0.00  0.00     0.381 N 
ATOM     19  H   LIG d   1      -1.518  90.616 117.980  0.00  0.00    -0.090 HD
ATOM     20  H   LIG d   1      -1.805  90.725 116.383  0.00  0.00    -0.090 HD
ATOM     21  H   LIG d   1      -2.391  89.452 117.233  0.00  0.00    -0.090 HD
ENDBRANCH   5  18
BRANCH   3  22
ATOM     22  C   LIG d   1      -6.867  90.784 116.293  0.00  0.00     0.382 C 
ATOM     23  O   LIG d   1      -7.501  91.778 115.864  0.00  0.00    -0.241 OA
ATOM     24  O   LIG d   1      -7.194  89.641 115.921  0.00  0.00    -0.241 OA
ENDBRANCH   3  22
TORSDOF 7
ENDMDL
MODEL 7
REMARK VINA RESULT:      -4.9     12.050     14.585
REMARK  7 active torsions:
REMARK  status: ('A' for Active; 'I' for Inactive)
REMARK    1  A    between atoms: C_2  and  C_3 
REMARK    2  A    between atoms: C_3  and  O_6 
REMARK    3  A    between atoms: C_3  and  C_4 
REMARK    4  A    between atoms: C_7  and  O_6 
REMARK    5  A    between atoms: C_9  and  C_10 
REMARK    6  A    between atoms: N_15  and  C_14 
REMARK    7  A    between atoms: N_20  and  C_19 
REMARK       I    between atoms: C_22  and  N_20 
ROOT
ATOM      1  C   LIG d   1      -2.341  78.336 114.915  0.00  0.00     0.161 C 
ATOM      2  C   LIG d   1      -2.771  79.322 114.011  0.00  0.00     0.016 C 
ATOM      3  C   LIG d   1      -1.947  80.380 113.563  0.00  0.00     0.038 C 
ATOM      4  C   LIG d   1      -0.581  80.438 113.873  0.00  0.00     0.028 C 
ATOM      5  C   LIG d   1      -0.228  79.748 115.187  0.00  0.00    -0.047 C 
ATOM      6  C   LIG d   1      -0.820  78.320 115.178  0.00  0.00     0.091 C 
ENDROOT
BRANCH   1   7
ATOM      7  O   LIG d   1      -2.787  77.039 114.472  0.00  0.00    -0.368 OA
BRANCH   7   8
ATOM      8  C   LIG d   1      -3.929  76.485 115.170  0.00  0.00     0.119 C 
BRANCH   8   9
ATOM      9  C   LIG d   1      -3.475  75.168 115.828  0.00  0.00     0.028 C 
ATOM     10  C   LIG d   1      -3.681  75.171 117.352  0.00  0.00     0.006 C 
ENDBRANCH   8   9
BRANCH   8  11
ATOM     11  C   LIG d   1      -5.041  76.090 114.194  0.00  0.00     0.028 C 
ATOM     12  C   LIG d   1      -6.422  76.010 114.863  0.00  0.00     0.006 C 
ENDBRANCH   8  11
ENDBRANCH   7   8
ENDBRANCH   1   7
BRANCH   6  13
ATOM     13  N   LIG d   1      -0.593  77.604 116.460  0.00  0.00    -0.311 N 
ATOM     14  C   LIG d   1      -0.197  76.335 116.531  0.00  0.00     0.210 C 
ATOM     15  C   LIG d   1      -0.042  75.784 117.952  0.00  0.00     0.109 C 
ATOM     16  O   LIG d   1       0.073  75.622 115.552  0.00  0.00    -0.276 OA
ATOM     17  H   LIG d   1      -0.758  78.117 117.304  0.00  0.00     0.149 HD
ENDBRANCH   6  13
BRANCH   5  18
ATOM     18  N   LIG d   1       1.241  79.764 115.318  0.00  0.00     0.381 N 
ATOM     19  H   LIG d   1       1.497  80.131 116.212  0.00  0.00    -0.090 HD
ATOM     20  H   LIG d   1       1.624  80.364 114.609  0.00  0.00    -0.090 HD
ATOM     21  H   LIG d   1       1.603  78.841 115.213  0.00  0.00    -0.090 HD
ENDBRANCH   5  18
BRANCH   3  22
ATOM     22  C   LIG d   1      -2.500  81.417 112.827  0.00  0.00     0.382 C 
ATOM     23  O   LIG d   1      -1.793  82.400 112.500  0.00  0.00    -0.241 OA
ATOM     24  O   LIG d   1      -3.708  81.402 112.523  0.00  0.00    -0.241 OA
ENDBRANCH   3  22
TORSDOF 7
ENDMDL
MODEL 8
REMARK VINA RESULT:      -4.8     11.057     13.350
REMARK  7 active torsions:
REMARK  status: ('A' for Active; 'I' for Inactive)
REMARK    1  A    between atoms: C_2  and  C_3 
REMARK    2  A    between atoms: C_3  and  O_6 
REMARK    3  A    between atoms: C_3  and  C_4 
REMARK    4  A    between atoms: C_7  and  O_6 
REMARK    5  A    between atoms: C_9  and  C_10 
REMARK    6  A    between atoms: N_15  and  C_14 
REMARK    7  A    between atoms: N_20  and  C_19 
REMARK       I    between atoms: C_22  and  N_20 
ROOT
ATOM      1  C   LIG d   1      -2.927  79.420 115.934  0.00  0.00     0.161 C 
ATOM      2  C   LIG d   1      -2.850  80.628 115.222  0.00  0.00     0.016 C 
ATOM      3  C   LIG d   1      -2.365  80.721 113.897  0.00  0.00     0.038 C 
ATOM      4  C   LIG d   1      -2.062  79.582 113.137  0.00  0.00     0.028 C 
ATOM      5  C   LIG d   1      -1.646  78.383 113.982  0.00  0.00    -0.047 C 
ATOM      6  C   LIG d   1      -2.706  78.152 115.083  0.00  0.00     0.091 C 
ENDROOT
BRANCH   1   7
ATOM      7  O   LIG d   1      -4.186  79.343 116.631  0.00  0.00    -0.368 OA
BRANCH   7   8
ATOM      8  C   LIG d   1      -4.622  80.554 117.296  0.00  0.00     0.119 C 
BRANCH   8   9
ATOM      9  C   LIG d   1      -3.895  80.623 118.653  0.00  0.00     0.028 C 
ATOM     10  C   LIG d   1      -3.667  82.070 119.124  0.00  0.00     0.006 C 
ENDBRANCH   8   9
BRANCH   8  11
ATOM     11  C   LIG d   1      -6.114  80.496 117.638  0.00  0.00     0.028 C 
ATOM     12  C   LIG d   1      -6.683  79.069 117.581  0.00  0.00     0.006 C 
ENDBRANCH   8  11
ENDBRANCH   7   8
ENDBRANCH   1   7
BRANCH   6  13
ATOM     13  N   LIG d   1      -2.333  77.049 116.007  0.00  0.00    -0.311 N 
ATOM     14  C   LIG d   1      -2.731  75.789 115.842  0.00  0.00     0.210 C 
ATOM     15  C   LIG d   1      -2.250  74.813 116.921  0.00  0.00     0.109 C 
ATOM     16  O   LIG d   1      -3.410  75.380 114.888  0.00  0.00    -0.276 OA
ATOM     17  H   LIG d   1      -1.758  77.286 116.791  0.00  0.00     0.149 HD
ENDBRANCH   6  13
BRANCH   5  18
ATOM     18  N   LIG d   1      -1.494  77.229 113.075  0.00  0.00     0.381 N 
ATOM     19  H   LIG d   1      -2.326  76.674 113.091  0.00  0.00    -0.090 HD
ATOM     20  H   LIG d   1      -0.729  76.662 113.395  0.00  0.00    -0.090 HD
ATOM     21  H   LIG d   1      -1.316  77.546 112.147  0.00  0.00    -0.090 HD
ENDBRANCH   5  18
BRANCH   3  22
ATOM     22  C   LIG d   1      -2.139  81.968 113.334  0.00  0.00     0.382 C 
ATOM     23  O   LIG d   1      -2.031  82.083 112.089  0.00  0.00    -0.241 OA
ATOM     24  O   LIG d   1      -2.000  82.972 114.057  0.00  0.00    -0.241 OA
ENDBRANCH   3  22
TORSDOF 7
ENDMDL
MODEL 9
REMARK VINA RESULT:      -4.8     13.906     16.045
REMARK  7 active torsions:
REMARK  status: ('A' for Active; 'I' for Inactive)
REMARK    1  A    between atoms: C_2  and  C_3 
REMARK    2  A    between atoms: C_3  and  O_6 
REMARK    3  A    between atoms: C_3  and  C_4 
REMARK    4  A    between atoms: C_7  and  O_6 
REMARK    5  A    between atoms: C_9  and  C_10 
REMARK    6  A    between atoms: N_15  and  C_14 
REMARK    7  A    between atoms: N_20  and  C_19 
REMARK       I    between atoms: C_22  and  N_20 
ROOT
ATOM      1  C   LIG d   1      -4.160  75.803 117.766  0.00  0.00     0.161 C 
ATOM      2  C   LIG d   1      -5.233  76.687 117.563  0.00  0.00     0.016 C 
ATOM      3  C   LIG d   1      -5.066  78.063 117.285  0.00  0.00     0.038 C 
ATOM      4  C   LIG d   1      -3.802  78.622 117.041  0.00  0.00     0.028 C 
ATOM      5  C   LIG d   1      -2.666  77.876 117.732  0.00  0.00    -0.047 C 
ATOM      6  C   LIG d   1      -2.774  76.371 117.394  0.00  0.00     0.091 C 
ENDROOT
BRANCH   1   7
ATOM      7  O   LIG d   1      -4.402  74.570 117.060  0.00  0.00    -0.368 OA
BRANCH   7   8
ATOM      8  C   LIG d   1      -5.471  74.595 116.082  0.00  0.00     0.119 C 
BRANCH   8   9
ATOM      9  C   LIG d   1      -6.171  73.223 116.128  0.00  0.00     0.028 C 
ATOM     10  C   LIG d   1      -5.665  72.343 117.284  0.00  0.00     0.006 C 
ENDBRANCH   8   9
BRANCH   8  11
ATOM     11  C   LIG d   1      -4.922  74.723 114.659  0.00  0.00     0.028 C 
ATOM     12  C   LIG d   1      -5.556  75.884 113.878  0.00  0.00     0.006 C 
ENDBRANCH   8  11
ENDBRANCH   7   8
ENDBRANCH   1   7
BRANCH   6  13
ATOM     13  N   LIG d   1      -1.750  75.557 118.098  0.00  0.00    -0.311 N 
ATOM     14  C   LIG d   1      -1.046  74.593 117.506  0.00  0.00     0.210 C 
ATOM     15  C   LIG d   1      -0.056  73.862 118.419  0.00  0.00     0.109 C 
ATOM     16  O   LIG d   1      -1.125  74.296 116.305  0.00  0.00    -0.276 OA
ATOM     17  H   LIG d   1      -1.600  75.752 119.068  0.00  0.00     0.149 HD
ENDBRANCH   6  13
BRANCH   5  18
ATOM     18  N   LIG d   1      -1.398  78.480 117.283  0.00  0.00     0.381 N 
ATOM     19  H   LIG d   1      -0.948  77.874 116.626  0.00  0.00    -0.090 HD
ATOM     20  H   LIG d   1      -0.791  78.591 118.076  0.00  0.00    -0.090 HD
ATOM     21  H   LIG d   1      -1.572  79.366 116.862  0.00  0.00    -0.090 HD
ENDBRANCH   5  18
BRANCH   3  22
ATOM     22  C   LIG d   1      -6.168  78.904 117.289  0.00  0.00     0.382 C 
ATOM     23  O   LIG d   1      -6.031  80.119 117.010  0.00  0.00    -0.241 OA
ATOM     24  O   LIG d   1      -7.291  78.471 117.611  0.00  0.00    -0.241 OA
ENDBRANCH   3  22
TORSDOF 7
ENDMDL
