MODEL 1
REMARK VINA RESULT:      -5.5      0.000      0.000
REMARK  7 active torsions:
REMARK  status: ('A' for Active; 'I' for Inactive)
REMARK    1  A    between atoms: C_2  and  C_3 
REMARK    2  A    between atoms: C_3  and  O_6 
REMARK    3  A    between atoms: C_3  and  C_4 
REMARK    4  A    between atoms: C_7  and  O_6 
REMARK    5  A    between atoms: C_9  and  C_10 
REMARK    6  A    between atoms: N_15  and  C_14 
REMARK    7  A    between atoms: N_20  and  C_19 
REMARK       I    between atoms: C_22  and  N_20 
ROOT
ATOM      1  C   LIG d   1      -3.485  90.885 117.967  0.00  0.00     0.161 C 
ATOM      2  C   LIG d   1      -4.276  90.251 116.995  0.00  0.00     0.016 C 
ATOM      3  C   LIG d   1      -5.574  90.688 116.642  0.00  0.00     0.038 C 
ATOM      4  C   LIG d   1      -6.112  91.887 117.134  0.00  0.00     0.028 C 
ATOM      5  C   LIG d   1      -5.554  92.287 118.496  0.00  0.00    -0.047 C 
ATOM      6  C   LIG d   1      -4.010  92.259 118.434  0.00  0.00     0.091 C 
ENDROOT
BRANCH   1   7
ATOM      7  O   LIG d   1      -2.129  91.002 117.492  0.00  0.00    -0.368 OA
BRANCH   7   8
ATOM      8  C   LIG d   1      -1.154  90.141 118.131  0.00  0.00     0.119 C 
BRANCH   8   9
ATOM      9  C   LIG d   1      -1.882  89.360 119.241  0.00  0.00     0.028 C 
ATOM     10  C   LIG d   1      -1.255  89.587 120.627  0.00  0.00     0.006 C 
ENDBRANCH   8   9
BRANCH   8  11
ATOM     11  C   LIG d   1      -0.076  90.958 118.850  0.00  0.00     0.028 C 
ATOM     12  C   LIG d   1       0.362  92.198 118.055  0.00  0.00     0.006 C 
ENDBRANCH   8  11
ENDBRANCH   7   8
ENDBRANCH   1   7
BRANCH   6  13
ATOM     13  N   LIG d   1      -3.384  92.556 119.749  0.00  0.00    -0.311 N 
ATOM     14  C   LIG d   1      -2.534  93.563 119.945  0.00  0.00     0.210 C 
ATOM     15  C   LIG d   1      -1.990  93.680 121.372  0.00  0.00     0.109 C 
ATOM     16  O   LIG d   1      -2.205  94.389 119.081  0.00  0.00    -0.276 OA
ATOM     17  H   LIG d   1      -3.620  91.954 120.513  0.00  0.00     0.149 HD
ENDBRANCH   6  13
BRANCH   5  18
ATOM     18  N   LIG d   1      -6.095  93.620 118.825  0.00  0.00     0.381 N 
ATOM     19  H   LIG d   1      -5.379  94.311 118.720  0.00  0.00    -0.090 HD
ATOM     20  H   LIG d   1      -6.396  93.621 119.783  0.00  0.00    -0.090 HD
ATOM     21  H   LIG d   1      -6.863  93.833 118.227  0.00  0.00    -0.090 HD
ENDBRANCH   5  18
BRANCH   3  22
ATOM     22  C   LIG d   1      -6.364  89.901 115.819  0.00  0.00     0.382 C 
ATOM     23  O   LIG d   1      -7.538  89.619 116.159  0.00  0.00    -0.241 OA
ATOM     24  O   LIG d   1      -5.903  89.433 114.761  0.00  0.00    -0.241 OA
ENDBRANCH   3  22
TORSDOF 7
ENDMDL
MODEL 2
REMARK VINA RESULT:      -5.3     14.681     16.437
REMARK  7 active torsions:
REMARK  status: ('A' for Active; 'I' for Inactive)
REMARK    1  A    between atoms: C_2  and  C_3 
REMARK    2  A    between atoms: C_3  and  O_6 
REMARK    3  A    between atoms: C_3  and  C_4 
REMARK    4  A    between atoms: C_7  and  O_6 
REMARK    5  A    between atoms: C_9  and  C_10 
REMARK    6  A    between atoms: N_15  and  C_14 
REMARK    7  A    between atoms: N_20  and  C_19 
REMARK       I    between atoms: C_22  and  N_20 
ROOT
ATOM      1  C   LIG d   1      -3.167  76.683 116.889  0.00  0.00     0.161 C 
ATOM      2  C   LIG d   1      -3.339  77.325 115.652  0.00  0.00     0.016 C 
ATOM      3  C   LIG d   1      -2.507  77.093 114.532  0.00  0.00     0.038 C 
ATOM      4  C   LIG d   1      -1.532  76.085 114.530  0.00  0.00     0.028 C 
ATOM      5  C   LIG d   1      -0.991  75.762 115.919  0.00  0.00    -0.047 C 
ATOM      6  C   LIG d   1      -2.179  75.499 116.872  0.00  0.00     0.091 C 
ENDROOT
BRANCH   1   7
ATOM      7  O   LIG d   1      -4.446  76.261 117.403  0.00  0.00    -0.368 OA
BRANCH   7   8
ATOM      8  C   LIG d   1      -5.513  76.136 116.431  0.00  0.00     0.119 C 
BRANCH   8   9
ATOM      9  C   LIG d   1      -6.844  76.377 117.170  0.00  0.00     0.028 C 
ATOM     10  C   LIG d   1      -7.622  75.074 117.418  0.00  0.00     0.006 C 
ENDBRANCH   8   9
BRANCH   8  11
ATOM     11  C   LIG d   1      -5.606  74.707 115.886  0.00  0.00     0.028 C 
ATOM     12  C   LIG d   1      -5.332  74.627 114.375  0.00  0.00     0.006 C 
ENDBRANCH   8  11
ENDBRANCH   7   8
ENDBRANCH   1   7
BRANCH   6  13
ATOM     13  N   LIG d   1      -1.740  75.258 118.271  0.00  0.00    -0.311 N 
ATOM     14  C   LIG d   1      -1.432  74.052 118.746  0.00  0.00     0.210 C 
ATOM     15  C   LIG d   1      -1.023  74.023 120.222  0.00  0.00     0.109 C 
ATOM     16  O   LIG d   1      -1.428  73.008 118.076  0.00  0.00    -0.276 OA
ATOM     17  H   LIG d   1      -1.686  76.054 118.875  0.00  0.00     0.149 HD
ENDBRANCH   6  13
BRANCH   5  18
ATOM     18  N   LIG d   1      -0.087  74.603 115.787  0.00  0.00     0.381 N 
ATOM     19  H   LIG d   1       0.498  74.720 114.984  0.00  0.00    -0.090 HD
ATOM     20  H   LIG d   1      -0.640  73.774 115.657  0.00  0.00    -0.090 HD
ATOM     21  H   LIG d   1       0.473  74.513 116.605  0.00  0.00    -0.090 HD
ENDBRANCH   5  18
BRANCH   3  22
ATOM     22  C   LIG d   1      -2.620  77.903 113.413  0.00  0.00     0.382 C 
ATOM     23  O   LIG d   1      -3.387  77.574 112.476  0.00  0.00    -0.241 OA
ATOM     24  O   LIG d   1      -1.931  78.935 113.307  0.00  0.00    -0.241 OA
ENDBRANCH   3  22
TORSDOF 7
ENDMDL
MODEL 3
REMARK VINA RESULT:      -5.3     14.860     16.814
REMARK  7 active torsions:
REMARK  status: ('A' for Active; 'I' for Inactive)
REMARK    1  A    between atoms: C_2  and  C_3 
REMARK    2  A    between atoms: C_3  and  O_6 
REMARK    3  A    between atoms: C_3  and  C_4 
REMARK    4  A    between atoms: C_7  and  O_6 
REMARK    5  A    between atoms: C_9  and  C_10 
REMARK    6  A    between atoms: N_15  and  C_14 
REMARK    7  A    between atoms: N_20  and  C_19 
REMARK       I    between atoms: C_22  and  N_20 
ROOT
ATOM      1  C   LIG d   1      -6.120  75.927 116.211  0.00  0.00     0.161 C 
ATOM      2  C   LIG d   1      -4.970  75.335 115.662  0.00  0.00     0.016 C 
ATOM      3  C   LIG d   1      -3.698  75.388 116.277  0.00  0.00     0.038 C 
ATOM      4  C   LIG d   1      -3.520  75.910 117.567  0.00  0.00     0.028 C 
ATOM      5  C   LIG d   1      -4.553  76.967 117.941  0.00  0.00    -0.047 C 
ATOM      6  C   LIG d   1      -5.967  76.405 117.670  0.00  0.00     0.091 C 
ENDROOT
BRANCH   1   7
ATOM      7  O   LIG d   1      -7.238  75.024 116.093  0.00  0.00    -0.368 OA
BRANCH   7   8
ATOM      8  C   LIG d   1      -7.293  73.949 117.062  0.00  0.00     0.119 C 
BRANCH   8   9
ATOM      9  C   LIG d   1      -7.086  72.626 116.298  0.00  0.00     0.028 C 
ATOM     10  C   LIG d   1      -8.322  71.713 116.361  0.00  0.00     0.006 C 
ENDBRANCH   8   9
BRANCH   8  11
ATOM     11  C   LIG d   1      -8.683  73.839 117.694  0.00  0.00     0.028 C 
ATOM     12  C   LIG d   1      -9.636  74.954 117.235  0.00  0.00     0.006 C 
ENDBRANCH   8  11
ENDBRANCH   7   8
ENDBRANCH   1   7
BRANCH   6  13
ATOM     13  N   LIG d   1      -7.035  77.405 117.930  0.00  0.00    -0.311 N 
ATOM     14  C   LIG d   1      -7.741  77.448 119.058  0.00  0.00     0.210 C 
ATOM     15  C   LIG d   1      -8.807  78.547 119.112  0.00  0.00     0.109 C 
ATOM     16  O   LIG d   1      -7.565  76.700 120.032  0.00  0.00    -0.276 OA
ATOM     17  H   LIG d   1      -7.223  78.070 117.205  0.00  0.00     0.149 HD
ENDBRANCH   6  13
BRANCH   5  18
ATOM     18  N   LIG d   1      -4.334  77.324 119.355  0.00  0.00     0.381 N 
ATOM     19  H   LIG d   1      -4.217  78.314 119.440  0.00  0.00    -0.090 HD
ATOM     20  H   LIG d   1      -3.493  76.878 119.676  0.00  0.00    -0.090 HD
ATOM     21  H   LIG d   1      -5.108  77.026 119.906  0.00  0.00    -0.090 HD
ENDBRANCH   5  18
BRANCH   3  22
ATOM     22  C   LIG d   1      -2.581  74.950 115.583  0.00  0.00     0.382 C 
ATOM     23  O   LIG d   1      -2.290  75.462 114.475  0.00  0.00    -0.241 OA
ATOM     24  O   LIG d   1      -1.884  74.019 116.030  0.00  0.00    -0.241 OA
ENDBRANCH   3  22
TORSDOF 7
ENDMDL
MODEL 4
REMARK VINA RESULT:      -5.2      2.333      4.184
REMARK  7 active torsions:
REMARK  status: ('A' for Active; 'I' for Inactive)
REMARK    1  A    between atoms: C_2  and  C_3 
REMARK    2  A    between atoms: C_3  and  O_6 
REMARK    3  A    between atoms: C_3  and  C_4 
REMARK    4  A    between atoms: C_7  and  O_6 
REMARK    5  A    between atoms: C_9  and  C_10 
REMARK    6  A    between atoms: N_15  and  C_14 
REMARK    7  A    between atoms: N_20  and  C_19 
REMARK       I    between atoms: C_22  and  N_20 
ROOT
ATOM      1  C   LIG d   1      -4.803  92.072 118.438  0.00  0.00     0.161 C 
ATOM      2  C   LIG d   1      -5.614  91.809 117.321  0.00  0.00     0.016 C 
ATOM      3  C   LIG d   1      -5.298  90.839 116.341  0.00  0.00     0.038 C 
ATOM      4  C   LIG d   1      -4.218  89.956 116.494  0.00  0.00     0.028 C 
ATOM      5  C   LIG d   1      -3.089  90.521 117.349  0.00  0.00    -0.047 C 
ATOM      6  C   LIG d   1      -3.680  91.042 118.679  0.00  0.00     0.091 C 
ENDROOT
BRANCH   1   7
ATOM      7  O   LIG d   1      -5.623  92.204 119.616  0.00  0.00    -0.368 OA
BRANCH   7   8
ATOM      8  C   LIG d   1      -5.583  93.492 120.279  0.00  0.00     0.119 C 
BRANCH   8   9
ATOM      9  C   LIG d   1      -4.991  93.270 121.684  0.00  0.00     0.028 C 
ATOM     10  C   LIG d   1      -5.224  91.841 122.201  0.00  0.00     0.006 C 
ENDBRANCH   8   9
BRANCH   8  11
ATOM     11  C   LIG d   1      -6.993  94.041 120.515  0.00  0.00     0.028 C 
ATOM     12  C   LIG d   1      -7.885  93.950 119.267  0.00  0.00     0.006 C 
ENDBRANCH   8  11
ENDBRANCH   7   8
ENDBRANCH   1   7
BRANCH   6  13
ATOM     13  N   LIG d   1      -2.655  91.688 119.540  0.00  0.00    -0.311 N 
ATOM     14  C   LIG d   1      -1.954  91.032 120.463  0.00  0.00     0.210 C 
ATOM     15  C   LIG d   1      -0.963  91.892 121.254  0.00  0.00     0.109 C 
ATOM     16  O   LIG d   1      -2.036  89.814 120.680  0.00  0.00    -0.276 OA
ATOM     17  H   LIG d   1      -2.502  92.669 119.409  0.00  0.00     0.149 HD
ENDBRANCH   6  13
BRANCH   5  18
ATOM     18  N   LIG d   1      -2.094  89.449 117.539  0.00  0.00     0.381 N 
ATOM     19  H   LIG d   1      -2.531  88.557 117.420  0.00  0.00    -0.090 HD
ATOM     20  H   LIG d   1      -1.734  89.501 118.476  0.00  0.00    -0.090 HD
ATOM     21  H   LIG d   1      -1.351  89.553 116.883  0.00  0.00    -0.090 HD
ENDBRANCH   5  18
BRANCH   3  22
ATOM     22  C   LIG d   1      -6.043  90.773 115.174  0.00  0.00     0.382 C 
ATOM     23  O   LIG d   1      -6.309  91.822 114.540  0.00  0.00    -0.241 OA
ATOM     24  O   LIG d   1      -6.491  89.683 114.771  0.00  0.00    -0.241 OA
ENDBRANCH   3  22
TORSDOF 7
ENDMDL
MODEL 5
REMARK VINA RESULT:      -5.2     13.340     15.189
REMARK  7 active torsions:
REMARK  status: ('A' for Active; 'I' for Inactive)
REMARK    1  A    between atoms: C_2  and  C_3 
REMARK    2  A    between atoms: C_3  and  O_6 
REMARK    3  A    between atoms: C_3  and  C_4 
REMARK    4  A    between atoms: C_7  and  O_6 
REMARK    5  A    between atoms: C_9  and  C_10 
REMARK    6  A    between atoms: N_15  and  C_14 
REMARK    7  A    between atoms: N_20  and  C_19 
REMARK       I    between atoms: C_22  and  N_20 
ROOT
ATOM      1  C   LIG d   1      -6.630  76.811 117.675  0.00  0.00     0.161 C 
ATOM      2  C   LIG d   1      -7.868  77.195 118.215  0.00  0.00     0.016 C 
ATOM      3  C   LIG d   1      -8.185  78.529 118.563  0.00  0.00     0.038 C 
ATOM      4  C   LIG d   1      -7.333  79.599 118.252  0.00  0.00     0.028 C 
ATOM      5  C   LIG d   1      -5.864  79.198 118.168  0.00  0.00    -0.047 C 
ATOM      6  C   LIG d   1      -5.729  77.980 117.226  0.00  0.00     0.091 C 
ENDROOT
BRANCH   1   7
ATOM      7  O   LIG d   1      -6.836  75.890 116.586  0.00  0.00    -0.368 OA
BRANCH   7   8
ATOM      8  C   LIG d   1      -6.343  74.543 116.788  0.00  0.00     0.119 C 
BRANCH   8   9
ATOM      9  C   LIG d   1      -5.870  74.013 115.420  0.00  0.00     0.028 C 
ATOM     10  C   LIG d   1      -5.308  75.128 114.522  0.00  0.00     0.006 C 
ENDBRANCH   8   9
BRANCH   8  11
ATOM     11  C   LIG d   1      -7.467  73.597 117.221  0.00  0.00     0.028 C 
ATOM     12  C   LIG d   1      -7.509  72.302 116.395  0.00  0.00     0.006 C 
ENDBRANCH   8  11
ENDBRANCH   7   8
ENDBRANCH   1   7
BRANCH   6  13
ATOM     13  N   LIG d   1      -4.334  77.471 117.154  0.00  0.00    -0.311 N 
ATOM     14  C   LIG d   1      -3.451  77.879 116.244  0.00  0.00     0.210 C 
ATOM     15  C   LIG d   1      -2.075  77.212 116.334  0.00  0.00     0.109 C 
ATOM     16  O   LIG d   1      -3.667  78.753 115.391  0.00  0.00    -0.276 OA
ATOM     17  H   LIG d   1      -4.065  76.781 117.828  0.00  0.00     0.149 HD
ENDBRANCH   6  13
BRANCH   5  18
ATOM     18  N   LIG d   1      -5.106  80.375 117.703  0.00  0.00     0.381 N 
ATOM     19  H   LIG d   1      -4.200  80.092 117.388  0.00  0.00    -0.090 HD
ATOM     20  H   LIG d   1      -4.989  81.011 118.472  0.00  0.00    -0.090 HD
ATOM     21  H   LIG d   1      -5.597  80.826 116.962  0.00  0.00    -0.090 HD
ENDBRANCH   5  18
BRANCH   3  22
ATOM     22  C   LIG d   1      -9.350  78.797 119.266  0.00  0.00     0.382 C 
ATOM     23  O   LIG d   1     -10.459  78.756 118.681  0.00  0.00    -0.241 OA
ATOM     24  O   LIG d   1      -9.302  79.124 120.467  0.00  0.00    -0.241 OA
ENDBRANCH   3  22
TORSDOF 7
ENDMDL
MODEL 6
REMARK VINA RESULT:      -5.2      2.664      4.444
REMARK  7 active torsions:
REMARK  status: ('A' for Active; 'I' for Inactive)
REMARK    1  A    between atoms: C_2  and  C_3 
REMARK    2  A    between atoms: C_3  and  O_6 
REMARK    3  A    between atoms: C_3  and  C_4 
REMARK    4  A    between atoms: C_7  and  O_6 
REMARK    5  A    between atoms: C_9  and  C_10 
REMARK    6  A    between atoms: N_15  and  C_14 
REMARK    7  A    between atoms: N_20  and  C_19 
REMARK       I    between atoms: C_22  and  N_20 
ROOT
ATOM      1  C   LIG d   1      -5.203  92.522 118.802  0.00  0.00     0.161 C 
ATOM      2  C   LIG d   1      -6.517  93.003 118.685  0.00  0.00     0.016 C 
ATOM      3  C   LIG d   1      -6.989  94.150 119.363  0.00  0.00     0.038 C 
ATOM      4  C   LIG d   1      -6.131  94.987 120.091  0.00  0.00     0.028 C 
ATOM      5  C   LIG d   1      -4.909  94.264 120.648  0.00  0.00    -0.047 C 
ATOM      6  C   LIG d   1      -4.222  93.485 119.504  0.00  0.00     0.091 C 
ENDROOT
BRANCH   1   7
ATOM      7  O   LIG d   1      -4.700  92.153 117.503  0.00  0.00    -0.368 OA
BRANCH   7   8
ATOM      8  C   LIG d   1      -5.341  91.019 116.869  0.00  0.00     0.119 C 
BRANCH   8   9
ATOM      9  C   LIG d   1      -4.235  90.019 116.481  0.00  0.00     0.028 C 
ATOM     10  C   LIG d   1      -3.168  89.869 117.578  0.00  0.00     0.006 C 
ENDBRANCH   8   9
BRANCH   8  11
ATOM     11  C   LIG d   1      -6.007  91.421 115.550  0.00  0.00     0.028 C 
ATOM     12  C   LIG d   1      -6.693  90.240 114.845  0.00  0.00     0.006 C 
ENDBRANCH   8  11
ENDBRANCH   7   8
ENDBRANCH   1   7
BRANCH   6  13
ATOM     13  N   LIG d   1      -3.066  92.681 119.980  0.00  0.00    -0.311 N 
ATOM     14  C   LIG d   1      -1.828  92.828 119.510  0.00  0.00     0.210 C 
ATOM     15  C   LIG d   1      -0.788  91.885 120.123  0.00  0.00     0.109 C 
ATOM     16  O   LIG d   1      -1.487  93.671 118.667  0.00  0.00    -0.276 OA
ATOM     17  H   LIG d   1      -3.247  91.995 120.686  0.00  0.00     0.149 HD
ENDBRANCH   6  13
BRANCH   5  18
ATOM     18  N   LIG d   1      -4.033  95.279 121.264  0.00  0.00     0.381 N 
ATOM     19  H   LIG d   1      -4.257  95.376 122.234  0.00  0.00    -0.090 HD
ATOM     20  H   LIG d   1      -4.192  96.163 120.813  0.00  0.00    -0.090 HD
ATOM     21  H   LIG d   1      -3.078  95.013 121.161  0.00  0.00    -0.090 HD
ENDBRANCH   5  18
BRANCH   3  22
ATOM     22  C   LIG d   1      -8.344  94.448 119.349  0.00  0.00     0.382 C 
ATOM     23  O   LIG d   1      -9.072  94.010 118.426  0.00  0.00    -0.241 OA
ATOM     24  O   LIG d   1      -8.837  95.187 120.222  0.00  0.00    -0.241 OA
ENDBRANCH   3  22
TORSDOF 7
ENDMDL
MODEL 7
REMARK VINA RESULT:      -5.2     13.995     15.444
REMARK  7 active torsions:
REMARK  status: ('A' for Active; 'I' for Inactive)
REMARK    1  A    between atoms: C_2  and  C_3 
REMARK    2  A    between atoms: C_3  and  O_6 
REMARK    3  A    between atoms: C_3  and  C_4 
REMARK    4  A    between atoms: C_7  and  O_6 
REMARK    5  A    between atoms: C_9  and  C_10 
REMARK    6  A    between atoms: N_15  and  C_14 
REMARK    7  A    between atoms: N_20  and  C_19 
REMARK       I    between atoms: C_22  and  N_20 
ROOT
ATOM      1  C   LIG d   1      -5.940  76.427 117.640  0.00  0.00     0.161 C 
ATOM      2  C   LIG d   1      -6.531  75.179 117.384  0.00  0.00     0.016 C 
ATOM      3  C   LIG d   1      -7.917  74.933 117.514  0.00  0.00     0.038 C 
ATOM      4  C   LIG d   1      -8.833  75.965 117.765  0.00  0.00     0.028 C 
ATOM      5  C   LIG d   1      -8.228  77.140 118.527  0.00  0.00    -0.047 C 
ATOM      6  C   LIG d   1      -6.937  77.593 117.807  0.00  0.00     0.091 C 
ENDROOT
BRANCH   1   7
ATOM      7  O   LIG d   1      -4.979  76.734 116.610  0.00  0.00    -0.368 OA
BRANCH   7   8
ATOM      8  C   LIG d   1      -4.173  75.626 116.140  0.00  0.00     0.119 C 
BRANCH   8   9
ATOM      9  C   LIG d   1      -2.749  75.821 116.696  0.00  0.00     0.028 C 
ATOM     10  C   LIG d   1      -2.221  74.567 117.412  0.00  0.00     0.006 C 
ENDBRANCH   8   9
BRANCH   8  11
ATOM     11  C   LIG d   1      -4.021  75.653 114.617  0.00  0.00     0.028 C 
ATOM     12  C   LIG d   1      -5.369  75.568 113.882  0.00  0.00     0.006 C 
ENDBRANCH   8  11
ENDBRANCH   7   8
ENDBRANCH   1   7
BRANCH   6  13
ATOM     13  N   LIG d   1      -6.237  78.684 118.533  0.00  0.00    -0.311 N 
ATOM     14  C   LIG d   1      -6.444  79.977 118.291  0.00  0.00     0.210 C 
ATOM     15  C   LIG d   1      -5.603  80.937 119.138  0.00  0.00     0.109 C 
ATOM     16  O   LIG d   1      -7.267  80.421 117.477  0.00  0.00    -0.276 OA
ATOM     17  H   LIG d   1      -5.573  78.413 119.233  0.00  0.00     0.149 HD
ENDBRANCH   6  13
BRANCH   5  18
ATOM     18  N   LIG d   1      -9.252  78.199 118.599  0.00  0.00     0.381 N 
ATOM     19  H   LIG d   1      -8.820  79.073 118.824  0.00  0.00    -0.090 HD
ATOM     20  H   LIG d   1      -9.904  77.972 119.329  0.00  0.00    -0.090 HD
ATOM     21  H   LIG d   1      -9.730  78.271 117.728  0.00  0.00    -0.090 HD
ENDBRANCH   5  18
BRANCH   3  22
ATOM     22  C   LIG d   1      -8.395  73.634 117.432  0.00  0.00     0.382 C 
ATOM     23  O   LIG d   1      -9.578  73.422 117.072  0.00  0.00    -0.241 OA
ATOM     24  O   LIG d   1      -7.672  72.673 117.757  0.00  0.00    -0.241 OA
ENDBRANCH   3  22
TORSDOF 7
ENDMDL
MODEL 8
REMARK VINA RESULT:      -5.2     31.361     33.376
REMARK  7 active torsions:
REMARK  status: ('A' for Active; 'I' for Inactive)
REMARK    1  A    between atoms: C_2  and  C_3 
REMARK    2  A    between atoms: C_3  and  O_6 
REMARK    3  A    between atoms: C_3  and  C_4 
REMARK    4  A    between atoms: C_7  and  O_6 
REMARK    5  A    between atoms: C_9  and  C_10 
REMARK    6  A    between atoms: N_15  and  C_14 
REMARK    7  A    between atoms: N_20  and  C_19 
REMARK       I    between atoms: C_22  and  N_20 
ROOT
ATOM      1  C   LIG d   1       0.221  59.351 118.686  0.00  0.00     0.161 C 
ATOM      2  C   LIG d   1       1.333  60.185 118.892  0.00  0.00     0.016 C 
ATOM      3  C   LIG d   1       2.668  59.720 118.870  0.00  0.00     0.038 C 
ATOM      4  C   LIG d   1       2.991  58.409 118.489  0.00  0.00     0.028 C 
ATOM      5  C   LIG d   1       1.876  57.406 118.764  0.00  0.00    -0.047 C 
ATOM      6  C   LIG d   1       0.559  57.941 118.158  0.00  0.00     0.091 C 
ENDROOT
BRANCH   1   7
ATOM      7  O   LIG d   1      -0.721  60.002 117.810  0.00  0.00    -0.368 OA
BRANCH   7   8
ATOM      8  C   LIG d   1      -1.916  60.528 118.437  0.00  0.00     0.119 C 
BRANCH   8   9
ATOM      9  C   LIG d   1      -2.007  59.915 119.848  0.00  0.00     0.028 C 
ATOM     10  C   LIG d   1      -2.119  60.985 120.947  0.00  0.00     0.006 C 
ENDBRANCH   8   9
BRANCH   8  11
ATOM     11  C   LIG d   1      -3.180  60.061 117.710  0.00  0.00     0.028 C 
ATOM     12  C   LIG d   1      -3.783  58.787 118.322  0.00  0.00     0.006 C 
ENDBRANCH   8  11
ENDBRANCH   7   8
ENDBRANCH   1   7
BRANCH   6  13
ATOM     13  N   LIG d   1      -0.601  57.060 118.455  0.00  0.00    -0.311 N 
ATOM     14  C   LIG d   1      -1.072  56.155 117.599  0.00  0.00     0.210 C 
ATOM     15  C   LIG d   1      -2.287  55.366 118.097  0.00  0.00     0.109 C 
ATOM     16  O   LIG d   1      -0.579  55.908 116.489  0.00  0.00    -0.276 OA
ATOM     17  H   LIG d   1      -1.042  57.172 119.347  0.00  0.00     0.149 HD
ENDBRANCH   6  13
BRANCH   5  18
ATOM     18  N   LIG d   1       2.291  56.111 118.193  0.00  0.00     0.381 N 
ATOM     19  H   LIG d   1       1.546  55.728 117.646  0.00  0.00    -0.090 HD
ATOM     20  H   LIG d   1       2.490  55.473 118.944  0.00  0.00    -0.090 HD
ATOM     21  H   LIG d   1       3.102  56.232 117.627  0.00  0.00    -0.090 HD
ENDBRANCH   5  18
BRANCH   3  22
ATOM     22  C   LIG d   1       3.695  60.561 119.272  0.00  0.00     0.382 C 
ATOM     23  O   LIG d   1       3.609  61.179 120.360  0.00  0.00    -0.241 OA
ATOM     24  O   LIG d   1       4.686  60.742 118.540  0.00  0.00    -0.241 OA
ENDBRANCH   3  22
TORSDOF 7
ENDMDL
MODEL 9
REMARK VINA RESULT:      -4.9     14.410     16.346
REMARK  7 active torsions:
REMARK  status: ('A' for Active; 'I' for Inactive)
REMARK    1  A    between atoms: C_2  and  C_3 
REMARK    2  A    between atoms: C_3  and  O_6 
REMARK    3  A    between atoms: C_3  and  C_4 
REMARK    4  A    between atoms: C_7  and  O_6 
REMARK    5  A    between atoms: C_9  and  C_10 
REMARK    6  A    between atoms: N_15  and  C_14 
REMARK    7  A    between atoms: N_20  and  C_19 
REMARK       I    between atoms: C_22  and  N_20 
ROOT
ATOM      1  C   LIG d   1      -2.689  75.346 115.338  0.00  0.00     0.161 C 
ATOM      2  C   LIG d   1      -2.313  74.569 116.447  0.00  0.00     0.016 C 
ATOM      3  C   LIG d   1      -1.348  74.982 117.394  0.00  0.00     0.038 C 
ATOM      4  C   LIG d   1      -0.801  76.274 117.381  0.00  0.00     0.028 C 
ATOM      5  C   LIG d   1      -0.775  76.906 115.993  0.00  0.00    -0.047 C 
ATOM      6  C   LIG d   1      -2.185  76.804 115.369  0.00  0.00     0.091 C 
ENDROOT
BRANCH   1   7
ATOM      7  O   LIG d   1      -4.122  75.314 115.184  0.00  0.00    -0.368 OA
BRANCH   7   8
ATOM      8  C   LIG d   1      -4.889  75.098 116.394  0.00  0.00     0.119 C 
BRANCH   8   9
ATOM      9  C   LIG d   1      -6.080  74.189 116.031  0.00  0.00     0.028 C 
ATOM     10  C   LIG d   1      -7.131  74.125 117.152  0.00  0.00     0.006 C 
ENDBRANCH   8   9
BRANCH   8  11
ATOM     11  C   LIG d   1      -5.513  76.402 116.899  0.00  0.00     0.028 C 
ATOM     12  C   LIG d   1      -4.798  76.965 118.137  0.00  0.00     0.006 C 
ENDBRANCH   8  11
ENDBRANCH   7   8
ENDBRANCH   1   7
BRANCH   6  13
ATOM     13  N   LIG d   1      -2.228  77.323 113.977  0.00  0.00    -0.311 N 
ATOM     14  C   LIG d   1      -2.559  78.577 113.672  0.00  0.00     0.210 C 
ATOM     15  C   LIG d   1      -2.559  78.900 112.175  0.00  0.00     0.109 C 
ATOM     16  O   LIG d   1      -2.821  79.461 114.502  0.00  0.00    -0.276 OA
ATOM     17  H   LIG d   1      -1.999  76.681 113.243  0.00  0.00     0.149 HD
ENDBRANCH   6  13
BRANCH   5  18
ATOM     18  N   LIG d   1      -0.310  78.298 116.146  0.00  0.00     0.381 N 
ATOM     19  H   LIG d   1      -0.905  78.912 115.627  0.00  0.00    -0.090 HD
ATOM     20  H   LIG d   1       0.621  78.372 115.776  0.00  0.00    -0.090 HD
ATOM     21  H   LIG d   1      -0.314  78.555 117.109  0.00  0.00    -0.090 HD
ENDBRANCH   5  18
BRANCH   3  22
ATOM     22  C   LIG d   1      -0.892  74.084 118.347  0.00  0.00     0.382 C 
ATOM     23  O   LIG d   1       0.047  74.406 119.114  0.00  0.00    -0.241 OA
ATOM     24  O   LIG d   1      -1.377  72.939 118.419  0.00  0.00    -0.241 OA
ENDBRANCH   3  22
TORSDOF 7
ENDMDL
