MODEL 1
REMARK VINA RESULT:      -5.4      0.000      0.000
REMARK  7 active torsions:
REMARK  status: ('A' for Active; 'I' for Inactive)
REMARK    1  A    between atoms: C_2  and  C_3 
REMARK    2  A    between atoms: C_3  and  O_6 
REMARK    3  A    between atoms: C_3  and  C_4 
REMARK    4  A    between atoms: C_7  and  O_6 
REMARK    5  A    between atoms: C_9  and  C_10 
REMARK    6  A    between atoms: N_15  and  C_14 
REMARK    7  A    between atoms: N_20  and  C_19 
REMARK       I    between atoms: C_22  and  N_20 
ROOT
ATOM      1  C   LIG d   1      -4.796  92.074 117.848  0.00  0.00     0.161 C 
ATOM      2  C   LIG d   1      -5.252  91.454 116.672  0.00  0.00     0.016 C 
ATOM      3  C   LIG d   1      -6.508  91.728 116.085  0.00  0.00     0.038 C 
ATOM      4  C   LIG d   1      -7.337  92.758 116.553  0.00  0.00     0.028 C 
ATOM      5  C   LIG d   1      -7.144  93.065 118.034  0.00  0.00    -0.047 C 
ATOM      6  C   LIG d   1      -5.639  93.281 118.311  0.00  0.00     0.091 C 
ENDROOT
BRANCH   1   7
ATOM      7  O   LIG d   1      -3.415  92.456 117.695  0.00  0.00    -0.368 OA
BRANCH   7   8
ATOM      8  C   LIG d   1      -2.493  91.391 117.356  0.00  0.00     0.119 C 
BRANCH   8   9
ATOM      9  C   LIG d   1      -2.333  90.502 118.604  0.00  0.00     0.028 C 
ATOM     10  C   LIG d   1      -2.766  89.048 118.348  0.00  0.00     0.006 C 
ENDBRANCH   8   9
BRANCH   8  11
ATOM     11  C   LIG d   1      -1.092  91.939 117.065  0.00  0.00     0.028 C 
ATOM     12  C   LIG d   1      -1.012  93.468 117.191  0.00  0.00     0.006 C 
ENDBRANCH   8  11
ENDBRANCH   7   8
ENDBRANCH   1   7
BRANCH   6  13
ATOM     13  N   LIG d   1      -5.353  93.503 119.752  0.00  0.00    -0.311 N 
ATOM     14  C   LIG d   1      -5.270  94.711 120.306  0.00  0.00     0.210 C 
ATOM     15  C   LIG d   1      -4.947  94.716 121.803  0.00  0.00     0.109 C 
ATOM     16  O   LIG d   1      -5.466  95.779 119.706  0.00  0.00    -0.276 OA
ATOM     17  H   LIG d   1      -5.212  92.690 120.319  0.00  0.00     0.149 HD
ENDBRANCH   6  13
BRANCH   5  18
ATOM     18  N   LIG d   1      -7.966  94.246 118.356  0.00  0.00     0.381 N 
ATOM     19  H   LIG d   1      -8.399  94.594 117.524  0.00  0.00    -0.090 HD
ATOM     20  H   LIG d   1      -7.371  94.966 118.727  0.00  0.00    -0.090 HD
ATOM     21  H   LIG d   1      -8.664  94.004 119.025  0.00  0.00    -0.090 HD
ENDBRANCH   5  18
BRANCH   3  22
ATOM     22  C   LIG d   1      -6.965  90.939 115.040  0.00  0.00     0.382 C 
ATOM     23  O   LIG d   1      -8.105  91.139 114.555  0.00  0.00    -0.241 OA
ATOM     24  O   LIG d   1      -6.269  90.002 114.605  0.00  0.00    -0.241 OA
ENDBRANCH   3  22
TORSDOF 7
ENDMDL
MODEL 2
REMARK VINA RESULT:      -5.4      2.193      4.624
REMARK  7 active torsions:
REMARK  status: ('A' for Active; 'I' for Inactive)
REMARK    1  A    between atoms: C_2  and  C_3 
REMARK    2  A    between atoms: C_3  and  O_6 
REMARK    3  A    between atoms: C_3  and  C_4 
REMARK    4  A    between atoms: C_7  and  O_6 
REMARK    5  A    between atoms: C_9  and  C_10 
REMARK    6  A    between atoms: N_15  and  C_14 
REMARK    7  A    between atoms: N_20  and  C_19 
REMARK       I    between atoms: C_22  and  N_20 
ROOT
ATOM      1  C   LIG d   1      -5.673  93.084 118.381  0.00  0.00     0.161 C 
ATOM      2  C   LIG d   1      -6.591  92.563 117.453  0.00  0.00     0.016 C 
ATOM      3  C   LIG d   1      -6.226  91.689 116.404  0.00  0.00     0.038 C 
ATOM      4  C   LIG d   1      -4.934  91.152 116.302  0.00  0.00     0.028 C 
ATOM      5  C   LIG d   1      -3.858  92.042 116.915  0.00  0.00    -0.047 C 
ATOM      6  C   LIG d   1      -4.279  92.422 118.353  0.00  0.00     0.091 C 
ENDROOT
BRANCH   1   7
ATOM      7  O   LIG d   1      -6.231  93.020 119.708  0.00  0.00    -0.368 OA
BRANCH   7   8
ATOM      8  C   LIG d   1      -7.113  94.107 120.082  0.00  0.00     0.119 C 
BRANCH   8   9
ATOM      9  C   LIG d   1      -6.275  95.400 120.093  0.00  0.00     0.028 C 
ATOM     10  C   LIG d   1      -6.890  96.505 119.217  0.00  0.00     0.006 C 
ENDBRANCH   8   9
BRANCH   8  11
ATOM     11  C   LIG d   1      -7.623  93.943 121.517  0.00  0.00     0.028 C 
ATOM     12  C   LIG d   1      -6.726  93.030 122.367  0.00  0.00     0.006 C 
ENDBRANCH   8  11
ENDBRANCH   7   8
ENDBRANCH   1   7
BRANCH   6  13
ATOM     13  N   LIG d   1      -3.323  93.360 118.995  0.00  0.00    -0.311 N 
ATOM     14  C   LIG d   1      -2.312  92.963 119.766  0.00  0.00     0.210 C 
ATOM     15  C   LIG d   1      -1.457  94.094 120.346  0.00  0.00     0.109 C 
ATOM     16  O   LIG d   1      -2.022  91.780 119.998  0.00  0.00    -0.276 OA
ATOM     17  H   LIG d   1      -3.465  94.338 118.834  0.00  0.00     0.149 HD
ENDBRANCH   6  13
BRANCH   5  18
ATOM     18  N   LIG d   1      -2.583  91.302 116.862  0.00  0.00     0.381 N 
ATOM     19  H   LIG d   1      -2.566  90.714 116.053  0.00  0.00    -0.090 HD
ATOM     20  H   LIG d   1      -2.513  90.718 117.677  0.00  0.00    -0.090 HD
ATOM     21  H   LIG d   1      -1.819  91.940 116.835  0.00  0.00    -0.090 HD
ENDBRANCH   5  18
BRANCH   3  22
ATOM     22  C   LIG d   1      -7.149  91.375 115.419  0.00  0.00     0.382 C 
ATOM     23  O   LIG d   1      -7.592  90.205 115.325  0.00  0.00    -0.241 OA
ATOM     24  O   LIG d   1      -7.512  92.236 114.595  0.00  0.00    -0.241 OA
ENDBRANCH   3  22
TORSDOF 7
ENDMDL
MODEL 3
REMARK VINA RESULT:      -5.1      2.559      4.621
REMARK  7 active torsions:
REMARK  status: ('A' for Active; 'I' for Inactive)
REMARK    1  A    between atoms: C_2  and  C_3 
REMARK    2  A    between atoms: C_3  and  O_6 
REMARK    3  A    between atoms: C_3  and  C_4 
REMARK    4  A    between atoms: C_7  and  O_6 
REMARK    5  A    between atoms: C_9  and  C_10 
REMARK    6  A    between atoms: N_15  and  C_14 
REMARK    7  A    between atoms: N_20  and  C_19 
REMARK       I    between atoms: C_22  and  N_20 
ROOT
ATOM      1  C   LIG d   1      -4.595  92.714 118.951  0.00  0.00     0.161 C 
ATOM      2  C   LIG d   1      -5.806  93.425 118.929  0.00  0.00     0.016 C 
ATOM      3  C   LIG d   1      -6.781  93.270 117.916  0.00  0.00     0.038 C 
ATOM      4  C   LIG d   1      -6.676  92.276 116.932  0.00  0.00     0.028 C 
ATOM      5  C   LIG d   1      -5.236  91.879 116.623  0.00  0.00    -0.047 C 
ATOM      6  C   LIG d   1      -4.512  91.545 117.948  0.00  0.00     0.091 C 
ENDROOT
BRANCH   1   7
ATOM      7  O   LIG d   1      -4.328  92.246 120.288  0.00  0.00    -0.368 OA
BRANCH   7   8
ATOM      8  C   LIG d   1      -3.305  92.964 121.022  0.00  0.00     0.119 C 
BRANCH   8   9
ATOM      9  C   LIG d   1      -2.300  91.923 121.553  0.00  0.00     0.028 C 
ATOM     10  C   LIG d   1      -2.846  90.487 121.475  0.00  0.00     0.006 C 
ENDBRANCH   8   9
BRANCH   8  11
ATOM     11  C   LIG d   1      -3.884  93.640 122.268  0.00  0.00     0.028 C 
ATOM     12  C   LIG d   1      -5.260  93.082 122.664  0.00  0.00     0.006 C 
ENDBRANCH   8  11
ENDBRANCH   7   8
ENDBRANCH   1   7
BRANCH   6  13
ATOM     13  N   LIG d   1      -3.075  91.228 117.744  0.00  0.00    -0.311 N 
ATOM     14  C   LIG d   1      -2.567  90.004 117.881  0.00  0.00     0.210 C 
ATOM     15  C   LIG d   1      -1.057  89.900 117.645  0.00  0.00     0.109 C 
ATOM     16  O   LIG d   1      -3.230  88.989 118.145  0.00  0.00    -0.276 OA
ATOM     17  H   LIG d   1      -2.471  91.987 117.497  0.00  0.00     0.149 HD
ENDBRANCH   6  13
BRANCH   5  18
ATOM     18  N   LIG d   1      -5.279  90.741 115.685  0.00  0.00     0.381 N 
ATOM     19  H   LIG d   1      -4.982  91.039 114.778  0.00  0.00    -0.090 HD
ATOM     20  H   LIG d   1      -6.226  90.413 115.615  0.00  0.00    -0.090 HD
ATOM     21  H   LIG d   1      -4.689  90.008 116.011  0.00  0.00    -0.090 HD
ENDBRANCH   5  18
BRANCH   3  22
ATOM     22  C   LIG d   1      -7.856  94.143 117.859  0.00  0.00     0.382 C 
ATOM     23  O   LIG d   1      -7.741  95.310 118.304  0.00  0.00    -0.241 OA
ATOM     24  O   LIG d   1      -8.954  93.764 117.408  0.00  0.00    -0.241 OA
ENDBRANCH   3  22
TORSDOF 7
ENDMDL
MODEL 4
REMARK VINA RESULT:      -5.0      2.331      4.536
REMARK  7 active torsions:
REMARK  status: ('A' for Active; 'I' for Inactive)
REMARK    1  A    between atoms: C_2  and  C_3 
REMARK    2  A    between atoms: C_3  and  O_6 
REMARK    3  A    between atoms: C_3  and  C_4 
REMARK    4  A    between atoms: C_7  and  O_6 
REMARK    5  A    between atoms: C_9  and  C_10 
REMARK    6  A    between atoms: N_15  and  C_14 
REMARK    7  A    between atoms: N_20  and  C_19 
REMARK       I    between atoms: C_22  and  N_20 
ROOT
ATOM      1  C   LIG d   1      -4.634  93.189 119.003  0.00  0.00     0.161 C 
ATOM      2  C   LIG d   1      -5.777  92.814 118.278  0.00  0.00     0.016 C 
ATOM      3  C   LIG d   1      -5.734  91.991 117.129  0.00  0.00     0.038 C 
ATOM      4  C   LIG d   1      -4.553  91.360 116.713  0.00  0.00     0.028 C 
ATOM      5  C   LIG d   1      -3.289  92.112 117.117  0.00  0.00    -0.047 C 
ATOM      6  C   LIG d   1      -3.350  92.420 118.630  0.00  0.00     0.091 C 
ENDROOT
BRANCH   1   7
ATOM      7  O   LIG d   1      -4.894  93.076 120.417  0.00  0.00    -0.368 OA
BRANCH   7   8
ATOM      8  C   LIG d   1      -4.995  94.322 121.148  0.00  0.00     0.119 C 
BRANCH   8   9
ATOM      9  C   LIG d   1      -6.465  94.488 121.579  0.00  0.00     0.028 C 
ATOM     10  C   LIG d   1      -7.130  93.145 121.925  0.00  0.00     0.006 C 
ENDBRANCH   8   9
BRANCH   8  11
ATOM     11  C   LIG d   1      -4.699  95.524 120.246  0.00  0.00     0.028 C 
ATOM     12  C   LIG d   1      -5.870  96.516 120.172  0.00  0.00     0.006 C 
ENDBRANCH   8  11
ENDBRANCH   7   8
ENDBRANCH   1   7
BRANCH   6  13
ATOM     13  N   LIG d   1      -2.191  93.228 119.091  0.00  0.00    -0.311 N 
ATOM     14  C   LIG d   1      -1.086  92.696 119.610  0.00  0.00     0.210 C 
ATOM     15  C   LIG d   1      -0.021  93.709 120.040  0.00  0.00     0.109 C 
ATOM     16  O   LIG d   1      -0.874  91.479 119.725  0.00  0.00    -0.276 OA
ATOM     17  H   LIG d   1      -2.266  94.223 119.006  0.00  0.00     0.149 HD
ENDBRANCH   6  13
BRANCH   5  18
ATOM     18  N   LIG d   1      -2.133  91.276 116.742  0.00  0.00     0.381 N 
ATOM     19  H   LIG d   1      -1.867  90.700 117.516  0.00  0.00    -0.090 HD
ATOM     20  H   LIG d   1      -1.360  91.874 116.513  0.00  0.00    -0.090 HD
ATOM     21  H   LIG d   1      -2.365  90.705 115.959  0.00  0.00    -0.090 HD
ENDBRANCH   5  18
BRANCH   3  22
ATOM     22  C   LIG d   1      -6.876  91.825 116.359  0.00  0.00     0.382 C 
ATOM     23  O   LIG d   1      -7.311  90.673 116.124  0.00  0.00    -0.241 OA
ATOM     24  O   LIG d   1      -7.450  92.812 115.860  0.00  0.00    -0.241 OA
ENDBRANCH   3  22
TORSDOF 7
ENDMDL
MODEL 5
REMARK VINA RESULT:      -5.0      3.142      6.304
REMARK  7 active torsions:
REMARK  status: ('A' for Active; 'I' for Inactive)
REMARK    1  A    between atoms: C_2  and  C_3 
REMARK    2  A    between atoms: C_3  and  O_6 
REMARK    3  A    between atoms: C_3  and  C_4 
REMARK    4  A    between atoms: C_7  and  O_6 
REMARK    5  A    between atoms: C_9  and  C_10 
REMARK    6  A    between atoms: N_15  and  C_14 
REMARK    7  A    between atoms: N_20  and  C_19 
REMARK       I    between atoms: C_22  and  N_20 
ROOT
ATOM      1  C   LIG d   1      -0.743  90.856 116.962  0.00  0.00     0.161 C 
ATOM      2  C   LIG d   1       0.587  91.194 117.263  0.00  0.00     0.016 C 
ATOM      3  C   LIG d   1       0.989  92.490 117.662  0.00  0.00     0.038 C 
ATOM      4  C   LIG d   1       0.058  93.504 117.933  0.00  0.00     0.028 C 
ATOM      5  C   LIG d   1      -1.246  93.353 117.158  0.00  0.00    -0.047 C 
ATOM      6  C   LIG d   1      -1.787  91.920 117.360  0.00  0.00     0.091 C 
ENDROOT
BRANCH   1   7
ATOM      7  O   LIG d   1      -1.070  89.585 117.557  0.00  0.00    -0.368 OA
BRANCH   7   8
ATOM      8  C   LIG d   1      -1.714  89.635 118.854  0.00  0.00     0.119 C 
BRANCH   8   9
ATOM      9  C   LIG d   1      -0.743  89.016 119.878  0.00  0.00     0.028 C 
ATOM     10  C   LIG d   1      -0.087  90.074 120.781  0.00  0.00     0.006 C 
ENDBRANCH   8   9
BRANCH   8  11
ATOM     11  C   LIG d   1      -2.962  88.749 118.892  0.00  0.00     0.028 C 
ATOM     12  C   LIG d   1      -2.948  87.749 120.059  0.00  0.00     0.006 C 
ENDBRANCH   8  11
ENDBRANCH   7   8
ENDBRANCH   1   7
BRANCH   6  13
ATOM     13  N   LIG d   1      -3.017  91.661 116.567  0.00  0.00    -0.311 N 
ATOM     14  C   LIG d   1      -4.248  91.794 117.059  0.00  0.00     0.210 C 
ATOM     15  C   LIG d   1      -5.376  91.458 116.078  0.00  0.00     0.109 C 
ATOM     16  O   LIG d   1      -4.513  92.189 118.204  0.00  0.00    -0.276 OA
ATOM     17  H   LIG d   1      -2.895  91.366 115.618  0.00  0.00     0.149 HD
ENDBRANCH   6  13
BRANCH   5  18
ATOM     18  N   LIG d   1      -2.173  94.395 117.638  0.00  0.00     0.381 N 
ATOM     19  H   LIG d   1      -1.858  94.748 118.520  0.00  0.00    -0.090 HD
ATOM     20  H   LIG d   1      -3.082  93.986 117.769  0.00  0.00    -0.090 HD
ATOM     21  H   LIG d   1      -2.227  95.136 116.975  0.00  0.00    -0.090 HD
ENDBRANCH   5  18
BRANCH   3  22
ATOM     22  C   LIG d   1       2.339  92.793 117.753  0.00  0.00     0.382 C 
ATOM     23  O   LIG d   1       2.749  93.560 118.658  0.00  0.00    -0.241 OA
ATOM     24  O   LIG d   1       3.145  92.344 116.917  0.00  0.00    -0.241 OA
ENDBRANCH   3  22
TORSDOF 7
ENDMDL
MODEL 6
REMARK VINA RESULT:      -4.9     13.203     15.283
REMARK  7 active torsions:
REMARK  status: ('A' for Active; 'I' for Inactive)
REMARK    1  A    between atoms: C_2  and  C_3 
REMARK    2  A    between atoms: C_3  and  O_6 
REMARK    3  A    between atoms: C_3  and  C_4 
REMARK    4  A    between atoms: C_7  and  O_6 
REMARK    5  A    between atoms: C_9  and  C_10 
REMARK    6  A    between atoms: N_15  and  C_14 
REMARK    7  A    between atoms: N_20  and  C_19 
REMARK       I    between atoms: C_22  and  N_20 
ROOT
ATOM      1  C   LIG d   1      -7.557  77.220 117.850  0.00  0.00     0.161 C 
ATOM      2  C   LIG d   1      -8.760  76.520 117.661  0.00  0.00     0.016 C 
ATOM      3  C   LIG d   1      -9.995  76.934 118.212  0.00  0.00     0.038 C 
ATOM      4  C   LIG d   1     -10.139  78.166 118.867  0.00  0.00     0.028 C 
ATOM      5  C   LIG d   1      -8.851  78.661 119.516  0.00  0.00    -0.047 C 
ATOM      6  C   LIG d   1      -7.715  78.625 118.468  0.00  0.00     0.091 C 
ENDROOT
BRANCH   1   7
ATOM      7  O   LIG d   1      -6.837  77.300 116.603  0.00  0.00    -0.368 OA
BRANCH   7   8
ATOM      8  C   LIG d   1      -5.891  76.234 116.344  0.00  0.00     0.119 C 
BRANCH   8   9
ATOM      9  C   LIG d   1      -4.476  76.823 116.504  0.00  0.00     0.028 C 
ATOM     10  C   LIG d   1      -3.897  76.588 117.909  0.00  0.00     0.006 C 
ENDBRANCH   8   9
BRANCH   8  11
ATOM     11  C   LIG d   1      -5.971  75.759 114.891  0.00  0.00     0.028 C 
ATOM     12  C   LIG d   1      -4.972  74.634 114.576  0.00  0.00     0.006 C 
ENDBRANCH   8  11
ENDBRANCH   7   8
ENDBRANCH   1   7
BRANCH   6  13
ATOM     13  N   LIG d   1      -6.401  79.014 119.043  0.00  0.00    -0.311 N 
ATOM     14  C   LIG d   1      -5.901  80.246 118.961  0.00  0.00     0.210 C 
ATOM     15  C   LIG d   1      -4.522  80.428 119.604  0.00  0.00     0.109 C 
ATOM     16  O   LIG d   1      -6.482  81.212 118.446  0.00  0.00    -0.276 OA
ATOM     17  H   LIG d   1      -5.876  78.298 119.507  0.00  0.00     0.149 HD
ENDBRANCH   6  13
BRANCH   5  18
ATOM     18  N   LIG d   1      -9.109  80.015 120.042  0.00  0.00     0.381 N 
ATOM     19  H   LIG d   1      -9.390  80.620 119.297  0.00  0.00    -0.090 HD
ATOM     20  H   LIG d   1      -8.260  80.376 120.440  0.00  0.00    -0.090 HD
ATOM     21  H   LIG d   1      -9.822  79.980 120.738  0.00  0.00    -0.090 HD
ENDBRANCH   5  18
BRANCH   3  22
ATOM     22  C   LIG d   1     -11.094  76.092 118.143  0.00  0.00     0.382 C 
ATOM     23  O   LIG d   1     -12.150  76.388 118.753  0.00  0.00    -0.241 OA
ATOM     24  O   LIG d   1     -11.029  75.017 117.516  0.00  0.00    -0.241 OA
ENDBRANCH   3  22
TORSDOF 7
ENDMDL
MODEL 7
REMARK VINA RESULT:      -4.8     32.327     34.253
REMARK  7 active torsions:
REMARK  status: ('A' for Active; 'I' for Inactive)
REMARK    1  A    between atoms: C_2  and  C_3 
REMARK    2  A    between atoms: C_3  and  O_6 
REMARK    3  A    between atoms: C_3  and  C_4 
REMARK    4  A    between atoms: C_7  and  O_6 
REMARK    5  A    between atoms: C_9  and  C_10 
REMARK    6  A    between atoms: N_15  and  C_14 
REMARK    7  A    between atoms: N_20  and  C_19 
REMARK       I    between atoms: C_22  and  N_20 
ROOT
ATOM      1  C   LIG d   1      -0.248  59.163 120.265  0.00  0.00     0.161 C 
ATOM      2  C   LIG d   1       0.727  59.046 121.269  0.00  0.00     0.016 C 
ATOM      3  C   LIG d   1       0.566  59.568 122.574  0.00  0.00     0.038 C 
ATOM      4  C   LIG d   1      -0.650  60.114 123.009  0.00  0.00     0.028 C 
ATOM      5  C   LIG d   1      -1.487  60.707 121.880  0.00  0.00    -0.047 C 
ATOM      6  C   LIG d   1      -1.625  59.657 120.754  0.00  0.00     0.091 C 
ENDROOT
BRANCH   1   7
ATOM      7  O   LIG d   1      -0.384  57.908 119.568  0.00  0.00    -0.368 OA
BRANCH   7   8
ATOM      8  C   LIG d   1       0.818  57.108 119.455  0.00  0.00     0.119 C 
BRANCH   8   9
ATOM      9  C   LIG d   1       1.237  57.109 117.972  0.00  0.00     0.028 C 
ATOM     10  C   LIG d   1       2.143  58.300 117.618  0.00  0.00     0.006 C 
ENDBRANCH   8   9
BRANCH   8  11
ATOM     11  C   LIG d   1       0.546  55.641 119.798  0.00  0.00     0.028 C 
ATOM     12  C   LIG d   1       0.462  55.389 121.312  0.00  0.00     0.006 C 
ENDBRANCH   8  11
ENDBRANCH   7   8
ENDBRANCH   1   7
BRANCH   6  13
ATOM     13  N   LIG d   1      -2.359  60.185 119.574  0.00  0.00    -0.311 N 
ATOM     14  C   LIG d   1      -3.571  59.765 119.216  0.00  0.00     0.210 C 
ATOM     15  C   LIG d   1      -4.139  60.427 117.957  0.00  0.00     0.109 C 
ATOM     16  O   LIG d   1      -4.244  58.931 119.841  0.00  0.00    -0.276 OA
ATOM     17  H   LIG d   1      -1.899  60.888 119.028  0.00  0.00     0.149 HD
ENDBRANCH   6  13
BRANCH   5  18
ATOM     18  N   LIG d   1      -2.784  61.114 122.453  0.00  0.00     0.381 N 
ATOM     19  H   LIG d   1      -2.874  62.110 122.413  0.00  0.00    -0.090 HD
ATOM     20  H   LIG d   1      -2.816  60.833 123.418  0.00  0.00    -0.090 HD
ATOM     21  H   LIG d   1      -3.529  60.685 121.950  0.00  0.00    -0.090 HD
ENDBRANCH   5  18
BRANCH   3  22
ATOM     22  C   LIG d   1       1.645  59.583 123.445  0.00  0.00     0.382 C 
ATOM     23  O   LIG d   1       2.218  60.665 123.716  0.00  0.00    -0.241 OA
ATOM     24  O   LIG d   1       2.079  58.521 123.931  0.00  0.00    -0.241 OA
ENDBRANCH   3  22
TORSDOF 7
ENDMDL
MODEL 8
REMARK VINA RESULT:      -4.7      2.173      3.400
REMARK  7 active torsions:
REMARK  status: ('A' for Active; 'I' for Inactive)
REMARK    1  A    between atoms: C_2  and  C_3 
REMARK    2  A    between atoms: C_3  and  O_6 
REMARK    3  A    between atoms: C_3  and  C_4 
REMARK    4  A    between atoms: C_7  and  O_6 
REMARK    5  A    between atoms: C_9  and  C_10 
REMARK    6  A    between atoms: N_15  and  C_14 
REMARK    7  A    between atoms: N_20  and  C_19 
REMARK       I    between atoms: C_22  and  N_20 
ROOT
ATOM      1  C   LIG d   1      -4.928  93.771 119.391  0.00  0.00     0.161 C 
ATOM      2  C   LIG d   1      -4.509  92.855 118.412  0.00  0.00     0.016 C 
ATOM      3  C   LIG d   1      -5.385  92.261 117.475  0.00  0.00     0.038 C 
ATOM      4  C   LIG d   1      -6.725  92.661 117.356  0.00  0.00     0.028 C 
ATOM      5  C   LIG d   1      -7.310  93.213 118.651  0.00  0.00    -0.047 C 
ATOM      6  C   LIG d   1      -6.364  94.304 119.204  0.00  0.00     0.091 C 
ENDROOT
BRANCH   1   7
ATOM      7  O   LIG d   1      -3.994  94.866 119.468  0.00  0.00    -0.368 OA
BRANCH   7   8
ATOM      8  C   LIG d   1      -2.879  94.690 120.376  0.00  0.00     0.119 C 
BRANCH   8   9
ATOM      9  C   LIG d   1      -2.830  95.927 121.294  0.00  0.00     0.028 C 
ATOM     10  C   LIG d   1      -3.889  96.978 120.919  0.00  0.00     0.006 C 
ENDBRANCH   8   9
BRANCH   8  11
ATOM     11  C   LIG d   1      -1.544  94.688 119.626  0.00  0.00     0.028 C 
ATOM     12  C   LIG d   1      -1.642  95.327 118.232  0.00  0.00     0.006 C 
ENDBRANCH   8  11
ENDBRANCH   7   8
ENDBRANCH   1   7
BRANCH   6  13
ATOM     13  N   LIG d   1      -6.820  94.838 120.514  0.00  0.00    -0.311 N 
ATOM     14  C   LIG d   1      -7.531  95.956 120.643  0.00  0.00     0.210 C 
ATOM     15  C   LIG d   1      -7.880  96.339 122.085  0.00  0.00     0.109 C 
ATOM     16  O   LIG d   1      -7.934  96.651 119.698  0.00  0.00    -0.276 OA
ATOM     17  H   LIG d   1      -6.564  94.320 121.332  0.00  0.00     0.149 HD
ENDBRANCH   6  13
BRANCH   5  18
ATOM     18  N   LIG d   1      -8.662  93.719 118.350  0.00  0.00     0.381 N 
ATOM     19  H   LIG d   1      -9.347  93.054 118.651  0.00  0.00    -0.090 HD
ATOM     20  H   LIG d   1      -8.752  93.835 117.356  0.00  0.00    -0.090 HD
ATOM     21  H   LIG d   1      -8.811  94.591 118.808  0.00  0.00    -0.090 HD
ENDBRANCH   5  18
BRANCH   3  22
ATOM     22  C   LIG d   1      -4.933  91.225 116.672  0.00  0.00     0.382 C 
ATOM     23  O   LIG d   1      -5.233  91.201 115.454  0.00  0.00    -0.241 OA
ATOM     24  O   LIG d   1      -4.267  90.292 117.158  0.00  0.00    -0.241 OA
ENDBRANCH   3  22
TORSDOF 7
ENDMDL
MODEL 9
REMARK VINA RESULT:      -4.7     13.114     15.357
REMARK  7 active torsions:
REMARK  status: ('A' for Active; 'I' for Inactive)
REMARK    1  A    between atoms: C_2  and  C_3 
REMARK    2  A    between atoms: C_3  and  O_6 
REMARK    3  A    between atoms: C_3  and  C_4 
REMARK    4  A    between atoms: C_7  and  O_6 
REMARK    5  A    between atoms: C_9  and  C_10 
REMARK    6  A    between atoms: N_15  and  C_14 
REMARK    7  A    between atoms: N_20  and  C_19 
REMARK       I    between atoms: C_22  and  N_20 
ROOT
ATOM      1  C   LIG d   1      -8.557  77.751 117.903  0.00  0.00     0.161 C 
ATOM      2  C   LIG d   1      -7.738  76.943 117.097  0.00  0.00     0.016 C 
ATOM      3  C   LIG d   1      -6.413  77.286 116.744  0.00  0.00     0.038 C 
ATOM      4  C   LIG d   1      -5.761  78.396 117.302  0.00  0.00     0.028 C 
ATOM      5  C   LIG d   1      -6.713  79.511 117.721  0.00  0.00    -0.047 C 
ATOM      6  C   LIG d   1      -7.826  78.911 118.611  0.00  0.00     0.091 C 
ENDROOT
BRANCH   1   7
ATOM      7  O   LIG d   1      -9.252  76.935 118.866  0.00  0.00    -0.368 OA
BRANCH   7   8
ATOM      8  C   LIG d   1     -10.656  77.235 119.061  0.00  0.00     0.119 C 
BRANCH   8   9
ATOM      9  C   LIG d   1     -10.898  77.354 120.579  0.00  0.00     0.028 C 
ATOM     10  C   LIG d   1      -9.611  77.153 121.395  0.00  0.00     0.006 C 
ENDBRANCH   8   9
BRANCH   8  11
ATOM     11  C   LIG d   1     -11.544  76.076 118.599  0.00  0.00     0.028 C 
ATOM     12  C   LIG d   1     -10.876  75.208 117.519  0.00  0.00     0.006 C 
ENDBRANCH   8  11
ENDBRANCH   7   8
ENDBRANCH   1   7
BRANCH   6  13
ATOM     13  N   LIG d   1      -8.848  79.919 118.996  0.00  0.00    -0.311 N 
ATOM     14  C   LIG d   1      -8.827  80.579 120.153  0.00  0.00     0.210 C 
ATOM     15  C   LIG d   1      -9.987  81.559 120.359  0.00  0.00     0.109 C 
ATOM     16  O   LIG d   1      -7.941  80.470 121.013  0.00  0.00    -0.276 OA
ATOM     17  H   LIG d   1      -9.587  80.092 118.343  0.00  0.00     0.149 HD
ENDBRANCH   6  13
BRANCH   5  18
ATOM     18  N   LIG d   1      -5.916  80.543 118.410  0.00  0.00     0.381 N 
ATOM     19  H   LIG d   1      -6.316  80.738 119.306  0.00  0.00    -0.090 HD
ATOM     20  H   LIG d   1      -5.936  81.387 117.865  0.00  0.00    -0.090 HD
ATOM     21  H   LIG d   1      -4.976  80.232 118.518  0.00  0.00    -0.090 HD
ENDBRANCH   5  18
BRANCH   3  22
ATOM     22  C   LIG d   1      -5.739  76.536 115.793  0.00  0.00     0.382 C 
ATOM     23  O   LIG d   1      -4.814  77.056 115.123  0.00  0.00    -0.241 OA
ATOM     24  O   LIG d   1      -6.073  75.358 115.564  0.00  0.00    -0.241 OA
ENDBRANCH   3  22
TORSDOF 7
ENDMDL
