MODEL 1
REMARK VINA RESULT:      -6.1      0.000      0.000
REMARK  7 active torsions:
REMARK  status: ('A' for Active; 'I' for Inactive)
REMARK    1  A    between atoms: C_2  and  C_3 
REMARK    2  A    between atoms: C_3  and  O_6 
REMARK    3  A    between atoms: C_3  and  C_4 
REMARK    4  A    between atoms: C_7  and  O_6 
REMARK    5  A    between atoms: C_9  and  C_10 
REMARK    6  A    between atoms: N_15  and  C_14 
REMARK    7  A    between atoms: N_20  and  C_19 
REMARK       I    between atoms: C_22  and  N_20 
ROOT
ATOM      1  C   LIG d   1      -6.018  93.005 117.553  0.00  0.00     0.161 C 
ATOM      2  C   LIG d   1      -7.351  92.884 117.127  0.00  0.00     0.016 C 
ATOM      3  C   LIG d   1      -7.826  91.799 116.355  0.00  0.00     0.038 C 
ATOM      4  C   LIG d   1      -7.028  90.678 116.082  0.00  0.00     0.028 C 
ATOM      5  C   LIG d   1      -5.535  90.988 116.060  0.00  0.00    -0.047 C 
ATOM      6  C   LIG d   1      -5.159  91.737 117.358  0.00  0.00     0.091 C 
ENDROOT
BRANCH   1   7
ATOM      7  O   LIG d   1      -5.981  93.429 118.930  0.00  0.00    -0.368 OA
BRANCH   7   8
ATOM      8  C   LIG d   1      -7.231  93.907 119.483  0.00  0.00     0.119 C 
BRANCH   8   9
ATOM      9  C   LIG d   1      -7.038  95.391 119.850  0.00  0.00     0.028 C 
ATOM     10  C   LIG d   1      -7.192  96.320 118.634  0.00  0.00     0.006 C 
ENDBRANCH   8   9
BRANCH   8  11
ATOM     11  C   LIG d   1      -7.562  93.203 120.803  0.00  0.00     0.028 C 
ATOM     12  C   LIG d   1      -6.459  92.232 121.253  0.00  0.00     0.006 C 
ENDBRANCH   8  11
ENDBRANCH   7   8
ENDBRANCH   1   7
BRANCH   6  13
ATOM     13  N   LIG d   1      -3.733  92.152 117.380  0.00  0.00    -0.311 N 
ATOM     14  C   LIG d   1      -2.883  91.806 118.346  0.00  0.00     0.210 C 
ATOM     15  C   LIG d   1      -1.463  92.357 118.186  0.00  0.00     0.109 C 
ATOM     16  O   LIG d   1      -3.162  91.067 119.302  0.00  0.00    -0.276 OA
ATOM     17  H   LIG d   1      -3.413  92.728 116.626  0.00  0.00     0.149 HD
ENDBRANCH   6  13
BRANCH   5  18
ATOM     18  N   LIG d   1      -4.817  89.709 115.902  0.00  0.00     0.381 N 
ATOM     19  H   LIG d   1      -3.853  89.885 115.701  0.00  0.00    -0.090 HD
ATOM     20  H   LIG d   1      -5.214  89.207 115.127  0.00  0.00    -0.090 HD
ATOM     21  H   LIG d   1      -4.898  89.167 116.734  0.00  0.00    -0.090 HD
ENDBRANCH   5  18
BRANCH   3  22
ATOM     22  C   LIG d   1      -9.102  91.848 115.813  0.00  0.00     0.382 C 
ATOM     23  O   LIG d   1      -9.812  92.870 115.973  0.00  0.00    -0.241 OA
ATOM     24  O   LIG d   1      -9.568  90.865 115.206  0.00  0.00    -0.241 OA
ENDBRANCH   3  22
TORSDOF 7
ENDMDL
MODEL 2
REMARK VINA RESULT:      -6.0     15.575     17.688
REMARK  7 active torsions:
REMARK  status: ('A' for Active; 'I' for Inactive)
REMARK    1  A    between atoms: C_2  and  C_3 
REMARK    2  A    between atoms: C_3  and  O_6 
REMARK    3  A    between atoms: C_3  and  C_4 
REMARK    4  A    between atoms: C_7  and  O_6 
REMARK    5  A    between atoms: C_9  and  C_10 
REMARK    6  A    between atoms: N_15  and  C_14 
REMARK    7  A    between atoms: N_20  and  C_19 
REMARK       I    between atoms: C_22  and  N_20 
ROOT
ATOM      1  C   LIG d   1      -6.969  76.112 115.730  0.00  0.00     0.161 C 
ATOM      2  C   LIG d   1      -5.730  75.940 115.090  0.00  0.00     0.016 C 
ATOM      3  C   LIG d   1      -4.491  76.247 115.697  0.00  0.00     0.038 C 
ATOM      4  C   LIG d   1      -4.397  76.607 117.050  0.00  0.00     0.028 C 
ATOM      5  C   LIG d   1      -5.657  77.279 117.586  0.00  0.00    -0.047 C 
ATOM      6  C   LIG d   1      -6.880  76.399 117.243  0.00  0.00     0.091 C 
ENDROOT
BRANCH   1   7
ATOM      7  O   LIG d   1      -7.809  74.967 115.484  0.00  0.00    -0.368 OA
BRANCH   7   8
ATOM      8  C   LIG d   1      -7.748  73.909 116.473  0.00  0.00     0.119 C 
BRANCH   8   9
ATOM      9  C   LIG d   1      -7.093  72.686 115.802  0.00  0.00     0.028 C 
ATOM     10  C   LIG d   1      -8.003  71.447 115.826  0.00  0.00     0.006 C 
ENDBRANCH   8   9
BRANCH   8  11
ATOM     11  C   LIG d   1      -9.150  73.446 116.879  0.00  0.00     0.028 C 
ATOM     12  C   LIG d   1     -10.251  74.428 116.448  0.00  0.00     0.006 C 
ENDBRANCH   8  11
ENDBRANCH   7   8
ENDBRANCH   1   7
BRANCH   6  13
ATOM     13  N   LIG d   1      -8.163  77.024 117.658  0.00  0.00    -0.311 N 
ATOM     14  C   LIG d   1      -8.795  76.719 118.790  0.00  0.00     0.210 C 
ATOM     15  C   LIG d   1     -10.113  77.466 119.016  0.00  0.00     0.109 C 
ATOM     16  O   LIG d   1      -8.373  75.924 119.644  0.00  0.00    -0.276 OA
ATOM     17  H   LIG d   1      -8.560  77.704 117.039  0.00  0.00     0.149 HD
ENDBRANCH   6  13
BRANCH   5  18
ATOM     18  N   LIG d   1      -5.474  77.475 119.037  0.00  0.00     0.381 N 
ATOM     19  H   LIG d   1      -4.741  78.136 119.199  0.00  0.00    -0.090 HD
ATOM     20  H   LIG d   1      -5.207  76.600 119.452  0.00  0.00    -0.090 HD
ATOM     21  H   LIG d   1      -6.322  77.800 119.446  0.00  0.00    -0.090 HD
ENDBRANCH   5  18
BRANCH   3  22
ATOM     22  C   LIG d   1      -3.331  76.233 114.938  0.00  0.00     0.382 C 
ATOM     23  O   LIG d   1      -2.771  75.143 114.668  0.00  0.00    -0.241 OA
ATOM     24  O   LIG d   1      -2.812  77.299 114.557  0.00  0.00    -0.241 OA
ENDBRANCH   3  22
TORSDOF 7
ENDMDL
MODEL 3
REMARK VINA RESULT:      -6.0     14.992     16.985
REMARK  7 active torsions:
REMARK  status: ('A' for Active; 'I' for Inactive)
REMARK    1  A    between atoms: C_2  and  C_3 
REMARK    2  A    between atoms: C_3  and  O_6 
REMARK    3  A    between atoms: C_3  and  C_4 
REMARK    4  A    between atoms: C_7  and  O_6 
REMARK    5  A    between atoms: C_9  and  C_10 
REMARK    6  A    between atoms: N_15  and  C_14 
REMARK    7  A    between atoms: N_20  and  C_19 
REMARK       I    between atoms: C_22  and  N_20 
ROOT
ATOM      1  C   LIG d   1      -7.848  75.875 117.840  0.00  0.00     0.161 C 
ATOM      2  C   LIG d   1      -9.224  75.960 118.106  0.00  0.00     0.016 C 
ATOM      3  C   LIG d   1      -9.826  77.066 118.749  0.00  0.00     0.038 C 
ATOM      4  C   LIG d   1      -9.110  78.237 119.036  0.00  0.00     0.028 C 
ATOM      5  C   LIG d   1      -7.618  77.998 119.244  0.00  0.00    -0.047 C 
ATOM      6  C   LIG d   1      -7.067  77.190 118.046  0.00  0.00     0.091 C 
ENDROOT
BRANCH   1   7
ATOM      7  O   LIG d   1      -7.637  75.372 116.506  0.00  0.00    -0.368 OA
BRANCH   7   8
ATOM      8  C   LIG d   1      -7.274  73.973 116.402  0.00  0.00     0.119 C 
BRANCH   8   9
ATOM      9  C   LIG d   1      -6.576  73.776 115.042  0.00  0.00     0.028 C 
ATOM     10  C   LIG d   1      -5.062  74.031 115.117  0.00  0.00     0.006 C 
ENDBRANCH   8   9
BRANCH   8  11
ATOM     11  C   LIG d   1      -8.515  73.077 116.356  0.00  0.00     0.028 C 
ATOM     12  C   LIG d   1      -8.219  71.678 115.792  0.00  0.00     0.006 C 
ENDBRANCH   8  11
ENDBRANCH   7   8
ENDBRANCH   1   7
BRANCH   6  13
ATOM     13  N   LIG d   1      -5.632  76.841 118.210  0.00  0.00    -0.311 N 
ATOM     14  C   LIG d   1      -4.729  76.979 117.241  0.00  0.00     0.210 C 
ATOM     15  C   LIG d   1      -3.309  76.541 117.613  0.00  0.00     0.109 C 
ATOM     16  O   LIG d   1      -4.962  77.452 116.119  0.00  0.00    -0.276 OA
ATOM     17  H   LIG d   1      -5.349  76.479 119.100  0.00  0.00     0.149 HD
ENDBRANCH   6  13
BRANCH   5  18
ATOM     18  N   LIG d   1      -6.973  79.315 119.398  0.00  0.00     0.381 N 
ATOM     19  H   LIG d   1      -6.489  79.355 120.273  0.00  0.00    -0.090 HD
ATOM     20  H   LIG d   1      -7.682  80.027 119.398  0.00  0.00    -0.090 HD
ATOM     21  H   LIG d   1      -6.334  79.472 118.650  0.00  0.00    -0.090 HD
ENDBRANCH   5  18
BRANCH   3  22
ATOM     22  C   LIG d   1     -11.153  76.991 119.147  0.00  0.00     0.382 C 
ATOM     23  O   LIG d   1     -11.464  77.235 120.337  0.00  0.00    -0.241 OA
ATOM     24  O   LIG d   1     -12.035  76.639 118.342  0.00  0.00    -0.241 OA
ENDBRANCH   3  22
TORSDOF 7
ENDMDL
MODEL 4
REMARK VINA RESULT:      -5.9      0.900      1.831
REMARK  7 active torsions:
REMARK  status: ('A' for Active; 'I' for Inactive)
REMARK    1  A    between atoms: C_2  and  C_3 
REMARK    2  A    between atoms: C_3  and  O_6 
REMARK    3  A    between atoms: C_3  and  C_4 
REMARK    4  A    between atoms: C_7  and  O_6 
REMARK    5  A    between atoms: C_9  and  C_10 
REMARK    6  A    between atoms: N_15  and  C_14 
REMARK    7  A    between atoms: N_20  and  C_19 
REMARK       I    between atoms: C_22  and  N_20 
ROOT
ATOM      1  C   LIG d   1      -6.194  93.149 117.647  0.00  0.00     0.161 C 
ATOM      2  C   LIG d   1      -7.507  92.921 117.202  0.00  0.00     0.016 C 
ATOM      3  C   LIG d   1      -7.874  91.826 116.386  0.00  0.00     0.038 C 
ATOM      4  C   LIG d   1      -6.973  90.795 116.081  0.00  0.00     0.028 C 
ATOM      5  C   LIG d   1      -5.515  91.242 116.088  0.00  0.00    -0.047 C 
ATOM      6  C   LIG d   1      -5.221  91.974 117.417  0.00  0.00     0.091 C 
ENDROOT
BRANCH   1   7
ATOM      7  O   LIG d   1      -6.207  93.524 119.038  0.00  0.00    -0.368 OA
BRANCH   7   8
ATOM      8  C   LIG d   1      -5.837  94.893 119.334  0.00  0.00     0.119 C 
BRANCH   8   9
ATOM      9  C   LIG d   1      -5.065  94.887 120.667  0.00  0.00     0.028 C 
ATOM     10  C   LIG d   1      -4.851  93.465 121.214  0.00  0.00     0.006 C 
ENDBRANCH   8   9
BRANCH   8  11
ATOM     11  C   LIG d   1      -7.073  95.762 119.584  0.00  0.00     0.028 C 
ATOM     12  C   LIG d   1      -7.176  96.947 118.610  0.00  0.00     0.006 C 
ENDBRANCH   8  11
ENDBRANCH   7   8
ENDBRANCH   1   7
BRANCH   6  13
ATOM     13  N   LIG d   1      -3.839  92.519 117.470  0.00  0.00    -0.311 N 
ATOM     14  C   LIG d   1      -2.907  92.074 118.312  0.00  0.00     0.210 C 
ATOM     15  C   LIG d   1      -1.555  92.787 118.215  0.00  0.00     0.109 C 
ATOM     16  O   LIG d   1      -3.064  91.136 119.108  0.00  0.00    -0.276 OA
ATOM     17  H   LIG d   1      -3.616  93.262 116.836  0.00  0.00     0.149 HD
ENDBRANCH   6  13
BRANCH   5  18
ATOM     18  N   LIG d   1      -4.680  90.042 115.891  0.00  0.00     0.381 N 
ATOM     19  H   LIG d   1      -4.770  89.717 114.950  0.00  0.00    -0.090 HD
ATOM     20  H   LIG d   1      -5.003  89.317 116.508  0.00  0.00    -0.090 HD
ATOM     21  H   LIG d   1      -3.727  90.254 116.087  0.00  0.00    -0.090 HD
ENDBRANCH   5  18
BRANCH   3  22
ATOM     22  C   LIG d   1      -9.144  91.777 115.832  0.00  0.00     0.382 C 
ATOM     23  O   LIG d   1      -9.900  92.775 115.908  0.00  0.00    -0.241 OA
ATOM     24  O   LIG d   1      -9.559  90.732 115.297  0.00  0.00    -0.241 OA
ENDBRANCH   3  22
TORSDOF 7
ENDMDL
MODEL 5
REMARK VINA RESULT:      -5.7     15.405     17.602
REMARK  7 active torsions:
REMARK  status: ('A' for Active; 'I' for Inactive)
REMARK    1  A    between atoms: C_2  and  C_3 
REMARK    2  A    between atoms: C_3  and  O_6 
REMARK    3  A    between atoms: C_3  and  C_4 
REMARK    4  A    between atoms: C_7  and  O_6 
REMARK    5  A    between atoms: C_9  and  C_10 
REMARK    6  A    between atoms: N_15  and  C_14 
REMARK    7  A    between atoms: N_20  and  C_19 
REMARK       I    between atoms: C_22  and  N_20 
ROOT
ATOM      1  C   LIG d   1      -7.111  75.903 117.326  0.00  0.00     0.161 C 
ATOM      2  C   LIG d   1      -5.929  75.905 116.566  0.00  0.00     0.016 C 
ATOM      3  C   LIG d   1      -4.770  76.628 116.930  0.00  0.00     0.038 C 
ATOM      4  C   LIG d   1      -4.663  77.282 118.167  0.00  0.00     0.028 C 
ATOM      5  C   LIG d   1      -6.006  77.726 118.736  0.00  0.00    -0.047 C 
ATOM      6  C   LIG d   1      -6.975  76.522 118.733  0.00  0.00     0.091 C 
ENDROOT
BRANCH   1   7
ATOM      7  O   LIG d   1      -7.632  74.563 117.416  0.00  0.00    -0.368 OA
BRANCH   7   8
ATOM      8  C   LIG d   1      -8.070  73.964 116.171  0.00  0.00     0.119 C 
BRANCH   8   9
ATOM      9  C   LIG d   1      -9.538  73.534 116.355  0.00  0.00     0.028 C 
ATOM     10  C   LIG d   1     -10.446  74.705 116.766  0.00  0.00     0.006 C 
ENDBRANCH   8   9
BRANCH   8  11
ATOM     11  C   LIG d   1      -7.302  72.673 115.874  0.00  0.00     0.028 C 
ATOM     12  C   LIG d   1      -8.208  71.431 115.862  0.00  0.00     0.006 C 
ENDBRANCH   8  11
ENDBRANCH   7   8
ENDBRANCH   1   7
BRANCH   6  13
ATOM     13  N   LIG d   1      -8.338  76.890 119.196  0.00  0.00    -0.311 N 
ATOM     14  C   LIG d   1      -9.012  76.199 120.114  0.00  0.00     0.210 C 
ATOM     15  C   LIG d   1     -10.410  76.739 120.432  0.00  0.00     0.109 C 
ATOM     16  O   LIG d   1      -8.573  75.209 120.718  0.00  0.00    -0.276 OA
ATOM     17  H   LIG d   1      -8.758  77.698 118.781  0.00  0.00     0.149 HD
ENDBRANCH   6  13
BRANCH   5  18
ATOM     18  N   LIG d   1      -5.761  78.268 120.085  0.00  0.00     0.381 N 
ATOM     19  H   LIG d   1      -6.442  77.909 120.724  0.00  0.00    -0.090 HD
ATOM     20  H   LIG d   1      -5.854  79.269 120.056  0.00  0.00    -0.090 HD
ATOM     21  H   LIG d   1      -4.846  78.022 120.391  0.00  0.00    -0.090 HD
ENDBRANCH   5  18
BRANCH   3  22
ATOM     22  C   LIG d   1      -3.717  76.734 116.035  0.00  0.00     0.382 C 
ATOM     23  O   LIG d   1      -3.945  76.957 114.822  0.00  0.00    -0.241 OA
ATOM     24  O   LIG d   1      -2.543  76.566 116.418  0.00  0.00    -0.241 OA
ENDBRANCH   3  22
TORSDOF 7
ENDMDL
MODEL 6
REMARK VINA RESULT:      -5.6     15.074     16.928
REMARK  7 active torsions:
REMARK  status: ('A' for Active; 'I' for Inactive)
REMARK    1  A    between atoms: C_2  and  C_3 
REMARK    2  A    between atoms: C_3  and  O_6 
REMARK    3  A    between atoms: C_3  and  C_4 
REMARK    4  A    between atoms: C_7  and  O_6 
REMARK    5  A    between atoms: C_9  and  C_10 
REMARK    6  A    between atoms: N_15  and  C_14 
REMARK    7  A    between atoms: N_20  and  C_19 
REMARK       I    between atoms: C_22  and  N_20 
ROOT
ATOM      1  C   LIG d   1      -7.257  76.439 117.412  0.00  0.00     0.161 C 
ATOM      2  C   LIG d   1      -8.134  77.300 118.093  0.00  0.00     0.016 C 
ATOM      3  C   LIG d   1      -9.507  77.022 118.282  0.00  0.00     0.038 C 
ATOM      4  C   LIG d   1     -10.069  75.785 117.931  0.00  0.00     0.028 C 
ATOM      5  C   LIG d   1      -9.336  75.090 116.788  0.00  0.00    -0.047 C 
ATOM      6  C   LIG d   1      -7.827  75.035 117.120  0.00  0.00     0.091 C 
ENDROOT
BRANCH   1   7
ATOM      7  O   LIG d   1      -6.015  76.334 118.135  0.00  0.00    -0.368 OA
BRANCH   7   8
ATOM      8  C   LIG d   1      -4.911  77.119 117.622  0.00  0.00     0.119 C 
BRANCH   8   9
ATOM      9  C   LIG d   1      -3.986  76.163 116.843  0.00  0.00     0.028 C 
ATOM     10  C   LIG d   1      -4.083  76.364 115.321  0.00  0.00     0.006 C 
ENDBRANCH   8   9
BRANCH   8  11
ATOM     11  C   LIG d   1      -4.049  77.680 118.757  0.00  0.00     0.028 C 
ATOM     12  C   LIG d   1      -4.854  78.538 119.747  0.00  0.00     0.006 C 
ENDBRANCH   8  11
ENDBRANCH   7   8
ENDBRANCH   1   7
BRANCH   6  13
ATOM     13  N   LIG d   1      -7.025  74.445 116.016  0.00  0.00    -0.311 N 
ATOM     14  C   LIG d   1      -6.723  73.150 115.941  0.00  0.00     0.210 C 
ATOM     15  C   LIG d   1      -5.869  72.755 114.731  0.00  0.00     0.109 C 
ATOM     16  O   LIG d   1      -7.107  72.286 116.743  0.00  0.00    -0.276 OA
ATOM     17  H   LIG d   1      -6.699  75.070 115.305  0.00  0.00     0.149 HD
ENDBRANCH   6  13
BRANCH   5  18
ATOM     18  N   LIG d   1      -9.940  73.755 116.619  0.00  0.00     0.381 N 
ATOM     19  H   LIG d   1     -10.414  73.488 117.458  0.00  0.00    -0.090 HD
ATOM     20  H   LIG d   1      -9.209  73.087 116.444  0.00  0.00    -0.090 HD
ATOM     21  H   LIG d   1     -10.580  73.764 115.856  0.00  0.00    -0.090 HD
ENDBRANCH   5  18
BRANCH   3  22
ATOM     22  C   LIG d   1     -10.343  78.004 118.791  0.00  0.00     0.382 C 
ATOM     23  O   LIG d   1     -10.055  79.215 118.637  0.00  0.00    -0.241 OA
ATOM     24  O   LIG d   1     -11.359  77.693 119.441  0.00  0.00    -0.241 OA
ENDBRANCH   3  22
TORSDOF 7
ENDMDL
MODEL 7
REMARK VINA RESULT:      -5.5      1.585      2.271
REMARK  7 active torsions:
REMARK  status: ('A' for Active; 'I' for Inactive)
REMARK    1  A    between atoms: C_2  and  C_3 
REMARK    2  A    between atoms: C_3  and  O_6 
REMARK    3  A    between atoms: C_3  and  C_4 
REMARK    4  A    between atoms: C_7  and  O_6 
REMARK    5  A    between atoms: C_9  and  C_10 
REMARK    6  A    between atoms: N_15  and  C_14 
REMARK    7  A    between atoms: N_20  and  C_19 
REMARK       I    between atoms: C_22  and  N_20 
ROOT
ATOM      1  C   LIG d   1      -5.513  91.863 117.992  0.00  0.00     0.161 C 
ATOM      2  C   LIG d   1      -6.844  92.165 117.656  0.00  0.00     0.016 C 
ATOM      3  C   LIG d   1      -7.535  91.550 116.587  0.00  0.00     0.038 C 
ATOM      4  C   LIG d   1      -6.988  90.474 115.871  0.00  0.00     0.028 C 
ATOM      5  C   LIG d   1      -5.463  90.476 115.846  0.00  0.00    -0.047 C 
ATOM      6  C   LIG d   1      -4.938  90.613 117.293  0.00  0.00     0.091 C 
ENDROOT
BRANCH   1   7
ATOM      7  O   LIG d   1      -5.387  91.741 119.422  0.00  0.00    -0.368 OA
BRANCH   7   8
ATOM      8  C   LIG d   1      -4.554  92.730 120.076  0.00  0.00     0.119 C 
BRANCH   8   9
ATOM      9  C   LIG d   1      -5.458  93.543 121.023  0.00  0.00     0.028 C 
ATOM     10  C   LIG d   1      -5.998  94.823 120.365  0.00  0.00     0.006 C 
ENDBRANCH   8   9
BRANCH   8  11
ATOM     11  C   LIG d   1      -4.003  93.746 119.070  0.00  0.00     0.028 C 
ATOM     12  C   LIG d   1      -2.467  93.785 119.044  0.00  0.00     0.006 C 
ENDBRANCH   8  11
ENDBRANCH   7   8
ENDBRANCH   1   7
BRANCH   6  13
ATOM     13  N   LIG d   1      -3.456  90.708 117.352  0.00  0.00    -0.311 N 
ATOM     14  C   LIG d   1      -2.665  89.673 117.628  0.00  0.00     0.210 C 
ATOM     15  C   LIG d   1      -1.167  89.993 117.657  0.00  0.00     0.109 C 
ATOM     16  O   LIG d   1      -3.060  88.513 117.821  0.00  0.00    -0.276 OA
ATOM     17  H   LIG d   1      -3.049  91.607 117.177  0.00  0.00     0.149 HD
ENDBRANCH   6  13
BRANCH   5  18
ATOM     18  N   LIG d   1      -5.027  89.231 115.188  0.00  0.00     0.381 N 
ATOM     19  H   LIG d   1      -5.596  88.467 115.496  0.00  0.00    -0.090 HD
ATOM     20  H   LIG d   1      -4.076  89.040 115.450  0.00  0.00    -0.090 HD
ATOM     21  H   LIG d   1      -5.094  89.326 114.199  0.00  0.00    -0.090 HD
ENDBRANCH   5  18
BRANCH   3  22
ATOM     22  C   LIG d   1      -8.773  92.038 116.198  0.00  0.00     0.382 C 
ATOM     23  O   LIG d   1      -9.450  91.419 115.342  0.00  0.00    -0.241 OA
ATOM     24  O   LIG d   1      -9.203  93.112 116.661  0.00  0.00    -0.241 OA
ENDBRANCH   3  22
TORSDOF 7
ENDMDL
MODEL 8
REMARK VINA RESULT:      -5.5      2.624      4.477
REMARK  7 active torsions:
REMARK  status: ('A' for Active; 'I' for Inactive)
REMARK    1  A    between atoms: C_2  and  C_3 
REMARK    2  A    between atoms: C_3  and  O_6 
REMARK    3  A    between atoms: C_3  and  C_4 
REMARK    4  A    between atoms: C_7  and  O_6 
REMARK    5  A    between atoms: C_9  and  C_10 
REMARK    6  A    between atoms: N_15  and  C_14 
REMARK    7  A    between atoms: N_20  and  C_19 
REMARK       I    between atoms: C_22  and  N_20 
ROOT
ATOM      1  C   LIG d   1      -6.207  92.863 118.469  0.00  0.00     0.161 C 
ATOM      2  C   LIG d   1      -5.799  91.681 117.829  0.00  0.00     0.016 C 
ATOM      3  C   LIG d   1      -6.496  91.103 116.743  0.00  0.00     0.038 C 
ATOM      4  C   LIG d   1      -7.571  91.755 116.121  0.00  0.00     0.028 C 
ATOM      5  C   LIG d   1      -8.326  92.699 117.050  0.00  0.00    -0.047 C 
ATOM      6  C   LIG d   1      -7.314  93.647 117.733  0.00  0.00     0.091 C 
ENDROOT
BRANCH   1   7
ATOM      7  O   LIG d   1      -5.066  93.710 118.705  0.00  0.00    -0.368 OA
BRANCH   7   8
ATOM      8  C   LIG d   1      -4.136  93.258 119.721  0.00  0.00     0.119 C 
BRANCH   8   9
ATOM      9  C   LIG d   1      -4.569  93.890 121.058  0.00  0.00     0.028 C 
ATOM     10  C   LIG d   1      -5.068  95.335 120.891  0.00  0.00     0.006 C 
ENDBRANCH   8   9
BRANCH   8  11
ATOM     11  C   LIG d   1      -2.724  93.790 119.460  0.00  0.00     0.028 C 
ATOM     12  C   LIG d   1      -2.187  93.399 118.074  0.00  0.00     0.006 C 
ENDBRANCH   8  11
ENDBRANCH   7   8
ENDBRANCH   1   7
BRANCH   6  13
ATOM     13  N   LIG d   1      -7.960  94.548 118.723  0.00  0.00    -0.311 N 
ATOM     14  C   LIG d   1      -8.965  94.170 119.512  0.00  0.00     0.210 C 
ATOM     15  C   LIG d   1      -9.499  95.261 120.446  0.00  0.00     0.109 C 
ATOM     16  O   LIG d   1      -9.443  93.027 119.550  0.00  0.00    -0.276 OA
ATOM     17  H   LIG d   1      -7.614  95.486 118.781  0.00  0.00     0.149 HD
ENDBRANCH   6  13
BRANCH   5  18
ATOM     18  N   LIG d   1      -9.330  93.414 116.239  0.00  0.00     0.381 N 
ATOM     19  H   LIG d   1      -9.765  92.777 115.601  0.00  0.00    -0.090 HD
ATOM     20  H   LIG d   1      -8.869  94.129 115.706  0.00  0.00    -0.090 HD
ATOM     21  H   LIG d   1     -10.019  93.823 116.832  0.00  0.00    -0.090 HD
ENDBRANCH   5  18
BRANCH   3  22
ATOM     22  C   LIG d   1      -6.142  89.840 116.293  0.00  0.00     0.382 C 
ATOM     23  O   LIG d   1      -7.032  89.023 115.956  0.00  0.00    -0.241 OA
ATOM     24  O   LIG d   1      -4.946  89.493 116.261  0.00  0.00    -0.241 OA
ENDBRANCH   3  22
TORSDOF 7
ENDMDL
MODEL 9
REMARK VINA RESULT:      -5.3      2.296      5.266
REMARK  7 active torsions:
REMARK  status: ('A' for Active; 'I' for Inactive)
REMARK    1  A    between atoms: C_2  and  C_3 
REMARK    2  A    between atoms: C_3  and  O_6 
REMARK    3  A    between atoms: C_3  and  C_4 
REMARK    4  A    between atoms: C_7  and  O_6 
REMARK    5  A    between atoms: C_9  and  C_10 
REMARK    6  A    between atoms: N_15  and  C_14 
REMARK    7  A    between atoms: N_20  and  C_19 
REMARK       I    between atoms: C_22  and  N_20 
ROOT
ATOM      1  C   LIG d   1      -5.382  91.985 117.273  0.00  0.00     0.161 C 
ATOM      2  C   LIG d   1      -4.576  90.837 117.205  0.00  0.00     0.016 C 
ATOM      3  C   LIG d   1      -3.514  90.578 118.102  0.00  0.00     0.038 C 
ATOM      4  C   LIG d   1      -3.282  91.381 119.228  0.00  0.00     0.028 C 
ATOM      5  C   LIG d   1      -3.749  92.822 119.051  0.00  0.00    -0.047 C 
ATOM      6  C   LIG d   1      -5.215  92.818 118.562  0.00  0.00     0.091 C 
ENDROOT
BRANCH   1   7
ATOM      7  O   LIG d   1      -6.765  91.623 117.086  0.00  0.00    -0.368 OA
BRANCH   7   8
ATOM      8  C   LIG d   1      -7.267  91.703 115.730  0.00  0.00     0.119 C 
BRANCH   8   9
ATOM      9  C   LIG d   1      -8.677  92.323 115.794  0.00  0.00     0.028 C 
ATOM     10  C   LIG d   1      -8.847  93.270 116.993  0.00  0.00     0.006 C 
ENDBRANCH   8   9
BRANCH   8  11
ATOM     11  C   LIG d   1      -7.463  90.310 115.125  0.00  0.00     0.028 C 
ATOM     12  C   LIG d   1      -8.274  89.374 116.035  0.00  0.00     0.006 C 
ENDBRANCH   8  11
ENDBRANCH   7   8
ENDBRANCH   1   7
BRANCH   6  13
ATOM     13  N   LIG d   1      -5.724  94.186 118.282  0.00  0.00    -0.311 N 
ATOM     14  C   LIG d   1      -6.395  94.915 119.172  0.00  0.00     0.210 C 
ATOM     15  C   LIG d   1      -6.846  96.291 118.673  0.00  0.00     0.109 C 
ATOM     16  O   LIG d   1      -6.631  94.565 120.339  0.00  0.00    -0.276 OA
ATOM     17  H   LIG d   1      -5.549  94.560 117.370  0.00  0.00     0.149 HD
ENDBRANCH   6  13
BRANCH   5  18
ATOM     18  N   LIG d   1      -3.574  93.510 120.344  0.00  0.00     0.381 N 
ATOM     19  H   LIG d   1      -4.429  93.482 120.862  0.00  0.00    -0.090 HD
ATOM     20  H   LIG d   1      -3.341  94.472 120.172  0.00  0.00    -0.090 HD
ATOM     21  H   LIG d   1      -2.846  93.073 120.867  0.00  0.00    -0.090 HD
ENDBRANCH   5  18
BRANCH   3  22
ATOM     22  C   LIG d   1      -2.646  89.526 117.854  0.00  0.00     0.382 C 
ATOM     23  O   LIG d   1      -1.486  89.755 117.434  0.00  0.00    -0.241 OA
ATOM     24  O   LIG d   1      -3.023  88.347 118.001  0.00  0.00    -0.241 OA
ENDBRANCH   3  22
TORSDOF 7
ENDMDL
