MODEL 1
REMARK VINA RESULT:      -4.3      0.000      0.000
REMARK  7 active torsions:
REMARK  status: ('A' for Active; 'I' for Inactive)
REMARK    1  A    between atoms: C_2  and  C_3 
REMARK    2  A    between atoms: C_3  and  O_6 
REMARK    3  A    between atoms: C_3  and  C_4 
REMARK    4  A    between atoms: C_7  and  O_6 
REMARK    5  A    between atoms: C_9  and  C_10 
REMARK    6  A    between atoms: N_15  and  C_14 
REMARK    7  A    between atoms: N_20  and  C_19 
REMARK       I    between atoms: C_22  and  N_20 
ROOT
ATOM      1  C   LIG d   1      -6.139  94.262 118.481  0.00  0.00     0.161 C 
ATOM      2  C   LIG d   1      -6.676  93.023 118.092  0.00  0.00     0.016 C 
ATOM      3  C   LIG d   1      -5.910  91.839 117.995  0.00  0.00     0.038 C 
ATOM      4  C   LIG d   1      -4.577  91.780 118.430  0.00  0.00     0.028 C 
ATOM      5  C   LIG d   1      -3.856  93.121 118.354  0.00  0.00    -0.047 C 
ATOM      6  C   LIG d   1      -4.713  94.193 119.066  0.00  0.00     0.091 C 
ENDROOT
BRANCH   1   7
ATOM      7  O   LIG d   1      -7.031  94.910 119.409  0.00  0.00    -0.368 OA
BRANCH   7   8
ATOM      8  C   LIG d   1      -7.714  94.044 120.348  0.00  0.00     0.119 C 
BRANCH   8   9
ATOM      9  C   LIG d   1      -9.181  94.510 120.425  0.00  0.00     0.028 C 
ATOM     10  C   LIG d   1      -9.484  95.658 119.448  0.00  0.00     0.006 C 
ENDBRANCH   8   9
BRANCH   8  11
ATOM     11  C   LIG d   1      -7.160  94.212 121.766  0.00  0.00     0.028 C 
ATOM     12  C   LIG d   1      -6.802  95.670 122.097  0.00  0.00     0.006 C 
ENDBRANCH   8  11
ENDBRANCH   7   8
ENDBRANCH   1   7
BRANCH   6  13
ATOM     13  N   LIG d   1      -4.120  95.552 118.965  0.00  0.00    -0.311 N 
ATOM     14  C   LIG d   1      -3.568  96.189 119.996  0.00  0.00     0.210 C 
ATOM     15  C   LIG d   1      -3.034  97.590 119.680  0.00  0.00     0.109 C 
ATOM     16  O   LIG d   1      -3.442  95.715 121.135  0.00  0.00    -0.276 OA
ATOM     17  H   LIG d   1      -4.151  95.998 118.069  0.00  0.00     0.149 HD
ENDBRANCH   6  13
BRANCH   5  18
ATOM     18  N   LIG d   1      -2.525  92.947 118.965  0.00  0.00     0.381 N 
ATOM     19  H   LIG d   1      -1.854  92.725 118.257  0.00  0.00    -0.090 HD
ATOM     20  H   LIG d   1      -2.563  92.180 119.614  0.00  0.00    -0.090 HD
ATOM     21  H   LIG d   1      -2.255  93.780 119.439  0.00  0.00    -0.090 HD
ENDBRANCH   5  18
BRANCH   3  22
ATOM     22  C   LIG d   1      -6.466  90.706 117.421  0.00  0.00     0.382 C 
ATOM     23  O   LIG d   1      -7.696  90.664 117.180  0.00  0.00    -0.241 OA
ATOM     24  O   LIG d   1      -5.760  89.708 117.181  0.00  0.00    -0.241 OA
ENDBRANCH   3  22
TORSDOF 7
ENDMDL
MODEL 2
REMARK VINA RESULT:      -4.3     26.369     28.702
REMARK  7 active torsions:
REMARK  status: ('A' for Active; 'I' for Inactive)
REMARK    1  A    between atoms: C_2  and  C_3 
REMARK    2  A    between atoms: C_3  and  O_6 
REMARK    3  A    between atoms: C_3  and  C_4 
REMARK    4  A    between atoms: C_7  and  O_6 
REMARK    5  A    between atoms: C_9  and  C_10 
REMARK    6  A    between atoms: N_15  and  C_14 
REMARK    7  A    between atoms: N_20  and  C_19 
REMARK       I    between atoms: C_22  and  N_20 
ROOT
ATOM      1  C   LIG d   1     -13.951  66.720 121.602  0.00  0.00     0.161 C 
ATOM      2  C   LIG d   1     -12.886  66.708 122.518  0.00  0.00     0.016 C 
ATOM      3  C   LIG d   1     -11.759  65.863 122.390  0.00  0.00     0.038 C 
ATOM      4  C   LIG d   1     -11.549  65.075 121.249  0.00  0.00     0.028 C 
ATOM      5  C   LIG d   1     -12.839  64.678 120.540  0.00  0.00    -0.047 C 
ATOM      6  C   LIG d   1     -13.686  65.948 120.292  0.00  0.00     0.091 C 
ENDROOT
BRANCH   1   7
ATOM      7  O   LIG d   1     -14.331  68.080 121.313  0.00  0.00    -0.368 OA
BRANCH   7   8
ATOM      8  C   LIG d   1     -15.544  68.551 121.951  0.00  0.00     0.119 C 
BRANCH   8   9
ATOM      9  C   LIG d   1     -16.622  68.680 120.858  0.00  0.00     0.028 C 
ATOM     10  C   LIG d   1     -17.769  67.672 121.043  0.00  0.00     0.006 C 
ENDBRANCH   8   9
BRANCH   8  11
ATOM     11  C   LIG d   1     -15.365  69.965 122.512  0.00  0.00     0.028 C 
ATOM     12  C   LIG d   1     -14.014  70.158 123.220  0.00  0.00     0.006 C 
ENDBRANCH   8  11
ENDBRANCH   7   8
ENDBRANCH   1   7
BRANCH   6  13
ATOM     13  N   LIG d   1     -15.004  65.639 119.678  0.00  0.00    -0.311 N 
ATOM     14  C   LIG d   1     -15.359  66.048 118.461  0.00  0.00     0.210 C 
ATOM     15  C   LIG d   1     -16.770  65.637 118.028  0.00  0.00     0.109 C 
ATOM     16  O   LIG d   1     -14.628  66.684 117.687  0.00  0.00    -0.276 OA
ATOM     17  H   LIG d   1     -15.647  65.100 120.225  0.00  0.00     0.149 HD
ENDBRANCH   6  13
BRANCH   5  18
ATOM     18  N   LIG d   1     -12.468  63.979 119.296  0.00  0.00     0.381 N 
ATOM     19  H   LIG d   1     -11.678  64.428 118.878  0.00  0.00    -0.090 HD
ATOM     20  H   LIG d   1     -13.237  64.030 118.652  0.00  0.00    -0.090 HD
ATOM     21  H   LIG d   1     -12.252  63.026 119.492  0.00  0.00    -0.090 HD
ENDBRANCH   5  18
BRANCH   3  22
ATOM     22  C   LIG d   1     -10.848  65.771 123.432  0.00  0.00     0.382 C 
ATOM     23  O   LIG d   1      -9.940  64.906 123.396  0.00  0.00    -0.241 OA
ATOM     24  O   LIG d   1     -10.949  66.513 124.427  0.00  0.00    -0.241 OA
ENDBRANCH   3  22
TORSDOF 7
ENDMDL
MODEL 3
REMARK VINA RESULT:      -4.2     10.899     13.088
REMARK  7 active torsions:
REMARK  status: ('A' for Active; 'I' for Inactive)
REMARK    1  A    between atoms: C_2  and  C_3 
REMARK    2  A    between atoms: C_3  and  O_6 
REMARK    3  A    between atoms: C_3  and  C_4 
REMARK    4  A    between atoms: C_7  and  O_6 
REMARK    5  A    between atoms: C_9  and  C_10 
REMARK    6  A    between atoms: N_15  and  C_14 
REMARK    7  A    between atoms: N_20  and  C_19 
REMARK       I    between atoms: C_22  and  N_20 
ROOT
ATOM      1  C   LIG d   1      -6.715  81.033 120.187  0.00  0.00     0.161 C 
ATOM      2  C   LIG d   1      -7.674  80.589 119.261  0.00  0.00     0.016 C 
ATOM      3  C   LIG d   1      -8.897  81.260 119.026  0.00  0.00     0.038 C 
ATOM      4  C   LIG d   1      -9.178  82.511 119.595  0.00  0.00     0.028 C 
ATOM      5  C   LIG d   1      -8.461  82.748 120.920  0.00  0.00    -0.047 C 
ATOM      6  C   LIG d   1      -6.955  82.455 120.735  0.00  0.00     0.091 C 
ENDROOT
BRANCH   1   7
ATOM      7  O   LIG d   1      -5.398  80.934 119.610  0.00  0.00    -0.368 OA
BRANCH   7   8
ATOM      8  C   LIG d   1      -4.538  79.904 120.158  0.00  0.00     0.119 C 
BRANCH   8   9
ATOM      9  C   LIG d   1      -3.094  80.439 120.123  0.00  0.00     0.028 C 
ATOM     10  C   LIG d   1      -3.029  81.966 120.295  0.00  0.00     0.006 C 
ENDBRANCH   8   9
BRANCH   8  11
ATOM     11  C   LIG d   1      -4.530  78.655 119.271  0.00  0.00     0.028 C 
ATOM     12  C   LIG d   1      -4.654  78.986 117.775  0.00  0.00     0.006 C 
ENDBRANCH   8  11
ENDBRANCH   7   8
ENDBRANCH   1   7
BRANCH   6  13
ATOM     13  N   LIG d   1      -6.193  82.581 122.005  0.00  0.00    -0.311 N 
ATOM     14  C   LIG d   1      -5.542  83.687 122.363  0.00  0.00     0.210 C 
ATOM     15  C   LIG d   1      -4.804  83.598 123.702  0.00  0.00     0.109 C 
ATOM     16  O   LIG d   1      -5.532  84.743 121.713  0.00  0.00    -0.276 OA
ATOM     17  H   LIG d   1      -6.175  81.782 122.608  0.00  0.00     0.149 HD
ENDBRANCH   6  13
BRANCH   5  18
ATOM     18  N   LIG d   1      -8.734  84.138 121.331  0.00  0.00     0.381 N 
ATOM     19  H   LIG d   1      -7.890  84.675 121.291  0.00  0.00    -0.090 HD
ATOM     20  H   LIG d   1      -9.063  84.138 122.281  0.00  0.00    -0.090 HD
ATOM     21  H   LIG d   1      -9.421  84.542 120.734  0.00  0.00    -0.090 HD
ENDBRANCH   5  18
BRANCH   3  22
ATOM     22  C   LIG d   1      -9.871  80.658 118.243  0.00  0.00     0.382 C 
ATOM     23  O   LIG d   1     -10.015  79.412 118.269  0.00  0.00    -0.241 OA
ATOM     24  O   LIG d   1     -10.577  81.342 117.478  0.00  0.00    -0.241 OA
ENDBRANCH   3  22
TORSDOF 7
ENDMDL
MODEL 4
REMARK VINA RESULT:      -4.2      2.441      4.544
REMARK  7 active torsions:
REMARK  status: ('A' for Active; 'I' for Inactive)
REMARK    1  A    between atoms: C_2  and  C_3 
REMARK    2  A    between atoms: C_3  and  O_6 
REMARK    3  A    between atoms: C_3  and  C_4 
REMARK    4  A    between atoms: C_7  and  O_6 
REMARK    5  A    between atoms: C_9  and  C_10 
REMARK    6  A    between atoms: N_15  and  C_14 
REMARK    7  A    between atoms: N_20  and  C_19 
REMARK       I    between atoms: C_22  and  N_20 
ROOT
ATOM      1  C   LIG d   1      -4.035  92.819 119.051  0.00  0.00     0.161 C 
ATOM      2  C   LIG d   1      -3.118  91.882 118.548  0.00  0.00     0.016 C 
ATOM      3  C   LIG d   1      -3.502  90.720 117.840  0.00  0.00     0.038 C 
ATOM      4  C   LIG d   1      -4.831  90.492 117.453  0.00  0.00     0.028 C 
ATOM      5  C   LIG d   1      -5.851  91.154 118.373  0.00  0.00    -0.047 C 
ATOM      6  C   LIG d   1      -5.481  92.645 118.542  0.00  0.00     0.091 C 
ENDROOT
BRANCH   1   7
ATOM      7  O   LIG d   1      -3.566  94.155 118.781  0.00  0.00    -0.368 OA
BRANCH   7   8
ATOM      8  C   LIG d   1      -2.833  94.802 119.850  0.00  0.00     0.119 C 
BRANCH   8   9
ATOM      9  C   LIG d   1      -3.799  95.780 120.547  0.00  0.00     0.028 C 
ATOM     10  C   LIG d   1      -4.664  96.564 119.545  0.00  0.00     0.006 C 
ENDBRANCH   8   9
BRANCH   8  11
ATOM     11  C   LIG d   1      -1.699  95.672 119.302  0.00  0.00     0.028 C 
ATOM     12  C   LIG d   1      -1.141  95.152 117.968  0.00  0.00     0.006 C 
ENDBRANCH   8  11
ENDBRANCH   7   8
ENDBRANCH   1   7
BRANCH   6  13
ATOM     13  N   LIG d   1      -6.380  93.347 119.495  0.00  0.00    -0.311 N 
ATOM     14  C   LIG d   1      -7.498  93.971 119.125  0.00  0.00     0.210 C 
ATOM     15  C   LIG d   1      -8.268  94.648 120.263  0.00  0.00     0.109 C 
ATOM     16  O   LIG d   1      -7.941  94.000 117.967  0.00  0.00    -0.276 OA
ATOM     17  H   LIG d   1      -6.113  93.347 120.460  0.00  0.00     0.149 HD
ENDBRANCH   6  13
BRANCH   5  18
ATOM     18  N   LIG d   1      -7.185  90.953 117.777  0.00  0.00     0.381 N 
ATOM     19  H   LIG d   1      -7.319  89.984 117.565  0.00  0.00    -0.090 HD
ATOM     20  H   LIG d   1      -7.240  91.474 116.920  0.00  0.00    -0.090 HD
ATOM     21  H   LIG d   1      -7.891  91.262 118.409  0.00  0.00    -0.090 HD
ENDBRANCH   5  18
BRANCH   3  22
ATOM     22  C   LIG d   1      -2.555  89.750 117.546  0.00  0.00     0.382 C 
ATOM     23  O   LIG d   1      -2.904  88.551 117.420  0.00  0.00    -0.241 OA
ATOM     24  O   LIG d   1      -1.351  90.051 117.448  0.00  0.00    -0.241 OA
ENDBRANCH   3  22
TORSDOF 7
ENDMDL
MODEL 5
REMARK VINA RESULT:      -4.2      9.879     12.091
REMARK  7 active torsions:
REMARK  status: ('A' for Active; 'I' for Inactive)
REMARK    1  A    between atoms: C_2  and  C_3 
REMARK    2  A    between atoms: C_3  and  O_6 
REMARK    3  A    between atoms: C_3  and  C_4 
REMARK    4  A    between atoms: C_7  and  O_6 
REMARK    5  A    between atoms: C_9  and  C_10 
REMARK    6  A    between atoms: N_15  and  C_14 
REMARK    7  A    between atoms: N_20  and  C_19 
REMARK       I    between atoms: C_22  and  N_20 
ROOT
ATOM      1  C   LIG d   1      -6.836  82.243 120.934  0.00  0.00     0.161 C 
ATOM      2  C   LIG d   1      -7.094  81.358 119.874  0.00  0.00     0.016 C 
ATOM      3  C   LIG d   1      -8.383  81.144 119.335  0.00  0.00     0.038 C 
ATOM      4  C   LIG d   1      -9.486  81.920 119.721  0.00  0.00     0.028 C 
ATOM      5  C   LIG d   1      -9.373  82.470 121.139  0.00  0.00    -0.047 C 
ATOM      6  C   LIG d   1      -8.008  83.180 121.294  0.00  0.00     0.091 C 
ENDROOT
BRANCH   1   7
ATOM      7  O   LIG d   1      -5.649  83.011 120.651  0.00  0.00    -0.368 OA
BRANCH   7   8
ATOM      8  C   LIG d   1      -4.434  82.570 121.305  0.00  0.00     0.119 C 
BRANCH   8   9
ATOM      9  C   LIG d   1      -3.709  83.824 121.830  0.00  0.00     0.028 C 
ATOM     10  C   LIG d   1      -4.576  85.090 121.724  0.00  0.00     0.006 C 
ENDBRANCH   8   9
BRANCH   8  11
ATOM     11  C   LIG d   1      -3.465  81.930 120.306  0.00  0.00     0.028 C 
ATOM     12  C   LIG d   1      -2.134  82.690 120.197  0.00  0.00     0.006 C 
ENDBRANCH   8  11
ENDBRANCH   7   8
ENDBRANCH   1   7
BRANCH   6  13
ATOM     13  N   LIG d   1      -7.780  83.674 122.677  0.00  0.00    -0.311 N 
ATOM     14  C   LIG d   1      -8.085  84.908 123.074  0.00  0.00     0.210 C 
ATOM     15  C   LIG d   1      -7.749  85.219 124.536  0.00  0.00     0.109 C 
ATOM     16  O   LIG d   1      -8.631  85.765 122.363  0.00  0.00    -0.276 OA
ATOM     17  H   LIG d   1      -7.369  83.034 123.328  0.00  0.00     0.149 HD
ENDBRANCH   6  13
BRANCH   5  18
ATOM     18  N   LIG d   1     -10.520  83.370 121.361  0.00  0.00     0.381 N 
ATOM     19  H   LIG d   1     -11.150  82.959 122.021  0.00  0.00    -0.090 HD
ATOM     20  H   LIG d   1     -11.010  83.493 120.492  0.00  0.00    -0.090 HD
ATOM     21  H   LIG d   1     -10.202  84.252 121.700  0.00  0.00    -0.090 HD
ENDBRANCH   5  18
BRANCH   3  22
ATOM     22  C   LIG d   1      -8.587  80.118 118.425  0.00  0.00     0.382 C 
ATOM     23  O   LIG d   1      -9.700  79.542 118.369  0.00  0.00    -0.241 OA
ATOM     24  O   LIG d   1      -7.658  79.731 117.691  0.00  0.00    -0.241 OA
ENDBRANCH   3  22
TORSDOF 7
ENDMDL
MODEL 6
REMARK VINA RESULT:      -4.2      2.187      4.499
REMARK  7 active torsions:
REMARK  status: ('A' for Active; 'I' for Inactive)
REMARK    1  A    between atoms: C_2  and  C_3 
REMARK    2  A    between atoms: C_3  and  O_6 
REMARK    3  A    between atoms: C_3  and  C_4 
REMARK    4  A    between atoms: C_7  and  O_6 
REMARK    5  A    between atoms: C_9  and  C_10 
REMARK    6  A    between atoms: N_15  and  C_14 
REMARK    7  A    between atoms: N_20  and  C_19 
REMARK       I    between atoms: C_22  and  N_20 
ROOT
ATOM      1  C   LIG d   1      -4.163  92.936 119.667  0.00  0.00     0.161 C 
ATOM      2  C   LIG d   1      -4.707  91.871 118.931  0.00  0.00     0.016 C 
ATOM      3  C   LIG d   1      -5.783  92.020 118.025  0.00  0.00     0.038 C 
ATOM      4  C   LIG d   1      -6.291  93.281 117.680  0.00  0.00     0.028 C 
ATOM      5  C   LIG d   1      -6.111  94.327 118.775  0.00  0.00    -0.047 C 
ATOM      6  C   LIG d   1      -4.632  94.337 119.221  0.00  0.00     0.091 C 
ENDROOT
BRANCH   1   7
ATOM      7  O   LIG d   1      -2.724  92.859 119.647  0.00  0.00    -0.368 OA
BRANCH   7   8
ATOM      8  C   LIG d   1      -2.113  92.682 118.346  0.00  0.00     0.119 C 
BRANCH   8   9
ATOM      9  C   LIG d   1      -1.073  91.553 118.472  0.00  0.00     0.028 C 
ATOM     10  C   LIG d   1      -1.340  90.396 117.494  0.00  0.00     0.006 C 
ENDBRANCH   8   9
BRANCH   8  11
ATOM     11  C   LIG d   1      -1.317  93.923 117.931  0.00  0.00     0.028 C 
ATOM     12  C   LIG d   1      -0.530  94.543 119.097  0.00  0.00     0.006 C 
ENDBRANCH   8  11
ENDBRANCH   7   8
ENDBRANCH   1   7
BRANCH   6  13
ATOM     13  N   LIG d   1      -4.386  95.273 120.348  0.00  0.00    -0.311 N 
ATOM     14  C   LIG d   1      -3.696  96.406 120.223  0.00  0.00     0.210 C 
ATOM     15  C   LIG d   1      -3.543  97.216 121.515  0.00  0.00     0.109 C 
ATOM     16  O   LIG d   1      -3.225  96.833 119.159  0.00  0.00    -0.276 OA
ATOM     17  H   LIG d   1      -4.760  95.020 121.242  0.00  0.00     0.149 HD
ENDBRANCH   6  13
BRANCH   5  18
ATOM     18  N   LIG d   1      -6.559  95.623 118.231  0.00  0.00     0.381 N 
ATOM     19  H   LIG d   1      -6.712  96.270 118.978  0.00  0.00    -0.090 HD
ATOM     20  H   LIG d   1      -7.430  95.489 117.747  0.00  0.00    -0.090 HD
ATOM     21  H   LIG d   1      -5.875  95.985 117.604  0.00  0.00    -0.090 HD
ENDBRANCH   5  18
BRANCH   3  22
ATOM     22  C   LIG d   1      -6.387  90.895 117.484  0.00  0.00     0.382 C 
ATOM     23  O   LIG d   1      -5.707  89.866 117.256  0.00  0.00    -0.241 OA
ATOM     24  O   LIG d   1      -7.595  90.912 117.181  0.00  0.00    -0.241 OA
ENDBRANCH   3  22
TORSDOF 7
ENDMDL
MODEL 7
REMARK VINA RESULT:      -4.1      3.627      6.205
REMARK  7 active torsions:
REMARK  status: ('A' for Active; 'I' for Inactive)
REMARK    1  A    between atoms: C_2  and  C_3 
REMARK    2  A    between atoms: C_3  and  O_6 
REMARK    3  A    between atoms: C_3  and  C_4 
REMARK    4  A    between atoms: C_7  and  O_6 
REMARK    5  A    between atoms: C_9  and  C_10 
REMARK    6  A    between atoms: N_15  and  C_14 
REMARK    7  A    between atoms: N_20  and  C_19 
REMARK       I    between atoms: C_22  and  N_20 
ROOT
ATOM      1  C   LIG d   1      -2.691  90.611 118.401  0.00  0.00     0.161 C 
ATOM      2  C   LIG d   1      -3.997  90.320 117.974  0.00  0.00     0.016 C 
ATOM      3  C   LIG d   1      -4.961  91.313 117.684  0.00  0.00     0.038 C 
ATOM      4  C   LIG d   1      -4.635  92.677 117.658  0.00  0.00     0.028 C 
ATOM      5  C   LIG d   1      -3.469  93.039 118.571  0.00  0.00    -0.047 C 
ATOM      6  C   LIG d   1      -2.283  92.093 118.270  0.00  0.00     0.091 C 
ENDROOT
BRANCH   1   7
ATOM      7  O   LIG d   1      -1.750  89.769 117.705  0.00  0.00    -0.368 OA
BRANCH   7   8
ATOM      8  C   LIG d   1      -1.833  88.351 117.988  0.00  0.00     0.119 C 
BRANCH   8   9
ATOM      9  C   LIG d   1      -1.504  88.157 119.481  0.00  0.00     0.028 C 
ATOM     10  C   LIG d   1      -2.567  87.321 120.213  0.00  0.00     0.006 C 
ENDBRANCH   8   9
BRANCH   8  11
ATOM     11  C   LIG d   1      -0.757  87.568 117.231  0.00  0.00     0.028 C 
ATOM     12  C   LIG d   1       0.493  87.296 118.083  0.00  0.00     0.006 C 
ENDBRANCH   8  11
ENDBRANCH   7   8
ENDBRANCH   1   7
BRANCH   6  13
ATOM     13  N   LIG d   1      -1.129  92.324 119.178  0.00  0.00    -0.311 N 
ATOM     14  C   LIG d   1       0.050  92.782 118.762  0.00  0.00     0.210 C 
ATOM     15  C   LIG d   1       1.110  92.928 119.859  0.00  0.00     0.109 C 
ATOM     16  O   LIG d   1       0.310  93.110 117.595  0.00  0.00    -0.276 OA
ATOM     17  H   LIG d   1      -1.263  92.113 120.148  0.00  0.00     0.149 HD
ENDBRANCH   6  13
BRANCH   5  18
ATOM     18  N   LIG d   1      -3.147  94.460 118.341  0.00  0.00     0.381 N 
ATOM     19  H   LIG d   1      -2.620  94.817 119.113  0.00  0.00    -0.090 HD
ATOM     20  H   LIG d   1      -4.004  94.981 118.276  0.00  0.00    -0.090 HD
ATOM     21  H   LIG d   1      -2.625  94.560 117.499  0.00  0.00    -0.090 HD
ENDBRANCH   5  18
BRANCH   3  22
ATOM     22  C   LIG d   1      -6.279  90.946 117.457  0.00  0.00     0.382 C 
ATOM     23  O   LIG d   1      -7.195  91.796 117.573  0.00  0.00    -0.241 OA
ATOM     24  O   LIG d   1      -6.567  89.767 117.180  0.00  0.00    -0.241 OA
ENDBRANCH   3  22
TORSDOF 7
ENDMDL
MODEL 8
REMARK VINA RESULT:      -4.1     19.817     22.392
REMARK  7 active torsions:
REMARK  status: ('A' for Active; 'I' for Inactive)
REMARK    1  A    between atoms: C_2  and  C_3 
REMARK    2  A    between atoms: C_3  and  O_6 
REMARK    3  A    between atoms: C_3  and  C_4 
REMARK    4  A    between atoms: C_7  and  O_6 
REMARK    5  A    between atoms: C_9  and  C_10 
REMARK    6  A    between atoms: N_15  and  C_14 
REMARK    7  A    between atoms: N_20  and  C_19 
REMARK       I    between atoms: C_22  and  N_20 
ROOT
ATOM      1  C   LIG d   1     -18.391  77.048 119.796  0.00  0.00     0.161 C 
ATOM      2  C   LIG d   1     -19.297  78.092 120.050  0.00  0.00     0.016 C 
ATOM      3  C   LIG d   1     -20.701  77.923 120.040  0.00  0.00     0.038 C 
ATOM      4  C   LIG d   1     -21.295  76.657 119.925  0.00  0.00     0.028 C 
ATOM      5  C   LIG d   1     -20.436  75.652 119.164  0.00  0.00    -0.047 C 
ATOM      6  C   LIG d   1     -19.017  75.638 119.778  0.00  0.00     0.091 C 
ENDROOT
BRANCH   1   7
ATOM      7  O   LIG d   1     -17.306  77.102 120.744  0.00  0.00    -0.368 OA
BRANCH   7   8
ATOM      8  C   LIG d   1     -17.537  76.448 122.015  0.00  0.00     0.119 C 
BRANCH   8   9
ATOM      9  C   LIG d   1     -17.453  77.527 123.113  0.00  0.00     0.028 C 
ATOM     10  C   LIG d   1     -16.576  78.720 122.697  0.00  0.00     0.006 C 
ENDBRANCH   8   9
BRANCH   8  11
ATOM     11  C   LIG d   1     -16.421  75.451 122.340  0.00  0.00     0.028 C 
ATOM     12  C   LIG d   1     -15.303  75.444 121.285  0.00  0.00     0.006 C 
ENDBRANCH   8  11
ENDBRANCH   7   8
ENDBRANCH   1   7
BRANCH   6  13
ATOM     13  N   LIG d   1     -18.089  74.743 119.039  0.00  0.00    -0.311 N 
ATOM     14  C   LIG d   1     -17.825  73.492 119.412  0.00  0.00     0.210 C 
ATOM     15  C   LIG d   1     -16.824  72.750 118.521  0.00  0.00     0.109 C 
ATOM     16  O   LIG d   1     -18.349  72.916 120.377  0.00  0.00    -0.276 OA
ATOM     17  H   LIG d   1     -17.643  75.120 118.226  0.00  0.00     0.149 HD
ENDBRANCH   6  13
BRANCH   5  18
ATOM     18  N   LIG d   1     -21.111  74.343 119.238  0.00  0.00     0.381 N 
ATOM     19  H   LIG d   1     -20.929  73.821 118.404  0.00  0.00    -0.090 HD
ATOM     20  H   LIG d   1     -22.102  74.492 119.306  0.00  0.00    -0.090 HD
ATOM     21  H   LIG d   1     -20.788  73.837 120.033  0.00  0.00    -0.090 HD
ENDBRANCH   5  18
BRANCH   3  22
ATOM     22  C   LIG d   1     -21.527  79.034 120.108  0.00  0.00     0.382 C 
ATOM     23  O   LIG d   1     -21.028  80.182 120.199  0.00  0.00    -0.241 OA
ATOM     24  O   LIG d   1     -22.766  78.901 120.123  0.00  0.00    -0.241 OA
ENDBRANCH   3  22
TORSDOF 7
ENDMDL
MODEL 9
REMARK VINA RESULT:      -4.1     20.679     23.022
REMARK  7 active torsions:
REMARK  status: ('A' for Active; 'I' for Inactive)
REMARK    1  A    between atoms: C_2  and  C_3 
REMARK    2  A    between atoms: C_3  and  O_6 
REMARK    3  A    between atoms: C_3  and  C_4 
REMARK    4  A    between atoms: C_7  and  O_6 
REMARK    5  A    between atoms: C_9  and  C_10 
REMARK    6  A    between atoms: N_15  and  C_14 
REMARK    7  A    between atoms: N_20  and  C_19 
REMARK       I    between atoms: C_22  and  N_20 
ROOT
ATOM      1  C   LIG d   1     -19.196  75.294 120.584  0.00  0.00     0.161 C 
ATOM      2  C   LIG d   1     -20.471  75.732 120.187  0.00  0.00     0.016 C 
ATOM      3  C   LIG d   1     -20.806  77.094 120.013  0.00  0.00     0.038 C 
ATOM      4  C   LIG d   1     -19.841  78.110 120.079  0.00  0.00     0.028 C 
ATOM      5  C   LIG d   1     -18.655  77.761 120.972  0.00  0.00    -0.047 C 
ATOM      6  C   LIG d   1     -18.101  76.380 120.553  0.00  0.00     0.091 C 
ENDROOT
BRANCH   1   7
ATOM      7  O   LIG d   1     -18.800  74.159 119.790  0.00  0.00    -0.368 OA
BRANCH   7   8
ATOM      8  C   LIG d   1     -18.727  72.889 120.483  0.00  0.00     0.119 C 
BRANCH   8   9
ATOM      9  C   LIG d   1     -17.315  72.317 120.255  0.00  0.00     0.028 C 
ATOM     10  C   LIG d   1     -16.801  72.575 118.828  0.00  0.00     0.006 C 
ENDBRANCH   8   9
BRANCH   8  11
ATOM     11  C   LIG d   1     -19.684  71.863 119.870  0.00  0.00     0.028 C 
ATOM     12  C   LIG d   1     -21.129  72.024 120.369  0.00  0.00     0.006 C 
ENDBRANCH   8  11
ENDBRANCH   7   8
ENDBRANCH   1   7
BRANCH   6  13
ATOM     13  N   LIG d   1     -16.991  75.925 121.431  0.00  0.00    -0.311 N 
ATOM     14  C   LIG d   1     -15.789  75.579 120.974  0.00  0.00     0.210 C 
ATOM     15  C   LIG d   1     -14.796  75.120 122.047  0.00  0.00     0.109 C 
ATOM     16  O   LIG d   1     -15.440  75.641 119.785  0.00  0.00    -0.276 OA
ATOM     17  H   LIG d   1     -17.178  75.875 122.414  0.00  0.00     0.149 HD
ENDBRANCH   6  13
BRANCH   5  18
ATOM     18  N   LIG d   1     -17.664  78.845 120.841  0.00  0.00     0.381 N 
ATOM     19  H   LIG d   1     -17.556  79.314 121.718  0.00  0.00    -0.090 HD
ATOM     20  H   LIG d   1     -17.998  79.512 120.167  0.00  0.00    -0.090 HD
ATOM     21  H   LIG d   1     -16.788  78.474 120.544  0.00  0.00    -0.090 HD
ENDBRANCH   5  18
BRANCH   3  22
ATOM     22  C   LIG d   1     -22.129  77.455 119.808  0.00  0.00     0.382 C 
ATOM     23  O   LIG d   1     -23.019  76.572 119.755  0.00  0.00    -0.241 OA
ATOM     24  O   LIG d   1     -22.438  78.649 119.633  0.00  0.00    -0.241 OA
ENDBRANCH   3  22
TORSDOF 7
ENDMDL
