MODEL 1
REMARK VINA RESULT:      -6.0      0.000      0.000
REMARK  7 active torsions:
REMARK  status: ('A' for Active; 'I' for Inactive)
REMARK    1  A    between atoms: C_2  and  C_3 
REMARK    2  A    between atoms: C_3  and  O_6 
REMARK    3  A    between atoms: C_3  and  C_4 
REMARK    4  A    between atoms: C_7  and  O_6 
REMARK    5  A    between atoms: C_9  and  C_10 
REMARK    6  A    between atoms: N_15  and  C_14 
REMARK    7  A    between atoms: N_20  and  C_19 
REMARK       I    between atoms: C_22  and  N_20 
ROOT
ATOM      1  C   LIG d   1      -4.529  91.002 116.766  0.00  0.00     0.161 C 
ATOM      2  C   LIG d   1      -3.374  90.205 116.708  0.00  0.00     0.016 C 
ATOM      3  C   LIG d   1      -2.194  90.489 117.434  0.00  0.00     0.038 C 
ATOM      4  C   LIG d   1      -2.142  91.514 118.391  0.00  0.00     0.028 C 
ATOM      5  C   LIG d   1      -3.118  92.652 118.114  0.00  0.00    -0.047 C 
ATOM      6  C   LIG d   1      -4.528  92.060 117.889  0.00  0.00     0.091 C 
ENDROOT
BRANCH   1   7
ATOM      7  O   LIG d   1      -5.697  90.163 116.869  0.00  0.00    -0.368 OA
BRANCH   7   8
ATOM      8  C   LIG d   1      -6.497  90.035 115.668  0.00  0.00     0.119 C 
BRANCH   8   9
ATOM      9  C   LIG d   1      -6.061  91.152 114.700  0.00  0.00     0.028 C 
ATOM     10  C   LIG d   1      -7.198  92.141 114.393  0.00  0.00     0.006 C 
ENDBRANCH   8   9
BRANCH   8  11
ATOM     11  C   LIG d   1      -7.978  90.303 115.954  0.00  0.00     0.028 C 
ATOM     12  C   LIG d   1      -8.729  89.048 116.426  0.00  0.00     0.006 C 
ENDBRANCH   8  11
ENDBRANCH   7   8
ENDBRANCH   1   7
BRANCH   6  13
ATOM     13  N   LIG d   1      -5.528  93.099 117.529  0.00  0.00    -0.311 N 
ATOM     14  C   LIG d   1      -6.754  93.147 118.046  0.00  0.00     0.210 C 
ATOM     15  C   LIG d   1      -7.633  94.288 117.523  0.00  0.00     0.109 C 
ATOM     16  O   LIG d   1      -7.187  92.373 118.912  0.00  0.00    -0.276 OA
ATOM     17  H   LIG d   1      -5.250  93.786 116.856  0.00  0.00     0.149 HD
ENDBRANCH   6  13
BRANCH   5  18
ATOM     18  N   LIG d   1      -3.056  93.581 119.258  0.00  0.00     0.381 N 
ATOM     19  H   LIG d   1      -3.349  93.111 120.091  0.00  0.00    -0.090 HD
ATOM     20  H   LIG d   1      -3.684  94.346 119.089  0.00  0.00    -0.090 HD
ATOM     21  H   LIG d   1      -2.127  93.922 119.370  0.00  0.00    -0.090 HD
ENDBRANCH   5  18
BRANCH   3  22
ATOM     22  C   LIG d   1      -1.038  89.769 117.176  0.00  0.00     0.382 C 
ATOM     23  O   LIG d   1      -1.021  88.526 117.352  0.00  0.00    -0.241 OA
ATOM     24  O   LIG d   1       0.001  90.351 116.812  0.00  0.00    -0.241 OA
ENDBRANCH   3  22
TORSDOF 7
ENDMDL
MODEL 2
REMARK VINA RESULT:      -5.6     31.498     32.756
REMARK  7 active torsions:
REMARK  status: ('A' for Active; 'I' for Inactive)
REMARK    1  A    between atoms: C_2  and  C_3 
REMARK    2  A    between atoms: C_3  and  O_6 
REMARK    3  A    between atoms: C_3  and  C_4 
REMARK    4  A    between atoms: C_7  and  O_6 
REMARK    5  A    between atoms: C_9  and  C_10 
REMARK    6  A    between atoms: N_15  and  C_14 
REMARK    7  A    between atoms: N_20  and  C_19 
REMARK       I    between atoms: C_22  and  N_20 
ROOT
ATOM      1  C   LIG d   1      -1.339  58.822 118.020  0.00  0.00     0.161 C 
ATOM      2  C   LIG d   1      -2.524  58.947 117.277  0.00  0.00     0.016 C 
ATOM      3  C   LIG d   1      -3.738  59.427 117.821  0.00  0.00     0.038 C 
ATOM      4  C   LIG d   1      -3.809  59.959 119.117  0.00  0.00     0.028 C 
ATOM      5  C   LIG d   1      -2.762  59.387 120.066  0.00  0.00    -0.047 C 
ATOM      6  C   LIG d   1      -1.369  59.502 119.405  0.00  0.00     0.091 C 
ENDROOT
BRANCH   1   7
ATOM      7  O   LIG d   1      -0.223  59.308 117.248  0.00  0.00    -0.368 OA
BRANCH   7   8
ATOM      8  C   LIG d   1       0.401  58.351 116.358  0.00  0.00     0.119 C 
BRANCH   8   9
ATOM      9  C   LIG d   1       1.267  57.412 117.220  0.00  0.00     0.028 C 
ATOM     10  C   LIG d   1       2.393  58.161 117.952  0.00  0.00     0.006 C 
ENDBRANCH   8   9
BRANCH   8  11
ATOM     11  C   LIG d   1       1.378  59.036 115.399  0.00  0.00     0.028 C 
ATOM     12  C   LIG d   1       0.716  59.470 114.082  0.00  0.00     0.006 C 
ENDBRANCH   8  11
ENDBRANCH   7   8
ENDBRANCH   1   7
BRANCH   6  13
ATOM     13  N   LIG d   1      -0.297  58.888 120.231  0.00  0.00    -0.311 N 
ATOM     14  C   LIG d   1       0.389  59.558 121.156  0.00  0.00     0.210 C 
ATOM     15  C   LIG d   1       1.464  58.741 121.880  0.00  0.00     0.109 C 
ATOM     16  O   LIG d   1       0.188  60.741 121.468  0.00  0.00    -0.276 OA
ATOM     17  H   LIG d   1      -0.090  57.923 120.066  0.00  0.00     0.149 HD
ENDBRANCH   6  13
BRANCH   5  18
ATOM     18  N   LIG d   1      -2.861  60.127 121.338  0.00  0.00     0.381 N 
ATOM     19  H   LIG d   1      -1.964  60.163 121.780  0.00  0.00    -0.090 HD
ATOM     20  H   LIG d   1      -3.494  59.641 121.949  0.00  0.00    -0.090 HD
ATOM     21  H   LIG d   1      -3.194  61.051 121.170  0.00  0.00    -0.090 HD
ENDBRANCH   5  18
BRANCH   3  22
ATOM     22  C   LIG d   1      -4.906  59.339 117.079  0.00  0.00     0.382 C 
ATOM     23  O   LIG d   1      -5.043  60.031 116.042  0.00  0.00    -0.241 OA
ATOM     24  O   LIG d   1      -5.842  58.609 117.458  0.00  0.00    -0.241 OA
ENDBRANCH   3  22
TORSDOF 7
ENDMDL
MODEL 3
REMARK VINA RESULT:      -5.5     14.965     16.899
REMARK  7 active torsions:
REMARK  status: ('A' for Active; 'I' for Inactive)
REMARK    1  A    between atoms: C_2  and  C_3 
REMARK    2  A    between atoms: C_3  and  O_6 
REMARK    3  A    between atoms: C_3  and  C_4 
REMARK    4  A    between atoms: C_7  and  O_6 
REMARK    5  A    between atoms: C_9  and  C_10 
REMARK    6  A    between atoms: N_15  and  C_14 
REMARK    7  A    between atoms: N_20  and  C_19 
REMARK       I    between atoms: C_22  and  N_20 
ROOT
ATOM      1  C   LIG d   1      -2.105  74.762 115.648  0.00  0.00     0.161 C 
ATOM      2  C   LIG d   1      -2.632  75.643 116.607  0.00  0.00     0.016 C 
ATOM      3  C   LIG d   1      -1.868  76.647 117.244  0.00  0.00     0.038 C 
ATOM      4  C   LIG d   1      -0.553  76.938 116.853  0.00  0.00     0.028 C 
ATOM      5  C   LIG d   1       0.176  75.745 116.245  0.00  0.00    -0.047 C 
ATOM      6  C   LIG d   1      -0.702  75.137 115.128  0.00  0.00     0.091 C 
ENDROOT
BRANCH   1   7
ATOM      7  O   LIG d   1      -3.028  74.627 114.549  0.00  0.00    -0.368 OA
BRANCH   7   8
ATOM      8  C   LIG d   1      -4.432  74.769 114.874  0.00  0.00     0.119 C 
BRANCH   8   9
ATOM      9  C   LIG d   1      -5.067  73.366 114.811  0.00  0.00     0.028 C 
ATOM     10  C   LIG d   1      -5.603  72.903 116.176  0.00  0.00     0.006 C 
ENDBRANCH   8   9
BRANCH   8  11
ATOM     11  C   LIG d   1      -5.169  75.595 113.815  0.00  0.00     0.028 C 
ATOM     12  C   LIG d   1      -6.453  76.246 114.354  0.00  0.00     0.006 C 
ENDBRANCH   8  11
ENDBRANCH   7   8
ENDBRANCH   1   7
BRANCH   6  13
ATOM     13  N   LIG d   1      -0.100  73.913 114.537  0.00  0.00    -0.311 N 
ATOM     14  C   LIG d   1       0.225  73.804 113.250  0.00  0.00     0.210 C 
ATOM     15  C   LIG d   1       0.814  72.449 112.844  0.00  0.00     0.109 C 
ATOM     16  O   LIG d   1       0.110  74.711 112.412  0.00  0.00    -0.276 OA
ATOM     17  H   LIG d   1       0.057  73.139 115.152  0.00  0.00     0.149 HD
ENDBRANCH   6  13
BRANCH   5  18
ATOM     18  N   LIG d   1       1.484  76.224 115.757  0.00  0.00     0.381 N 
ATOM     19  H   LIG d   1       1.438  77.206 115.574  0.00  0.00    -0.090 HD
ATOM     20  H   LIG d   1       1.702  75.752 114.896  0.00  0.00    -0.090 HD
ATOM     21  H   LIG d   1       2.190  76.037 116.434  0.00  0.00    -0.090 HD
ENDBRANCH   5  18
BRANCH   3  22
ATOM     22  C   LIG d   1      -2.407  77.346 118.314  0.00  0.00     0.382 C 
ATOM     23  O   LIG d   1      -1.836  78.379 118.739  0.00  0.00    -0.241 OA
ATOM     24  O   LIG d   1      -3.433  76.932 118.886  0.00  0.00    -0.241 OA
ENDBRANCH   3  22
TORSDOF 7
ENDMDL
MODEL 4
REMARK VINA RESULT:      -5.5     32.103     33.547
REMARK  7 active torsions:
REMARK  status: ('A' for Active; 'I' for Inactive)
REMARK    1  A    between atoms: C_2  and  C_3 
REMARK    2  A    between atoms: C_3  and  O_6 
REMARK    3  A    between atoms: C_3  and  C_4 
REMARK    4  A    between atoms: C_7  and  O_6 
REMARK    5  A    between atoms: C_9  and  C_10 
REMARK    6  A    between atoms: N_15  and  C_14 
REMARK    7  A    between atoms: N_20  and  C_19 
REMARK       I    between atoms: C_22  and  N_20 
ROOT
ATOM      1  C   LIG d   1      -0.679  58.721 118.115  0.00  0.00     0.161 C 
ATOM      2  C   LIG d   1      -0.507  59.066 116.764  0.00  0.00     0.016 C 
ATOM      3  C   LIG d   1       0.538  58.558 115.958  0.00  0.00     0.038 C 
ATOM      4  C   LIG d   1       1.398  57.547 116.410  0.00  0.00     0.028 C 
ATOM      5  C   LIG d   1       1.577  57.535 117.925  0.00  0.00    -0.047 C 
ATOM      6  C   LIG d   1       0.183  57.534 118.594  0.00  0.00     0.091 C 
ENDROOT
BRANCH   1   7
ATOM      7  O   LIG d   1      -2.072  58.467 118.381  0.00  0.00    -0.368 OA
BRANCH   7   8
ATOM      8  C   LIG d   1      -2.845  59.594 118.863  0.00  0.00     0.119 C 
BRANCH   8   9
ATOM      9  C   LIG d   1      -3.051  59.399 120.378  0.00  0.00     0.028 C 
ATOM     10  C   LIG d   1      -1.997  60.144 121.214  0.00  0.00     0.006 C 
ENDBRANCH   8   9
BRANCH   8  11
ATOM     11  C   LIG d   1      -4.253  59.604 118.260  0.00  0.00     0.028 C 
ATOM     12  C   LIG d   1      -4.252  59.364 116.742  0.00  0.00     0.006 C 
ENDBRANCH   8  11
ENDBRANCH   7   8
ENDBRANCH   1   7
BRANCH   6  13
ATOM     13  N   LIG d   1       0.266  57.608 120.076  0.00  0.00    -0.311 N 
ATOM     14  C   LIG d   1       0.274  56.535 120.864  0.00  0.00     0.210 C 
ATOM     15  C   LIG d   1       0.345  56.835 122.365  0.00  0.00     0.109 C 
ATOM     16  O   LIG d   1       0.262  55.362 120.462  0.00  0.00    -0.276 OA
ATOM     17  H   LIG d   1       0.311  58.521 120.486  0.00  0.00     0.149 HD
ENDBRANCH   6  13
BRANCH   5  18
ATOM     18  N   LIG d   1       2.385  56.350 118.270  0.00  0.00     0.381 N 
ATOM     19  H   LIG d   1       2.083  55.565 117.727  0.00  0.00    -0.090 HD
ATOM     20  H   LIG d   1       2.246  56.134 119.241  0.00  0.00    -0.090 HD
ATOM     21  H   LIG d   1       3.349  56.532 118.096  0.00  0.00    -0.090 HD
ENDBRANCH   5  18
BRANCH   3  22
ATOM     22  C   LIG d   1       0.755  59.092 114.697  0.00  0.00     0.382 C 
ATOM     23  O   LIG d   1      -0.220  59.442 113.988  0.00  0.00    -0.241 OA
ATOM     24  O   LIG d   1       1.910  59.187 114.241  0.00  0.00    -0.241 OA
ENDBRANCH   3  22
TORSDOF 7
ENDMDL
MODEL 5
REMARK VINA RESULT:      -5.4     13.930     15.515
REMARK  7 active torsions:
REMARK  status: ('A' for Active; 'I' for Inactive)
REMARK    1  A    between atoms: C_2  and  C_3 
REMARK    2  A    between atoms: C_3  and  O_6 
REMARK    3  A    between atoms: C_3  and  C_4 
REMARK    4  A    between atoms: C_7  and  O_6 
REMARK    5  A    between atoms: C_9  and  C_10 
REMARK    6  A    between atoms: N_15  and  C_14 
REMARK    7  A    between atoms: N_20  and  C_19 
REMARK       I    between atoms: C_22  and  N_20 
ROOT
ATOM      1  C   LIG d   1      -1.996  75.821 114.547  0.00  0.00     0.161 C 
ATOM      2  C   LIG d   1      -1.622  74.900 115.540  0.00  0.00     0.016 C 
ATOM      3  C   LIG d   1      -1.008  75.275 116.757  0.00  0.00     0.038 C 
ATOM      4  C   LIG d   1      -0.861  76.619 117.131  0.00  0.00     0.028 C 
ATOM      5  C   LIG d   1      -0.764  77.571 115.943  0.00  0.00    -0.047 C 
ATOM      6  C   LIG d   1      -1.946  77.300 114.984  0.00  0.00     0.091 C 
ENDROOT
BRANCH   1   7
ATOM      7  O   LIG d   1      -3.306  75.491 114.044  0.00  0.00    -0.368 OA
BRANCH   7   8
ATOM      8  C   LIG d   1      -4.312  75.182 115.039  0.00  0.00     0.119 C 
BRANCH   8   9
ATOM      9  C   LIG d   1      -4.931  73.822 114.664  0.00  0.00     0.028 C 
ATOM     10  C   LIG d   1      -5.531  73.095 115.879  0.00  0.00     0.006 C 
ENDBRANCH   8   9
BRANCH   8  11
ATOM     11  C   LIG d   1      -5.471  76.182 114.990  0.00  0.00     0.028 C 
ATOM     12  C   LIG d   1      -6.234  76.145 113.656  0.00  0.00     0.006 C 
ENDBRANCH   8  11
ENDBRANCH   7   8
ENDBRANCH   1   7
BRANCH   6  13
ATOM     13  N   LIG d   1      -1.879  78.130 113.754  0.00  0.00    -0.311 N 
ATOM     14  C   LIG d   1      -2.536  79.280 113.609  0.00  0.00     0.210 C 
ATOM     15  C   LIG d   1      -2.346  79.968 112.254  0.00  0.00     0.109 C 
ATOM     16  O   LIG d   1      -3.233  79.812 114.487  0.00  0.00    -0.276 OA
ATOM     17  H   LIG d   1      -1.312  77.789 113.003  0.00  0.00     0.149 HD
ENDBRANCH   6  13
BRANCH   5  18
ATOM     18  N   LIG d   1      -0.754  78.947 116.474  0.00  0.00     0.381 N 
ATOM     19  H   LIG d   1      -1.676  79.332 116.434  0.00  0.00    -0.090 HD
ATOM     20  H   LIG d   1      -0.151  79.512 115.902  0.00  0.00    -0.090 HD
ATOM     21  H   LIG d   1      -0.427  78.947 117.415  0.00  0.00    -0.090 HD
ENDBRANCH   5  18
BRANCH   3  22
ATOM     22  C   LIG d   1      -0.495  74.298 117.598  0.00  0.00     0.382 C 
ATOM     23  O   LIG d   1      -0.245  73.153 117.149  0.00  0.00    -0.241 OA
ATOM     24  O   LIG d   1      -0.322  74.534 118.808  0.00  0.00    -0.241 OA
ENDBRANCH   3  22
TORSDOF 7
ENDMDL
MODEL 6
REMARK VINA RESULT:      -5.4      2.674      4.983
REMARK  7 active torsions:
REMARK  status: ('A' for Active; 'I' for Inactive)
REMARK    1  A    between atoms: C_2  and  C_3 
REMARK    2  A    between atoms: C_3  and  O_6 
REMARK    3  A    between atoms: C_3  and  C_4 
REMARK    4  A    between atoms: C_7  and  O_6 
REMARK    5  A    between atoms: C_9  and  C_10 
REMARK    6  A    between atoms: N_15  and  C_14 
REMARK    7  A    between atoms: N_20  and  C_19 
REMARK       I    between atoms: C_22  and  N_20 
ROOT
ATOM      1  C   LIG d   1      -6.484  92.482 118.423  0.00  0.00     0.161 C 
ATOM      2  C   LIG d   1      -5.354  93.225 118.804  0.00  0.00     0.016 C 
ATOM      3  C   LIG d   1      -4.057  92.987 118.293  0.00  0.00     0.038 C 
ATOM      4  C   LIG d   1      -3.828  92.082 117.245  0.00  0.00     0.028 C 
ATOM      5  C   LIG d   1      -4.853  90.955 117.183  0.00  0.00    -0.047 C 
ATOM      6  C   LIG d   1      -6.273  91.566 117.199  0.00  0.00     0.091 C 
ENDROOT
BRANCH   1   7
ATOM      7  O   LIG d   1      -7.598  93.369 118.198  0.00  0.00    -0.368 OA
BRANCH   7   8
ATOM      8  C   LIG d   1      -7.568  94.625 118.920  0.00  0.00     0.119 C 
BRANCH   8   9
ATOM      9  C   LIG d   1      -8.576  94.515 120.081  0.00  0.00     0.028 C 
ATOM     10  C   LIG d   1      -8.022  95.091 121.395  0.00  0.00     0.006 C 
ENDBRANCH   8   9
BRANCH   8  11
ATOM     11  C   LIG d   1      -8.076  95.779 118.051  0.00  0.00     0.028 C 
ATOM     12  C   LIG d   1      -7.358  97.106 118.345  0.00  0.00     0.006 C 
ENDBRANCH   8  11
ENDBRANCH   7   8
ENDBRANCH   1   7
BRANCH   6  13
ATOM     13  N   LIG d   1      -7.336  90.529 117.226  0.00  0.00    -0.311 N 
ATOM     14  C   LIG d   1      -7.864  89.992 116.127  0.00  0.00     0.210 C 
ATOM     15  C   LIG d   1      -8.962  88.953 116.378  0.00  0.00     0.109 C 
ATOM     16  O   LIG d   1      -7.505  90.253 114.969  0.00  0.00    -0.276 OA
ATOM     17  H   LIG d   1      -7.665  90.235 118.125  0.00  0.00     0.149 HD
ENDBRANCH   6  13
BRANCH   5  18
ATOM     18  N   LIG d   1      -4.576  90.168 115.967  0.00  0.00     0.381 N 
ATOM     19  H   LIG d   1      -3.779  90.543 115.494  0.00  0.00    -0.090 HD
ATOM     20  H   LIG d   1      -5.367  90.232 115.350  0.00  0.00    -0.090 HD
ATOM     21  H   LIG d   1      -4.411  89.215 116.207  0.00  0.00    -0.090 HD
ENDBRANCH   5  18
BRANCH   3  22
ATOM     22  C   LIG d   1      -2.966  93.629 118.859  0.00  0.00     0.382 C 
ATOM     23  O   LIG d   1      -2.529  94.688 118.349  0.00  0.00    -0.241 OA
ATOM     24  O   LIG d   1      -2.387  93.139 119.847  0.00  0.00    -0.241 OA
ENDBRANCH   3  22
TORSDOF 7
ENDMDL
MODEL 7
REMARK VINA RESULT:      -5.3     32.908     34.454
REMARK  7 active torsions:
REMARK  status: ('A' for Active; 'I' for Inactive)
REMARK    1  A    between atoms: C_2  and  C_3 
REMARK    2  A    between atoms: C_3  and  O_6 
REMARK    3  A    between atoms: C_3  and  C_4 
REMARK    4  A    between atoms: C_7  and  O_6 
REMARK    5  A    between atoms: C_9  and  C_10 
REMARK    6  A    between atoms: N_15  and  C_14 
REMARK    7  A    between atoms: N_20  and  C_19 
REMARK       I    between atoms: C_22  and  N_20 
ROOT
ATOM      1  C   LIG d   1       1.221  58.463 117.583  0.00  0.00     0.161 C 
ATOM      2  C   LIG d   1      -0.124  58.154 117.325  0.00  0.00     0.016 C 
ATOM      3  C   LIG d   1      -0.688  58.156 116.028  0.00  0.00     0.038 C 
ATOM      4  C   LIG d   1       0.098  58.322 114.878  0.00  0.00     0.028 C 
ATOM      5  C   LIG d   1       1.364  59.136 115.122  0.00  0.00    -0.047 C 
ATOM      6  C   LIG d   1       2.120  58.538 116.331  0.00  0.00     0.091 C 
ENDROOT
BRANCH   1   7
ATOM      7  O   LIG d   1       1.764  57.526 118.534  0.00  0.00    -0.368 OA
BRANCH   7   8
ATOM      8  C   LIG d   1       1.182  56.199 118.525  0.00  0.00     0.119 C 
BRANCH   8   9
ATOM      9  C   LIG d   1       0.934  55.792 119.990  0.00  0.00     0.028 C 
ATOM     10  C   LIG d   1       0.596  56.996 120.885  0.00  0.00     0.006 C 
ENDBRANCH   8   9
BRANCH   8  11
ATOM     11  C   LIG d   1       2.167  55.162 117.977  0.00  0.00     0.028 C 
ATOM     12  C   LIG d   1       2.002  54.924 116.467  0.00  0.00     0.006 C 
ENDBRANCH   8  11
ENDBRANCH   7   8
ENDBRANCH   1   7
BRANCH   6  13
ATOM     13  N   LIG d   1       3.328  59.326 116.691  0.00  0.00    -0.311 N 
ATOM     14  C   LIG d   1       4.460  58.774 117.125  0.00  0.00     0.210 C 
ATOM     15  C   LIG d   1       5.576  59.769 117.459  0.00  0.00     0.109 C 
ATOM     16  O   LIG d   1       4.656  57.555 117.234  0.00  0.00    -0.276 OA
ATOM     17  H   LIG d   1       3.266  60.321 116.602  0.00  0.00     0.149 HD
ENDBRANCH   6  13
BRANCH   5  18
ATOM     18  N   LIG d   1       2.156  59.114 113.878  0.00  0.00     0.381 N 
ATOM     19  H   LIG d   1       2.591  60.004 113.737  0.00  0.00    -0.090 HD
ATOM     20  H   LIG d   1       1.539  58.938 113.104  0.00  0.00    -0.090 HD
ATOM     21  H   LIG d   1       2.850  58.401 113.927  0.00  0.00    -0.090 HD
ENDBRANCH   5  18
BRANCH   3  22
ATOM     22  C   LIG d   1      -2.061  58.031 115.875  0.00  0.00     0.382 C 
ATOM     23  O   LIG d   1      -2.534  57.059 115.237  0.00  0.00    -0.241 OA
ATOM     24  O   LIG d   1      -2.829  58.900 116.328  0.00  0.00    -0.241 OA
ENDBRANCH   3  22
TORSDOF 7
ENDMDL
MODEL 8
REMARK VINA RESULT:      -5.2      2.290      4.970
REMARK  7 active torsions:
REMARK  status: ('A' for Active; 'I' for Inactive)
REMARK    1  A    between atoms: C_2  and  C_3 
REMARK    2  A    between atoms: C_3  and  O_6 
REMARK    3  A    between atoms: C_3  and  C_4 
REMARK    4  A    between atoms: C_7  and  O_6 
REMARK    5  A    between atoms: C_9  and  C_10 
REMARK    6  A    between atoms: N_15  and  C_14 
REMARK    7  A    between atoms: N_20  and  C_19 
REMARK       I    between atoms: C_22  and  N_20 
ROOT
ATOM      1  C   LIG d   1      -5.012  91.754 118.558  0.00  0.00     0.161 C 
ATOM      2  C   LIG d   1      -4.986  90.898 117.443  0.00  0.00     0.016 C 
ATOM      3  C   LIG d   1      -5.807  91.076 116.307  0.00  0.00     0.038 C 
ATOM      4  C   LIG d   1      -6.608  92.215 116.141  0.00  0.00     0.028 C 
ATOM      5  C   LIG d   1      -7.045  92.845 117.460  0.00  0.00    -0.047 C 
ATOM      6  C   LIG d   1      -5.799  93.064 118.348  0.00  0.00     0.091 C 
ENDROOT
BRANCH   1   7
ATOM      7  O   LIG d   1      -3.666  92.040 118.985  0.00  0.00    -0.368 OA
BRANCH   7   8
ATOM      8  C   LIG d   1      -2.714  92.340 117.935  0.00  0.00     0.119 C 
BRANCH   8   9
ATOM      9  C   LIG d   1      -1.426  91.550 118.238  0.00  0.00     0.028 C 
ATOM     10  C   LIG d   1      -1.248  90.338 117.308  0.00  0.00     0.006 C 
ENDBRANCH   8   9
BRANCH   8  11
ATOM     11  C   LIG d   1      -2.300  93.815 117.962  0.00  0.00     0.028 C 
ATOM     12  C   LIG d   1      -0.806  94.009 118.264  0.00  0.00     0.006 C 
ENDBRANCH   8  11
ENDBRANCH   7   8
ENDBRANCH   1   7
BRANCH   6  13
ATOM     13  N   LIG d   1      -6.147  93.600 119.690  0.00  0.00    -0.311 N 
ATOM     14  C   LIG d   1      -6.169  94.900 119.978  0.00  0.00     0.210 C 
ATOM     15  C   LIG d   1      -6.534  95.236 121.427  0.00  0.00     0.109 C 
ATOM     16  O   LIG d   1      -5.952  95.808 119.162  0.00  0.00    -0.276 OA
ATOM     17  H   LIG d   1      -6.366  92.933 120.404  0.00  0.00     0.149 HD
ENDBRANCH   6  13
BRANCH   5  18
ATOM     18  N   LIG d   1      -7.756  94.098 117.141  0.00  0.00     0.381 N 
ATOM     19  H   LIG d   1      -8.540  93.902 116.553  0.00  0.00    -0.090 HD
ATOM     20  H   LIG d   1      -7.132  94.708 116.643  0.00  0.00    -0.090 HD
ATOM     21  H   LIG d   1      -8.062  94.539 117.981  0.00  0.00    -0.090 HD
ENDBRANCH   5  18
BRANCH   3  22
ATOM     22  C   LIG d   1      -5.862  90.086 115.337  0.00  0.00     0.382 C 
ATOM     23  O   LIG d   1      -4.829  89.437 115.045  0.00  0.00    -0.241 OA
ATOM     24  O   LIG d   1      -6.921  89.864 114.720  0.00  0.00    -0.241 OA
ENDBRANCH   3  22
TORSDOF 7
ENDMDL
MODEL 9
REMARK VINA RESULT:      -5.1      2.413      4.636
REMARK  7 active torsions:
REMARK  status: ('A' for Active; 'I' for Inactive)
REMARK    1  A    between atoms: C_2  and  C_3 
REMARK    2  A    between atoms: C_3  and  O_6 
REMARK    3  A    between atoms: C_3  and  C_4 
REMARK    4  A    between atoms: C_7  and  O_6 
REMARK    5  A    between atoms: C_9  and  C_10 
REMARK    6  A    between atoms: N_15  and  C_14 
REMARK    7  A    between atoms: N_20  and  C_19 
REMARK       I    between atoms: C_22  and  N_20 
ROOT
ATOM      1  C   LIG d   1      -5.580  91.956 119.002  0.00  0.00     0.161 C 
ATOM      2  C   LIG d   1      -4.782  91.121 118.203  0.00  0.00     0.016 C 
ATOM      3  C   LIG d   1      -4.974  90.959 116.812  0.00  0.00     0.038 C 
ATOM      4  C   LIG d   1      -5.889  91.743 116.094  0.00  0.00     0.028 C 
ATOM      5  C   LIG d   1      -7.061  92.232 116.938  0.00  0.00    -0.047 C 
ATOM      6  C   LIG d   1      -6.511  92.903 118.218  0.00  0.00     0.091 C 
ENDROOT
BRANCH   1   7
ATOM      7  O   LIG d   1      -4.748  92.708 119.907  0.00  0.00    -0.368 OA
BRANCH   7   8
ATOM      8  C   LIG d   1      -4.106  93.883 119.355  0.00  0.00     0.119 C 
BRANCH   8   9
ATOM      9  C   LIG d   1      -2.595  93.592 119.276  0.00  0.00     0.028 C 
ATOM     10  C   LIG d   1      -2.011  93.893 117.885  0.00  0.00     0.006 C 
ENDBRANCH   8   9
BRANCH   8  11
ATOM     11  C   LIG d   1      -4.238  95.084 120.297  0.00  0.00     0.028 C 
ATOM     12  C   LIG d   1      -5.208  94.825 121.460  0.00  0.00     0.006 C 
ENDBRANCH   8  11
ENDBRANCH   7   8
ENDBRANCH   1   7
BRANCH   6  13
ATOM     13  N   LIG d   1      -7.594  93.336 119.140  0.00  0.00    -0.311 N 
ATOM     14  C   LIG d   1      -8.083  94.574 119.167  0.00  0.00     0.210 C 
ATOM     15  C   LIG d   1      -9.181  94.814 120.208  0.00  0.00     0.109 C 
ATOM     16  O   LIG d   1      -7.734  95.489 118.406  0.00  0.00    -0.276 OA
ATOM     17  H   LIG d   1      -7.957  92.649 119.771  0.00  0.00     0.149 HD
ENDBRANCH   6  13
BRANCH   5  18
ATOM     18  N   LIG d   1      -7.860  93.148 116.103  0.00  0.00     0.381 N 
ATOM     19  H   LIG d   1      -7.303  93.934 115.833  0.00  0.00    -0.090 HD
ATOM     20  H   LIG d   1      -8.639  93.484 116.642  0.00  0.00    -0.090 HD
ATOM     21  H   LIG d   1      -8.189  92.671 115.292  0.00  0.00    -0.090 HD
ENDBRANCH   5  18
BRANCH   3  22
ATOM     22  C   LIG d   1      -4.273  89.975 116.131  0.00  0.00     0.382 C 
ATOM     23  O   LIG d   1      -3.133  89.631 116.525  0.00  0.00    -0.241 OA
ATOM     24  O   LIG d   1      -4.748  89.458 115.102  0.00  0.00    -0.241 OA
ENDBRANCH   3  22
TORSDOF 7
ENDMDL
