MODEL 1
REMARK VINA RESULT:      -5.4      0.000      0.000
REMARK  7 active torsions:
REMARK  status: ('A' for Active; 'I' for Inactive)
REMARK    1  A    between atoms: C_2  and  C_3 
REMARK    2  A    between atoms: C_3  and  O_6 
REMARK    3  A    between atoms: C_3  and  C_4 
REMARK    4  A    between atoms: C_7  and  O_6 
REMARK    5  A    between atoms: C_9  and  C_10 
REMARK    6  A    between atoms: N_15  and  C_14 
REMARK    7  A    between atoms: N_20  and  C_19 
REMARK       I    between atoms: C_22  and  N_20 
ROOT
ATOM      1  C   LIG d   1      -3.624  91.330 117.869  0.00  0.00     0.161 C 
ATOM      2  C   LIG d   1      -3.998  90.583 116.740  0.00  0.00     0.016 C 
ATOM      3  C   LIG d   1      -5.178  90.828 116.000  0.00  0.00     0.038 C 
ATOM      4  C   LIG d   1      -5.992  91.942 116.251  0.00  0.00     0.028 C 
ATOM      5  C   LIG d   1      -5.925  92.429 117.695  0.00  0.00    -0.047 C 
ATOM      6  C   LIG d   1      -4.443  92.619 118.092  0.00  0.00     0.091 C 
ENDROOT
BRANCH   1   7
ATOM      7  O   LIG d   1      -2.217  91.635 117.809  0.00  0.00    -0.368 OA
BRANCH   7   8
ATOM      8  C   LIG d   1      -1.395  91.062 118.856  0.00  0.00     0.119 C 
BRANCH   8   9
ATOM      9  C   LIG d   1      -0.470  92.177 119.380  0.00  0.00     0.028 C 
ATOM     10  C   LIG d   1      -0.465  93.414 118.467  0.00  0.00     0.006 C 
ENDBRANCH   8   9
BRANCH   8  11
ATOM     11  C   LIG d   1      -0.459  89.984 118.302  0.00  0.00     0.028 C 
ATOM     12  C   LIG d   1      -0.235  90.111 116.787  0.00  0.00     0.006 C 
ENDBRANCH   8  11
ENDBRANCH   7   8
ENDBRANCH   1   7
BRANCH   6  13
ATOM     13  N   LIG d   1      -4.283  93.013 119.516  0.00  0.00    -0.311 N 
ATOM     14  C   LIG d   1      -3.815  94.199 119.900  0.00  0.00     0.210 C 
ATOM     15  C   LIG d   1      -3.711  94.393 121.416  0.00  0.00     0.109 C 
ATOM     16  O   LIG d   1      -3.505  95.121 119.130  0.00  0.00    -0.276 OA
ATOM     17  H   LIG d   1      -4.541  92.337 120.208  0.00  0.00     0.149 HD
ENDBRANCH   6  13
BRANCH   5  18
ATOM     18  N   LIG d   1      -6.712  93.673 117.784  0.00  0.00     0.381 N 
ATOM     19  H   LIG d   1      -6.379  94.231 118.545  0.00  0.00    -0.090 HD
ATOM     20  H   LIG d   1      -7.673  93.439 117.960  0.00  0.00    -0.090 HD
ATOM     21  H   LIG d   1      -6.638  94.184 116.931  0.00  0.00    -0.090 HD
ENDBRANCH   5  18
BRANCH   3  22
ATOM     22  C   LIG d   1      -5.574  89.930 115.021  0.00  0.00     0.382 C 
ATOM     23  O   LIG d   1      -4.752  89.102 114.560  0.00  0.00    -0.241 OA
ATOM     24  O   LIG d   1      -6.731  89.968 114.560  0.00  0.00    -0.241 OA
ENDBRANCH   3  22
TORSDOF 7
ENDMDL
MODEL 2
REMARK VINA RESULT:      -5.4      1.714      4.792
REMARK  7 active torsions:
REMARK  status: ('A' for Active; 'I' for Inactive)
REMARK    1  A    between atoms: C_2  and  C_3 
REMARK    2  A    between atoms: C_3  and  O_6 
REMARK    3  A    between atoms: C_3  and  C_4 
REMARK    4  A    between atoms: C_7  and  O_6 
REMARK    5  A    between atoms: C_9  and  C_10 
REMARK    6  A    between atoms: N_15  and  C_14 
REMARK    7  A    between atoms: N_20  and  C_19 
REMARK       I    between atoms: C_22  and  N_20 
ROOT
ATOM      1  C   LIG d   1      -3.775  92.412 117.295  0.00  0.00     0.161 C 
ATOM      2  C   LIG d   1      -3.057  93.048 118.321  0.00  0.00     0.016 C 
ATOM      3  C   LIG d   1      -3.656  93.532 119.507  0.00  0.00     0.038 C 
ATOM      4  C   LIG d   1      -5.000  93.274 119.816  0.00  0.00     0.028 C 
ATOM      5  C   LIG d   1      -5.878  93.077 118.585  0.00  0.00    -0.047 C 
ATOM      6  C   LIG d   1      -5.222  92.023 117.664  0.00  0.00     0.091 C 
ENDROOT
BRANCH   1   7
ATOM      7  O   LIG d   1      -3.048  91.256 116.834  0.00  0.00    -0.368 OA
BRANCH   7   8
ATOM      8  C   LIG d   1      -1.983  90.787 117.696  0.00  0.00     0.119 C 
BRANCH   8   9
ATOM      9  C   LIG d   1      -0.749  90.531 116.810  0.00  0.00     0.028 C 
ATOM     10  C   LIG d   1       0.314  91.634 116.950  0.00  0.00     0.006 C 
ENDBRANCH   8   9
BRANCH   8  11
ATOM     11  C   LIG d   1      -2.325  89.430 118.317  0.00  0.00     0.028 C 
ATOM     12  C   LIG d   1      -1.934  89.337 119.801  0.00  0.00     0.006 C 
ENDBRANCH   8  11
ENDBRANCH   7   8
ENDBRANCH   1   7
BRANCH   6  13
ATOM     13  N   LIG d   1      -5.974  91.832 116.397  0.00  0.00    -0.311 N 
ATOM     14  C   LIG d   1      -6.247  90.635 115.880  0.00  0.00     0.210 C 
ATOM     15  C   LIG d   1      -7.016  90.663 114.555  0.00  0.00     0.109 C 
ATOM     16  O   LIG d   1      -5.954  89.553 116.409  0.00  0.00    -0.276 OA
ATOM     17  H   LIG d   1      -6.277  92.657 115.917  0.00  0.00     0.149 HD
ENDBRANCH   6  13
BRANCH   5  18
ATOM     18  N   LIG d   1      -7.219  92.681 119.054  0.00  0.00     0.381 N 
ATOM     19  H   LIG d   1      -7.843  93.461 118.994  0.00  0.00    -0.090 HD
ATOM     20  H   LIG d   1      -7.158  92.401 120.017  0.00  0.00    -0.090 HD
ATOM     21  H   LIG d   1      -7.565  91.927 118.502  0.00  0.00    -0.090 HD
ENDBRANCH   5  18
BRANCH   3  22
ATOM     22  C   LIG d   1      -2.917  94.316 120.379  0.00  0.00     0.382 C 
ATOM     23  O   LIG d   1      -1.670  94.190 120.434  0.00  0.00    -0.241 OA
ATOM     24  O   LIG d   1      -3.487  95.117 121.145  0.00  0.00    -0.241 OA
ENDBRANCH   3  22
TORSDOF 7
ENDMDL
MODEL 3
REMARK VINA RESULT:      -5.0      2.810      6.375
REMARK  7 active torsions:
REMARK  status: ('A' for Active; 'I' for Inactive)
REMARK    1  A    between atoms: C_2  and  C_3 
REMARK    2  A    between atoms: C_3  and  O_6 
REMARK    3  A    between atoms: C_3  and  C_4 
REMARK    4  A    between atoms: C_7  and  O_6 
REMARK    5  A    between atoms: C_9  and  C_10 
REMARK    6  A    between atoms: N_15  and  C_14 
REMARK    7  A    between atoms: N_20  and  C_19 
REMARK       I    between atoms: C_22  and  N_20 
ROOT
ATOM      1  C   LIG d   1      -5.732  92.202 118.802  0.00  0.00     0.161 C 
ATOM      2  C   LIG d   1      -4.720  92.582 119.699  0.00  0.00     0.016 C 
ATOM      3  C   LIG d   1      -3.346  92.342 119.470  0.00  0.00     0.038 C 
ATOM      4  C   LIG d   1      -2.875  91.837 118.248  0.00  0.00     0.028 C 
ATOM      5  C   LIG d   1      -3.897  90.973 117.516  0.00  0.00    -0.047 C 
ATOM      6  C   LIG d   1      -5.230  91.750 117.415  0.00  0.00     0.091 C 
ENDROOT
BRANCH   1   7
ATOM      7  O   LIG d   1      -6.690  93.270 118.664  0.00  0.00    -0.368 OA
BRANCH   7   8
ATOM      8  C   LIG d   1      -7.076  93.941 119.889  0.00  0.00     0.119 C 
BRANCH   8   9
ATOM      9  C   LIG d   1      -8.340  93.238 120.423  0.00  0.00     0.028 C 
ATOM     10  C   LIG d   1      -8.282  93.001 121.941  0.00  0.00     0.006 C 
ENDBRANCH   8   9
BRANCH   8  11
ATOM     11  C   LIG d   1      -7.500  95.388 119.621  0.00  0.00     0.028 C 
ATOM     12  C   LIG d   1      -8.251  95.553 118.291  0.00  0.00     0.006 C 
ENDBRANCH   8  11
ENDBRANCH   7   8
ENDBRANCH   1   7
BRANCH   6  13
ATOM     13  N   LIG d   1      -6.309  90.944 116.786  0.00  0.00    -0.311 N 
ATOM     14  C   LIG d   1      -6.593  90.987 115.486  0.00  0.00     0.210 C 
ATOM     15  C   LIG d   1      -7.757  90.091 115.049  0.00  0.00     0.109 C 
ATOM     16  O   LIG d   1      -5.972  91.657 114.648  0.00  0.00    -0.276 OA
ATOM     17  H   LIG d   1      -6.843  90.348 117.388  0.00  0.00     0.149 HD
ENDBRANCH   6  13
BRANCH   5  18
ATOM     18  N   LIG d   1      -3.327  90.628 116.200  0.00  0.00     0.381 N 
ATOM     19  H   LIG d   1      -4.055  90.592 115.515  0.00  0.00    -0.090 HD
ATOM     20  H   LIG d   1      -2.903  89.719 116.258  0.00  0.00    -0.090 HD
ATOM     21  H   LIG d   1      -2.645  91.304 115.936  0.00  0.00    -0.090 HD
ENDBRANCH   5  18
BRANCH   3  22
ATOM     22  C   LIG d   1      -2.429  92.571 120.484  0.00  0.00     0.382 C 
ATOM     23  O   LIG d   1      -2.767  93.231 121.497  0.00  0.00    -0.241 OA
ATOM     24  O   LIG d   1      -1.256  92.166 120.380  0.00  0.00    -0.241 OA
ENDBRANCH   3  22
TORSDOF 7
ENDMDL
MODEL 4
REMARK VINA RESULT:      -4.9      2.487      4.403
REMARK  7 active torsions:
REMARK  status: ('A' for Active; 'I' for Inactive)
REMARK    1  A    between atoms: C_2  and  C_3 
REMARK    2  A    between atoms: C_3  and  O_6 
REMARK    3  A    between atoms: C_3  and  C_4 
REMARK    4  A    between atoms: C_7  and  O_6 
REMARK    5  A    between atoms: C_9  and  C_10 
REMARK    6  A    between atoms: N_15  and  C_14 
REMARK    7  A    between atoms: N_20  and  C_19 
REMARK       I    between atoms: C_22  and  N_20 
ROOT
ATOM      1  C   LIG d   1      -4.836  92.745 118.539  0.00  0.00     0.161 C 
ATOM      2  C   LIG d   1      -6.234  92.862 118.614  0.00  0.00     0.016 C 
ATOM      3  C   LIG d   1      -6.892  93.909 119.300  0.00  0.00     0.038 C 
ATOM      4  C   LIG d   1      -6.191  95.001 119.833  0.00  0.00     0.028 C 
ATOM      5  C   LIG d   1      -4.754  94.669 120.219  0.00  0.00    -0.047 C 
ATOM      6  C   LIG d   1      -4.057  93.987 119.019  0.00  0.00     0.091 C 
ENDROOT
BRANCH   1   7
ATOM      7  O   LIG d   1      -4.447  92.398 117.195  0.00  0.00    -0.368 OA
BRANCH   7   8
ATOM      8  C   LIG d   1      -3.615  91.220 117.057  0.00  0.00     0.119 C 
BRANCH   8   9
ATOM      9  C   LIG d   1      -4.266  90.316 115.993  0.00  0.00     0.028 C 
ATOM     10  C   LIG d   1      -5.599  90.883 115.476  0.00  0.00     0.006 C 
ENDBRANCH   8   9
BRANCH   8  11
ATOM     11  C   LIG d   1      -3.606  90.390 118.344  0.00  0.00     0.028 C 
ATOM     12  C   LIG d   1      -2.359  89.500 118.471  0.00  0.00     0.006 C 
ENDBRANCH   8  11
ENDBRANCH   7   8
ENDBRANCH   1   7
BRANCH   6  13
ATOM     13  N   LIG d   1      -2.672  93.553 119.340  0.00  0.00    -0.311 N 
ATOM     14  C   LIG d   1      -1.621  93.827 118.570  0.00  0.00     0.210 C 
ATOM     15  C   LIG d   1      -0.287  93.268 119.074  0.00  0.00     0.109 C 
ATOM     16  O   LIG d   1      -1.662  94.507 117.534  0.00  0.00    -0.276 OA
ATOM     17  H   LIG d   1      -2.543  93.022 120.179  0.00  0.00     0.149 HD
ENDBRANCH   6  13
BRANCH   5  18
ATOM     18  N   LIG d   1      -4.100  95.926 120.630  0.00  0.00     0.381 N 
ATOM     19  H   LIG d   1      -3.507  96.255 119.894  0.00  0.00    -0.090 HD
ATOM     20  H   LIG d   1      -3.530  95.747 121.438  0.00  0.00    -0.090 HD
ATOM     21  H   LIG d   1      -4.788  96.613 120.845  0.00  0.00    -0.090 HD
ENDBRANCH   5  18
BRANCH   3  22
ATOM     22  C   LIG d   1      -8.264  93.849 119.493  0.00  0.00     0.382 C 
ATOM     23  O   LIG d   1      -8.765  92.900 120.143  0.00  0.00    -0.241 OA
ATOM     24  O   LIG d   1      -9.011  94.708 118.988  0.00  0.00    -0.241 OA
ENDBRANCH   3  22
TORSDOF 7
ENDMDL
MODEL 5
REMARK VINA RESULT:      -4.9     13.332     15.632
REMARK  7 active torsions:
REMARK  status: ('A' for Active; 'I' for Inactive)
REMARK    1  A    between atoms: C_2  and  C_3 
REMARK    2  A    between atoms: C_3  and  O_6 
REMARK    3  A    between atoms: C_3  and  C_4 
REMARK    4  A    between atoms: C_7  and  O_6 
REMARK    5  A    between atoms: C_9  and  C_10 
REMARK    6  A    between atoms: N_15  and  C_14 
REMARK    7  A    between atoms: N_20  and  C_19 
REMARK       I    between atoms: C_22  and  N_20 
ROOT
ATOM      1  C   LIG d   1      -5.416  77.059 117.274  0.00  0.00     0.161 C 
ATOM      2  C   LIG d   1      -6.472  77.962 117.481  0.00  0.00     0.016 C 
ATOM      3  C   LIG d   1      -6.282  79.347 117.689  0.00  0.00     0.038 C 
ATOM      4  C   LIG d   1      -5.023  79.951 117.554  0.00  0.00     0.028 C 
ATOM      5  C   LIG d   1      -3.863  79.005 117.845  0.00  0.00    -0.047 C 
ATOM      6  C   LIG d   1      -4.045  77.716 117.012  0.00  0.00     0.091 C 
ENDROOT
BRANCH   1   7
ATOM      7  O   LIG d   1      -5.750  76.153 116.204  0.00  0.00    -0.368 OA
BRANCH   7   8
ATOM      8  C   LIG d   1      -6.627  75.053 116.550  0.00  0.00     0.119 C 
BRANCH   8   9
ATOM      9  C   LIG d   1      -5.857  73.745 116.286  0.00  0.00     0.028 C 
ATOM     10  C   LIG d   1      -6.763  72.629 115.740  0.00  0.00     0.006 C 
ENDBRANCH   8   9
BRANCH   8  11
ATOM     11  C   LIG d   1      -7.846  75.000 115.623  0.00  0.00     0.028 C 
ATOM     12  C   LIG d   1      -9.132  75.498 116.301  0.00  0.00     0.006 C 
ENDBRANCH   8  11
ENDBRANCH   7   8
ENDBRANCH   1   7
BRANCH   6  13
ATOM     13  N   LIG d   1      -2.997  76.702 117.301  0.00  0.00    -0.311 N 
ATOM     14  C   LIG d   1      -1.896  76.557 116.567  0.00  0.00     0.210 C 
ATOM     15  C   LIG d   1      -0.955  75.438 117.026  0.00  0.00     0.109 C 
ATOM     16  O   LIG d   1      -1.592  77.269 115.598  0.00  0.00    -0.276 OA
ATOM     17  H   LIG d   1      -3.148  76.102 118.088  0.00  0.00     0.149 HD
ENDBRANCH   6  13
BRANCH   5  18
ATOM     18  N   LIG d   1      -2.613  79.724 117.533  0.00  0.00     0.381 N 
ATOM     19  H   LIG d   1      -2.077  79.199 116.870  0.00  0.00    -0.090 HD
ATOM     20  H   LIG d   1      -2.071  79.815 118.374  0.00  0.00    -0.090 HD
ATOM     21  H   LIG d   1      -2.821  80.625 117.163  0.00  0.00    -0.090 HD
ENDBRANCH   5  18
BRANCH   3  22
ATOM     22  C   LIG d   1      -7.353  80.137 118.077  0.00  0.00     0.382 C 
ATOM     23  O   LIG d   1      -7.804  81.009 117.296  0.00  0.00    -0.241 OA
ATOM     24  O   LIG d   1      -7.846  80.019 119.215  0.00  0.00    -0.241 OA
ENDBRANCH   3  22
TORSDOF 7
ENDMDL
MODEL 6
REMARK VINA RESULT:      -4.8     11.022     12.762
REMARK  7 active torsions:
REMARK  status: ('A' for Active; 'I' for Inactive)
REMARK    1  A    between atoms: C_2  and  C_3 
REMARK    2  A    between atoms: C_3  and  O_6 
REMARK    3  A    between atoms: C_3  and  C_4 
REMARK    4  A    between atoms: C_7  and  O_6 
REMARK    5  A    between atoms: C_9  and  C_10 
REMARK    6  A    between atoms: N_15  and  C_14 
REMARK    7  A    between atoms: N_20  and  C_19 
REMARK       I    between atoms: C_22  and  N_20 
ROOT
ATOM      1  C   LIG d   1      -6.216  79.486 118.056  0.00  0.00     0.161 C 
ATOM      2  C   LIG d   1      -7.599  79.425 117.818  0.00  0.00     0.016 C 
ATOM      3  C   LIG d   1      -8.448  80.554 117.868  0.00  0.00     0.038 C 
ATOM      4  C   LIG d   1      -7.943  81.855 118.012  0.00  0.00     0.028 C 
ATOM      5  C   LIG d   1      -6.615  81.910 118.758  0.00  0.00    -0.047 C 
ATOM      6  C   LIG d   1      -5.631  80.913 118.105  0.00  0.00     0.091 C 
ENDROOT
BRANCH   1   7
ATOM      7  O   LIG d   1      -5.516  78.691 117.079  0.00  0.00    -0.368 OA
BRANCH   7   8
ATOM      8  C   LIG d   1      -5.216  77.326 117.464  0.00  0.00     0.119 C 
BRANCH   8   9
ATOM      9  C   LIG d   1      -3.802  77.000 116.947  0.00  0.00     0.028 C 
ATOM     10  C   LIG d   1      -3.107  78.223 116.326  0.00  0.00     0.006 C 
ENDBRANCH   8   9
BRANCH   8  11
ATOM     11  C   LIG d   1      -6.145  76.332 116.760  0.00  0.00     0.028 C 
ATOM     12  C   LIG d   1      -5.380  75.268 115.958  0.00  0.00     0.006 C 
ENDBRANCH   8  11
ENDBRANCH   7   8
ENDBRANCH   1   7
BRANCH   6  13
ATOM     13  N   LIG d   1      -4.333  80.842 118.827  0.00  0.00    -0.311 N 
ATOM     14  C   LIG d   1      -3.181  81.261 118.306  0.00  0.00     0.210 C 
ATOM     15  C   LIG d   1      -1.958  81.079 119.211  0.00  0.00     0.109 C 
ATOM     16  O   LIG d   1      -3.061  81.796 117.194  0.00  0.00    -0.276 OA
ATOM     17  H   LIG d   1      -4.344  80.451 119.748  0.00  0.00     0.149 HD
ENDBRANCH   6  13
BRANCH   5  18
ATOM     18  N   LIG d   1      -6.137  83.305 118.716  0.00  0.00     0.381 N 
ATOM     19  H   LIG d   1      -6.216  83.718 119.623  0.00  0.00    -0.090 HD
ATOM     20  H   LIG d   1      -6.715  83.827 118.080  0.00  0.00    -0.090 HD
ATOM     21  H   LIG d   1      -5.189  83.332 118.412  0.00  0.00    -0.090 HD
ENDBRANCH   5  18
BRANCH   3  22
ATOM     22  C   LIG d   1      -9.823  80.383 117.812  0.00  0.00     0.382 C 
ATOM     23  O   LIG d   1     -10.357  79.409 118.395  0.00  0.00    -0.241 OA
ATOM     24  O   LIG d   1     -10.530  81.166 117.150  0.00  0.00    -0.241 OA
ENDBRANCH   3  22
TORSDOF 7
ENDMDL
MODEL 7
REMARK VINA RESULT:      -4.7      1.427      2.244
REMARK  7 active torsions:
REMARK  status: ('A' for Active; 'I' for Inactive)
REMARK    1  A    between atoms: C_2  and  C_3 
REMARK    2  A    between atoms: C_3  and  O_6 
REMARK    3  A    between atoms: C_3  and  C_4 
REMARK    4  A    between atoms: C_7  and  O_6 
REMARK    5  A    between atoms: C_9  and  C_10 
REMARK    6  A    between atoms: N_15  and  C_14 
REMARK    7  A    between atoms: N_20  and  C_19 
REMARK       I    between atoms: C_22  and  N_20 
ROOT
ATOM      1  C   LIG d   1      -4.112  91.866 118.810  0.00  0.00     0.161 C 
ATOM      2  C   LIG d   1      -4.295  90.960 117.752  0.00  0.00     0.016 C 
ATOM      3  C   LIG d   1      -5.323  91.086 116.789  0.00  0.00     0.038 C 
ATOM      4  C   LIG d   1      -6.150  92.218 116.731  0.00  0.00     0.028 C 
ATOM      5  C   LIG d   1      -6.328  92.907 118.080  0.00  0.00    -0.047 C 
ATOM      6  C   LIG d   1      -4.935  93.166 118.699  0.00  0.00     0.091 C 
ENDROOT
BRANCH   1   7
ATOM      7  O   LIG d   1      -2.711  92.170 118.956  0.00  0.00    -0.368 OA
BRANCH   7   8
ATOM      8  C   LIG d   1      -2.088  91.732 120.188  0.00  0.00     0.119 C 
BRANCH   8   9
ATOM      9  C   LIG d   1      -1.016  90.688 119.818  0.00  0.00     0.028 C 
ATOM     10  C   LIG d   1      -1.598  89.272 119.680  0.00  0.00     0.006 C 
ENDBRANCH   8   9
BRANCH   8  11
ATOM     11  C   LIG d   1      -3.084  90.989 121.083  0.00  0.00     0.028 C 
ATOM     12  C   LIG d   1      -3.253  91.649 122.461  0.00  0.00     0.006 C 
ENDBRANCH   8  11
ENDBRANCH   7   8
ENDBRANCH   1   7
BRANCH   6  13
ATOM     13  N   LIG d   1      -5.021  93.762 120.058  0.00  0.00    -0.311 N 
ATOM     14  C   LIG d   1      -4.363  94.862 120.418  0.00  0.00     0.210 C 
ATOM     15  C   LIG d   1      -4.575  95.296 121.872  0.00  0.00     0.109 C 
ATOM     16  O   LIG d   1      -3.648  95.538 119.663  0.00  0.00    -0.276 OA
ATOM     17  H   LIG d   1      -5.603  93.295 120.725  0.00  0.00     0.149 HD
ENDBRANCH   6  13
BRANCH   5  18
ATOM     18  N   LIG d   1      -7.097  94.145 117.849  0.00  0.00     0.381 N 
ATOM     19  H   LIG d   1      -7.392  94.528 118.725  0.00  0.00    -0.090 HD
ATOM     20  H   LIG d   1      -7.915  93.924 117.310  0.00  0.00    -0.090 HD
ATOM     21  H   LIG d   1      -6.537  94.808 117.360  0.00  0.00    -0.090 HD
ENDBRANCH   5  18
BRANCH   3  22
ATOM     22  C   LIG d   1      -5.557  90.053 115.894  0.00  0.00     0.382 C 
ATOM     23  O   LIG d   1      -4.777  89.872 114.929  0.00  0.00    -0.241 OA
ATOM     24  O   LIG d   1      -6.562  89.328 116.015  0.00  0.00    -0.241 OA
ENDBRANCH   3  22
TORSDOF 7
ENDMDL
MODEL 8
REMARK VINA RESULT:      -4.7     24.729     27.090
REMARK  7 active torsions:
REMARK  status: ('A' for Active; 'I' for Inactive)
REMARK    1  A    between atoms: C_2  and  C_3 
REMARK    2  A    between atoms: C_3  and  O_6 
REMARK    3  A    between atoms: C_3  and  C_4 
REMARK    4  A    between atoms: C_7  and  O_6 
REMARK    5  A    between atoms: C_9  and  C_10 
REMARK    6  A    between atoms: N_15  and  C_14 
REMARK    7  A    between atoms: N_20  and  C_19 
REMARK       I    between atoms: C_22  and  N_20 
ROOT
ATOM      1  C   LIG d   1     -15.660  68.313 119.988  0.00  0.00     0.161 C 
ATOM      2  C   LIG d   1     -14.750  68.726 120.976  0.00  0.00     0.016 C 
ATOM      3  C   LIG d   1     -13.677  67.925 121.429  0.00  0.00     0.038 C 
ATOM      4  C   LIG d   1     -13.349  66.708 120.812  0.00  0.00     0.028 C 
ATOM      5  C   LIG d   1     -14.540  66.022 120.152  0.00  0.00    -0.047 C 
ATOM      6  C   LIG d   1     -15.252  67.035 119.226  0.00  0.00     0.091 C 
ENDROOT
BRANCH   1   7
ATOM      7  O   LIG d   1     -15.900  69.393 119.064  0.00  0.00    -0.368 OA
BRANCH   7   8
ATOM      8  C   LIG d   1     -16.406  70.623 119.638  0.00  0.00     0.119 C 
BRANCH   8   9
ATOM      9  C   LIG d   1     -17.872  70.376 120.044  0.00  0.00     0.028 C 
ATOM     10  C   LIG d   1     -18.134  70.704 121.523  0.00  0.00     0.006 C 
ENDBRANCH   8   9
BRANCH   8  11
ATOM     11  C   LIG d   1     -16.458  71.744 118.596  0.00  0.00     0.028 C 
ATOM     12  C   LIG d   1     -16.369  73.145 119.222  0.00  0.00     0.006 C 
ENDBRANCH   8  11
ENDBRANCH   7   8
ENDBRANCH   1   7
BRANCH   6  13
ATOM     13  N   LIG d   1     -16.479  66.471 118.606  0.00  0.00    -0.311 N 
ATOM     14  C   LIG d   1     -16.627  66.306 117.292  0.00  0.00     0.210 C 
ATOM     15  C   LIG d   1     -17.978  65.727 116.861  0.00  0.00     0.109 C 
ATOM     16  O   LIG d   1     -15.755  66.555 116.446  0.00  0.00    -0.276 OA
ATOM     17  H   LIG d   1     -17.224  66.212 119.222  0.00  0.00     0.149 HD
ENDBRANCH   6  13
BRANCH   5  18
ATOM     18  N   LIG d   1     -14.032  64.840 119.433  0.00  0.00     0.381 N 
ATOM     19  H   LIG d   1     -13.180  65.070 118.961  0.00  0.00    -0.090 HD
ATOM     20  H   LIG d   1     -14.709  64.562 118.744  0.00  0.00    -0.090 HD
ATOM     21  H   LIG d   1     -13.873  64.093 120.073  0.00  0.00    -0.090 HD
ENDBRANCH   5  18
BRANCH   3  22
ATOM     22  C   LIG d   1     -12.943  68.321 122.536  0.00  0.00     0.382 C 
ATOM     23  O   LIG d   1     -11.703  68.129 122.568  0.00  0.00    -0.241 OA
ATOM     24  O   LIG d   1     -13.511  68.828 123.522  0.00  0.00    -0.241 OA
ENDBRANCH   3  22
TORSDOF 7
ENDMDL
MODEL 9
REMARK VINA RESULT:      -4.6     19.290     21.093
REMARK  7 active torsions:
REMARK  status: ('A' for Active; 'I' for Inactive)
REMARK    1  A    between atoms: C_2  and  C_3 
REMARK    2  A    between atoms: C_3  and  O_6 
REMARK    3  A    between atoms: C_3  and  C_4 
REMARK    4  A    between atoms: C_7  and  O_6 
REMARK    5  A    between atoms: C_9  and  C_10 
REMARK    6  A    between atoms: N_15  and  C_14 
REMARK    7  A    between atoms: N_20  and  C_19 
REMARK       I    between atoms: C_22  and  N_20 
ROOT
ATOM      1  C   LIG d   1     -16.702  75.770 120.735  0.00  0.00     0.161 C 
ATOM      2  C   LIG d   1     -17.843  76.442 120.265  0.00  0.00     0.016 C 
ATOM      3  C   LIG d   1     -18.161  77.774 120.614  0.00  0.00     0.038 C 
ATOM      4  C   LIG d   1     -17.274  78.582 121.342  0.00  0.00     0.028 C 
ATOM      5  C   LIG d   1     -16.347  77.790 122.259  0.00  0.00    -0.047 C 
ATOM      6  C   LIG d   1     -15.666  76.671 121.439  0.00  0.00     0.091 C 
ENDROOT
BRANCH   1   7
ATOM      7  O   LIG d   1     -16.083  75.044 119.654  0.00  0.00    -0.368 OA
BRANCH   7   8
ATOM      8  C   LIG d   1     -16.162  73.600 119.730  0.00  0.00     0.119 C 
BRANCH   8   9
ATOM      9  C   LIG d   1     -17.156  73.133 118.649  0.00  0.00     0.028 C 
ATOM     10  C   LIG d   1     -16.480  72.910 117.286  0.00  0.00     0.006 C 
ENDBRANCH   8   9
BRANCH   8  11
ATOM     11  C   LIG d   1     -16.766  73.143 121.061  0.00  0.00     0.028 C 
ATOM     12  C   LIG d   1     -15.801  72.278 121.887  0.00  0.00     0.006 C 
ENDBRANCH   8  11
ENDBRANCH   7   8
ENDBRANCH   1   7
BRANCH   6  13
ATOM     13  N   LIG d   1     -14.807  75.796 122.279  0.00  0.00    -0.311 N 
ATOM     14  C   LIG d   1     -13.534  75.527 121.994  0.00  0.00     0.210 C 
ATOM     15  C   LIG d   1     -12.835  74.586 122.980  0.00  0.00     0.109 C 
ATOM     16  O   LIG d   1     -12.908  76.003 121.035  0.00  0.00    -0.276 OA
ATOM     17  H   LIG d   1     -15.226  75.392 123.094  0.00  0.00     0.149 HD
ENDBRANCH   6  13
BRANCH   5  18
ATOM     18  N   LIG d   1     -15.387  78.741 122.850  0.00  0.00     0.381 N 
ATOM     19  H   LIG d   1     -15.676  79.679 122.657  0.00  0.00    -0.090 HD
ATOM     20  H   LIG d   1     -14.486  78.596 122.429  0.00  0.00    -0.090 HD
ATOM     21  H   LIG d   1     -15.328  78.599 123.834  0.00  0.00    -0.090 HD
ENDBRANCH   5  18
BRANCH   3  22
ATOM     22  C   LIG d   1     -19.397  78.300 120.269  0.00  0.00     0.382 C 
ATOM     23  O   LIG d   1     -19.489  79.495 119.900  0.00  0.00    -0.241 OA
ATOM     24  O   LIG d   1     -20.427  77.606 120.363  0.00  0.00    -0.241 OA
ENDBRANCH   3  22
TORSDOF 7
ENDMDL
