MODEL 1
REMARK VINA RESULT:      -4.5      0.000      0.000
REMARK  7 active torsions:
REMARK  status: ('A' for Active; 'I' for Inactive)
REMARK    1  A    between atoms: C_2  and  C_3 
REMARK    2  A    between atoms: C_3  and  O_6 
REMARK    3  A    between atoms: C_3  and  C_4 
REMARK    4  A    between atoms: C_7  and  O_6 
REMARK    5  A    between atoms: C_9  and  C_10 
REMARK    6  A    between atoms: N_15  and  C_14 
REMARK    7  A    between atoms: N_20  and  C_19 
REMARK       I    between atoms: C_22  and  N_20 
ROOT
ATOM      1  C   LIG d   1      -8.703  78.602 119.000  0.00  0.00     0.161 C 
ATOM      2  C   LIG d   1      -9.475  79.745 118.733  0.00  0.00     0.016 C 
ATOM      3  C   LIG d   1      -8.964  80.896 118.090  0.00  0.00     0.038 C 
ATOM      4  C   LIG d   1      -7.678  80.923 117.530  0.00  0.00     0.028 C 
ATOM      5  C   LIG d   1      -6.698  79.979 118.219  0.00  0.00    -0.047 C 
ATOM      6  C   LIG d   1      -7.330  78.570 118.299  0.00  0.00     0.091 C 
ENDROOT
BRANCH   1   7
ATOM      7  O   LIG d   1      -9.458  77.417 118.678  0.00  0.00    -0.368 OA
BRANCH   7   8
ATOM      8  C   LIG d   1     -10.776  77.320 119.271  0.00  0.00     0.119 C 
BRANCH   8   9
ATOM      9  C   LIG d   1     -10.598  76.817 120.717  0.00  0.00     0.028 C 
ATOM     10  C   LIG d   1     -11.114  77.826 121.757  0.00  0.00     0.006 C 
ENDBRANCH   8   9
BRANCH   8  11
ATOM     11  C   LIG d   1     -11.624  76.252 118.573  0.00  0.00     0.028 C 
ATOM     12  C   LIG d   1     -13.090  76.260 119.034  0.00  0.00     0.006 C 
ENDBRANCH   8  11
ENDBRANCH   7   8
ENDBRANCH   1   7
BRANCH   6  13
ATOM     13  N   LIG d   1      -6.471  77.605 119.034  0.00  0.00    -0.311 N 
ATOM     14  C   LIG d   1      -6.063  76.447 118.518  0.00  0.00     0.210 C 
ATOM     15  C   LIG d   1      -5.202  75.591 119.452  0.00  0.00     0.109 C 
ATOM     16  O   LIG d   1      -6.306  76.061 117.365  0.00  0.00    -0.276 OA
ATOM     17  H   LIG d   1      -6.201  77.852 119.965  0.00  0.00     0.149 HD
ENDBRANCH   6  13
BRANCH   5  18
ATOM     18  N   LIG d   1      -5.439  80.005 117.451  0.00  0.00     0.381 N 
ATOM     19  H   LIG d   1      -4.899  80.806 117.713  0.00  0.00    -0.090 HD
ATOM     20  H   LIG d   1      -5.657  80.079 116.472  0.00  0.00    -0.090 HD
ATOM     21  H   LIG d   1      -4.918  79.174 117.621  0.00  0.00    -0.090 HD
ENDBRANCH   5  18
BRANCH   3  22
ATOM     22  C   LIG d   1      -9.730  82.050 118.036  0.00  0.00     0.382 C 
ATOM     23  O   LIG d   1      -9.549  82.963 118.877  0.00  0.00    -0.241 OA
ATOM     24  O   LIG d   1     -10.631  82.172 117.184  0.00  0.00    -0.241 OA
ENDBRANCH   3  22
TORSDOF 7
ENDMDL
MODEL 2
REMARK VINA RESULT:      -4.5     11.939     14.941
REMARK  7 active torsions:
REMARK  status: ('A' for Active; 'I' for Inactive)
REMARK    1  A    between atoms: C_2  and  C_3 
REMARK    2  A    between atoms: C_3  and  O_6 
REMARK    3  A    between atoms: C_3  and  C_4 
REMARK    4  A    between atoms: C_7  and  O_6 
REMARK    5  A    between atoms: C_9  and  C_10 
REMARK    6  A    between atoms: N_15  and  C_14 
REMARK    7  A    between atoms: N_20  and  C_19 
REMARK       I    between atoms: C_22  and  N_20 
ROOT
ATOM      1  C   LIG d   1     -13.120  66.119 122.625  0.00  0.00     0.161 C 
ATOM      2  C   LIG d   1     -12.123  65.510 123.405  0.00  0.00     0.016 C 
ATOM      3  C   LIG d   1     -11.574  64.240 123.115  0.00  0.00     0.038 C 
ATOM      4  C   LIG d   1     -11.879  63.554 121.930  0.00  0.00     0.028 C 
ATOM      5  C   LIG d   1     -13.255  63.898 121.368  0.00  0.00    -0.047 C 
ATOM      6  C   LIG d   1     -13.385  65.434 121.267  0.00  0.00     0.091 C 
ENDROOT
BRANCH   1   7
ATOM      7  O   LIG d   1     -12.806  67.512 122.430  0.00  0.00    -0.368 OA
BRANCH   7   8
ATOM      8  C   LIG d   1     -13.625  68.458 123.161  0.00  0.00     0.119 C 
BRANCH   8   9
ATOM      9  C   LIG d   1     -12.810  68.931 124.380  0.00  0.00     0.028 C 
ATOM     10  C   LIG d   1     -12.290  70.369 124.216  0.00  0.00     0.006 C 
ENDBRANCH   8   9
BRANCH   8  11
ATOM     11  C   LIG d   1     -14.870  67.783 123.743  0.00  0.00     0.028 C 
ATOM     12  C   LIG d   1     -16.174  68.287 123.105  0.00  0.00     0.006 C 
ENDBRANCH   8  11
ENDBRANCH   7   8
ENDBRANCH   1   7
BRANCH   6  13
ATOM     13  N   LIG d   1     -14.733  65.860 120.806  0.00  0.00    -0.311 N 
ATOM     14  C   LIG d   1     -14.951  66.465 119.639  0.00  0.00     0.210 C 
ATOM     15  C   LIG d   1     -16.412  66.837 119.367  0.00  0.00     0.109 C 
ATOM     16  O   LIG d   1     -14.078  66.700 118.790  0.00  0.00    -0.276 OA
ATOM     17  H   LIG d   1     -15.503  65.679 121.419  0.00  0.00     0.149 HD
ENDBRANCH   6  13
BRANCH   5  18
ATOM     18  N   LIG d   1     -13.386  63.219 120.065  0.00  0.00     0.381 N 
ATOM     19  H   LIG d   1     -12.598  63.437 119.489  0.00  0.00    -0.090 HD
ATOM     20  H   LIG d   1     -14.215  63.554 119.606  0.00  0.00    -0.090 HD
ATOM     21  H   LIG d   1     -13.447  62.234 120.199  0.00  0.00    -0.090 HD
ENDBRANCH   5  18
BRANCH   3  22
ATOM     22  C   LIG d   1     -10.738  63.626 124.035  0.00  0.00     0.382 C 
ATOM     23  O   LIG d   1     -10.902  62.415 124.320  0.00  0.00    -0.241 OA
ATOM     24  O   LIG d   1      -9.852  64.278 124.618  0.00  0.00    -0.241 OA
ENDBRANCH   3  22
TORSDOF 7
ENDMDL
MODEL 3
REMARK VINA RESULT:      -4.4     21.001     23.599
REMARK  7 active torsions:
REMARK  status: ('A' for Active; 'I' for Inactive)
REMARK    1  A    between atoms: C_2  and  C_3 
REMARK    2  A    between atoms: C_3  and  O_6 
REMARK    3  A    between atoms: C_3  and  C_4 
REMARK    4  A    between atoms: C_7  and  O_6 
REMARK    5  A    between atoms: C_9  and  C_10 
REMARK    6  A    between atoms: N_15  and  C_14 
REMARK    7  A    between atoms: N_20  and  C_19 
REMARK       I    between atoms: C_22  and  N_20 
ROOT
ATOM      1  C   LIG d   1      -0.498  57.142 119.957  0.00  0.00     0.161 C 
ATOM      2  C   LIG d   1       0.284  57.926 119.092  0.00  0.00     0.016 C 
ATOM      3  C   LIG d   1       1.598  57.581 118.703  0.00  0.00     0.038 C 
ATOM      4  C   LIG d   1       2.169  56.343 119.035  0.00  0.00     0.028 C 
ATOM      5  C   LIG d   1       1.610  55.743 120.321  0.00  0.00    -0.047 C 
ATOM      6  C   LIG d   1       0.066  55.733 120.240  0.00  0.00     0.091 C 
ENDROOT
BRANCH   1   7
ATOM      7  O   LIG d   1      -1.844  57.050 119.451  0.00  0.00    -0.368 OA
BRANCH   7   8
ATOM      8  C   LIG d   1      -2.744  58.119 119.834  0.00  0.00     0.119 C 
BRANCH   8   9
ATOM      9  C   LIG d   1      -3.110  57.906 121.316  0.00  0.00     0.028 C 
ATOM     10  C   LIG d   1      -2.537  59.006 122.225  0.00  0.00     0.006 C 
ENDBRANCH   8   9
BRANCH   8  11
ATOM     11  C   LIG d   1      -4.070  58.031 119.072  0.00  0.00     0.028 C 
ATOM     12  C   LIG d   1      -4.557  59.398 118.565  0.00  0.00     0.006 C 
ENDBRANCH   8  11
ENDBRANCH   7   8
ENDBRANCH   1   7
BRANCH   6  13
ATOM     13  N   LIG d   1      -0.564  55.240 121.493  0.00  0.00    -0.311 N 
ATOM     14  C   LIG d   1      -1.562  54.358 121.513  0.00  0.00     0.210 C 
ATOM     15  C   LIG d   1      -2.079  53.999 122.910  0.00  0.00     0.109 C 
ATOM     16  O   LIG d   1      -2.046  53.814 120.509  0.00  0.00    -0.276 OA
ATOM     17  H   LIG d   1      -0.211  55.606 122.355  0.00  0.00     0.149 HD
ENDBRANCH   6  13
BRANCH   5  18
ATOM     18  N   LIG d   1       2.190  54.396 120.473  0.00  0.00     0.381 N 
ATOM     19  H   LIG d   1       2.139  54.111 121.431  0.00  0.00    -0.090 HD
ATOM     20  H   LIG d   1       3.157  54.426 120.204  0.00  0.00    -0.090 HD
ATOM     21  H   LIG d   1       1.698  53.746 119.900  0.00  0.00    -0.090 HD
ENDBRANCH   5  18
BRANCH   3  22
ATOM     22  C   LIG d   1       2.372  58.497 118.007  0.00  0.00     0.382 C 
ATOM     23  O   LIG d   1       3.623  58.434 118.065  0.00  0.00    -0.241 OA
ATOM     24  O   LIG d   1       1.833  59.413 117.356  0.00  0.00    -0.241 OA
ENDBRANCH   3  22
TORSDOF 7
ENDMDL
MODEL 4
REMARK VINA RESULT:      -4.4      3.553      6.628
REMARK  7 active torsions:
REMARK  status: ('A' for Active; 'I' for Inactive)
REMARK    1  A    between atoms: C_2  and  C_3 
REMARK    2  A    between atoms: C_3  and  O_6 
REMARK    3  A    between atoms: C_3  and  C_4 
REMARK    4  A    between atoms: C_7  and  O_6 
REMARK    5  A    between atoms: C_9  and  C_10 
REMARK    6  A    between atoms: N_15  and  C_14 
REMARK    7  A    between atoms: N_20  and  C_19 
REMARK       I    between atoms: C_22  and  N_20 
ROOT
ATOM      1  C   LIG d   1      -8.384  81.526 120.631  0.00  0.00     0.161 C 
ATOM      2  C   LIG d   1      -8.854  80.254 120.263  0.00  0.00     0.016 C 
ATOM      3  C   LIG d   1     -10.149  79.781 120.577  0.00  0.00     0.038 C 
ATOM      4  C   LIG d   1     -11.122  80.612 121.153  0.00  0.00     0.028 C 
ATOM      5  C   LIG d   1     -10.534  81.739 121.996  0.00  0.00    -0.047 C 
ATOM      6  C   LIG d   1      -9.469  82.487 121.162  0.00  0.00     0.091 C 
ENDROOT
BRANCH   1   7
ATOM      7  O   LIG d   1      -7.681  82.126 119.526  0.00  0.00    -0.368 OA
BRANCH   7   8
ATOM      8  C   LIG d   1      -7.968  81.578 118.215  0.00  0.00     0.119 C 
BRANCH   8   9
ATOM      9  C   LIG d   1      -6.639  81.515 117.438  0.00  0.00     0.028 C 
ATOM     10  C   LIG d   1      -5.867  80.211 117.699  0.00  0.00     0.006 C 
ENDBRANCH   8   9
BRANCH   8  11
ATOM     11  C   LIG d   1      -8.868  82.516 117.405  0.00  0.00     0.028 C 
ATOM     12  C   LIG d   1     -10.332  82.050 117.365  0.00  0.00     0.006 C 
ENDBRANCH   8  11
ENDBRANCH   7   8
ENDBRANCH   1   7
BRANCH   6  13
ATOM     13  N   LIG d   1      -8.784  83.551 121.941  0.00  0.00    -0.311 N 
ATOM     14  C   LIG d   1      -9.211  84.812 121.991  0.00  0.00     0.210 C 
ATOM     15  C   LIG d   1      -8.347  85.754 122.836  0.00  0.00     0.109 C 
ATOM     16  O   LIG d   1     -10.240  85.233 121.442  0.00  0.00    -0.276 OA
ATOM     17  H   LIG d   1      -7.958  83.290 122.442  0.00  0.00     0.149 HD
ENDBRANCH   6  13
BRANCH   5  18
ATOM     18  N   LIG d   1     -11.649  82.606 122.421  0.00  0.00     0.381 N 
ATOM     19  H   LIG d   1     -11.693  83.414 121.832  0.00  0.00    -0.090 HD
ATOM     20  H   LIG d   1     -11.483  82.911 123.363  0.00  0.00    -0.090 HD
ATOM     21  H   LIG d   1     -12.509  82.104 122.373  0.00  0.00    -0.090 HD
ENDBRANCH   5  18
BRANCH   3  22
ATOM     22  C   LIG d   1     -10.469  78.452 120.351  0.00  0.00     0.382 C 
ATOM     23  O   LIG d   1     -10.191  77.584 121.213  0.00  0.00    -0.241 OA
ATOM     24  O   LIG d   1     -10.992  78.102 119.275  0.00  0.00    -0.241 OA
ENDBRANCH   3  22
TORSDOF 7
ENDMDL
MODEL 5
REMARK VINA RESULT:      -4.3     13.069     15.704
REMARK  7 active torsions:
REMARK  status: ('A' for Active; 'I' for Inactive)
REMARK    1  A    between atoms: C_2  and  C_3 
REMARK    2  A    between atoms: C_3  and  O_6 
REMARK    3  A    between atoms: C_3  and  C_4 
REMARK    4  A    between atoms: C_7  and  O_6 
REMARK    5  A    between atoms: C_9  and  C_10 
REMARK    6  A    between atoms: N_15  and  C_14 
REMARK    7  A    between atoms: N_20  and  C_19 
REMARK       I    between atoms: C_22  and  N_20 
ROOT
ATOM      1  C   LIG d   1      -3.139  93.230 118.162  0.00  0.00     0.161 C 
ATOM      2  C   LIG d   1      -4.516  93.240 117.882  0.00  0.00     0.016 C 
ATOM      3  C   LIG d   1      -5.341  92.097 117.996  0.00  0.00     0.038 C 
ATOM      4  C   LIG d   1      -4.871  90.896 118.548  0.00  0.00     0.028 C 
ATOM      5  C   LIG d   1      -3.370  90.694 118.371  0.00  0.00    -0.047 C 
ATOM      6  C   LIG d   1      -2.632  91.957 118.870  0.00  0.00     0.091 C 
ENDROOT
BRANCH   1   7
ATOM      7  O   LIG d   1      -2.787  94.402 118.924  0.00  0.00    -0.368 OA
BRANCH   7   8
ATOM      8  C   LIG d   1      -3.865  95.330 119.200  0.00  0.00     0.119 C 
BRANCH   8   9
ATOM      9  C   LIG d   1      -3.420  96.719 118.702  0.00  0.00     0.028 C 
ATOM     10  C   LIG d   1      -4.526  97.777 118.847  0.00  0.00     0.006 C 
ENDBRANCH   8   9
BRANCH   8  11
ATOM     11  C   LIG d   1      -4.090  95.492 120.706  0.00  0.00     0.028 C 
ATOM     12  C   LIG d   1      -5.150  94.526 121.258  0.00  0.00     0.006 C 
ENDBRANCH   8  11
ENDBRANCH   7   8
ENDBRANCH   1   7
BRANCH   6  13
ATOM     13  N   LIG d   1      -1.163  91.878 118.656  0.00  0.00    -0.311 N 
ATOM     14  C   LIG d   1      -0.309  91.445 119.582  0.00  0.00     0.210 C 
ATOM     15  C   LIG d   1       1.164  91.462 119.162  0.00  0.00     0.109 C 
ATOM     16  O   LIG d   1      -0.635  91.018 120.700  0.00  0.00    -0.276 OA
ATOM     17  H   LIG d   1      -0.816  92.175 117.765  0.00  0.00     0.149 HD
ENDBRANCH   6  13
BRANCH   5  18
ATOM     18  N   LIG d   1      -2.994  89.474 119.110  0.00  0.00     0.381 N 
ATOM     19  H   LIG d   1      -2.588  88.809 118.482  0.00  0.00    -0.090 HD
ATOM     20  H   LIG d   1      -3.822  89.068 119.509  0.00  0.00    -0.090 HD
ATOM     21  H   LIG d   1      -2.345  89.699 119.832  0.00  0.00    -0.090 HD
ENDBRANCH   5  18
BRANCH   3  22
ATOM     22  C   LIG d   1      -6.642  92.139 117.519  0.00  0.00     0.382 C 
ATOM     23  O   LIG d   1      -7.213  93.243 117.350  0.00  0.00    -0.241 OA
ATOM     24  O   LIG d   1      -7.267  91.084 117.297  0.00  0.00    -0.241 OA
ENDBRANCH   3  22
TORSDOF 7
ENDMDL
MODEL 6
REMARK VINA RESULT:      -4.3      8.538     11.025
REMARK  7 active torsions:
REMARK  status: ('A' for Active; 'I' for Inactive)
REMARK    1  A    between atoms: C_2  and  C_3 
REMARK    2  A    between atoms: C_3  and  O_6 
REMARK    3  A    between atoms: C_3  and  C_4 
REMARK    4  A    between atoms: C_7  and  O_6 
REMARK    5  A    between atoms: C_9  and  C_10 
REMARK    6  A    between atoms: N_15  and  C_14 
REMARK    7  A    between atoms: N_20  and  C_19 
REMARK       I    between atoms: C_22  and  N_20 
ROOT
ATOM      1  C   LIG d   1     -18.381  75.932 119.490  0.00  0.00     0.161 C 
ATOM      2  C   LIG d   1     -18.113  77.311 119.496  0.00  0.00     0.016 C 
ATOM      3  C   LIG d   1     -18.782  78.230 120.336  0.00  0.00     0.038 C 
ATOM      4  C   LIG d   1     -19.665  77.809 121.341  0.00  0.00     0.028 C 
ATOM      5  C   LIG d   1     -20.343  76.478 121.034  0.00  0.00    -0.047 C 
ATOM      6  C   LIG d   1     -19.261  75.440 120.658  0.00  0.00     0.091 C 
ENDROOT
BRANCH   1   7
ATOM      7  O   LIG d   1     -17.144  75.194 119.449  0.00  0.00    -0.368 OA
BRANCH   7   8
ATOM      8  C   LIG d   1     -16.394  75.137 120.687  0.00  0.00     0.119 C 
BRANCH   8   9
ATOM      9  C   LIG d   1     -14.976  75.663 120.395  0.00  0.00     0.028 C 
ATOM     10  C   LIG d   1     -14.046  75.554 121.615  0.00  0.00     0.006 C 
ENDBRANCH   8   9
BRANCH   8  11
ATOM     11  C   LIG d   1     -16.202  73.692 121.156  0.00  0.00     0.028 C 
ATOM     12  C   LIG d   1     -16.504  72.663 120.055  0.00  0.00     0.006 C 
ENDBRANCH   8  11
ENDBRANCH   7   8
ENDBRANCH   1   7
BRANCH   6  13
ATOM     13  N   LIG d   1     -19.845  74.132 120.261  0.00  0.00    -0.311 N 
ATOM     14  C   LIG d   1     -19.989  73.108 121.101  0.00  0.00     0.210 C 
ATOM     15  C   LIG d   1     -20.595  71.844 120.482  0.00  0.00     0.109 C 
ATOM     16  O   LIG d   1     -19.702  73.137 122.307  0.00  0.00    -0.276 OA
ATOM     17  H   LIG d   1     -20.133  74.032 119.307  0.00  0.00     0.149 HD
ENDBRANCH   6  13
BRANCH   5  18
ATOM     18  N   LIG d   1     -21.126  76.092 122.223  0.00  0.00     0.381 N 
ATOM     19  H   LIG d   1     -20.726  76.506 123.041  0.00  0.00    -0.090 HD
ATOM     20  H   LIG d   1     -21.091  75.093 122.325  0.00  0.00    -0.090 HD
ATOM     21  H   LIG d   1     -22.071  76.390 122.119  0.00  0.00    -0.090 HD
ENDBRANCH   5  18
BRANCH   3  22
ATOM     22  C   LIG d   1     -18.601  79.592 120.147  0.00  0.00     0.382 C 
ATOM     23  O   LIG d   1     -19.536  80.292 119.689  0.00  0.00    -0.241 OA
ATOM     24  O   LIG d   1     -17.499  80.122 120.387  0.00  0.00    -0.241 OA
ENDBRANCH   3  22
TORSDOF 7
ENDMDL
MODEL 7
REMARK VINA RESULT:      -4.3     20.355     22.349
REMARK  7 active torsions:
REMARK  status: ('A' for Active; 'I' for Inactive)
REMARK    1  A    between atoms: C_2  and  C_3 
REMARK    2  A    between atoms: C_3  and  O_6 
REMARK    3  A    between atoms: C_3  and  C_4 
REMARK    4  A    between atoms: C_7  and  O_6 
REMARK    5  A    between atoms: C_9  and  C_10 
REMARK    6  A    between atoms: N_15  and  C_14 
REMARK    7  A    between atoms: N_20  and  C_19 
REMARK       I    between atoms: C_22  and  N_20 
ROOT
ATOM      1  C   LIG d   1      -1.563  57.963 121.022  0.00  0.00     0.161 C 
ATOM      2  C   LIG d   1      -2.328  58.903 120.313  0.00  0.00     0.016 C 
ATOM      3  C   LIG d   1      -3.379  58.549 119.435  0.00  0.00     0.038 C 
ATOM      4  C   LIG d   1      -3.837  57.228 119.322  0.00  0.00     0.028 C 
ATOM      5  C   LIG d   1      -2.767  56.187 119.634  0.00  0.00    -0.047 C 
ATOM      6  C   LIG d   1      -2.121  56.524 120.997  0.00  0.00     0.091 C 
ENDROOT
BRANCH   1   7
ATOM      7  O   LIG d   1      -1.381  58.406 122.382  0.00  0.00    -0.368 OA
BRANCH   7   8
ATOM      8  C   LIG d   1      -2.451  59.210 122.938  0.00  0.00     0.119 C 
BRANCH   8   9
ATOM      9  C   LIG d   1      -1.803  60.305 123.808  0.00  0.00     0.028 C 
ATOM     10  C   LIG d   1      -0.801  59.732 124.824  0.00  0.00     0.006 C 
ENDBRANCH   8   9
BRANCH   8  11
ATOM     11  C   LIG d   1      -3.320  58.392 123.898  0.00  0.00     0.028 C 
ATOM     12  C   LIG d   1      -4.685  58.021 123.297  0.00  0.00     0.006 C 
ENDBRANCH   8  11
ENDBRANCH   7   8
ENDBRANCH   1   7
BRANCH   6  13
ATOM     13  N   LIG d   1      -1.005  55.604 121.340  0.00  0.00    -0.311 N 
ATOM     14  C   LIG d   1      -0.979  54.863 122.446  0.00  0.00     0.210 C 
ATOM     15  C   LIG d   1       0.273  53.997 122.616  0.00  0.00     0.109 C 
ATOM     16  O   LIG d   1      -1.889  54.817 123.288  0.00  0.00    -0.276 OA
ATOM     17  H   LIG d   1      -0.240  55.556 120.696  0.00  0.00     0.149 HD
ENDBRANCH   6  13
BRANCH   5  18
ATOM     18  N   LIG d   1      -3.415  54.862 119.614  0.00  0.00     0.381 N 
ATOM     19  H   LIG d   1      -4.262  54.891 120.145  0.00  0.00    -0.090 HD
ATOM     20  H   LIG d   1      -2.798  54.192 120.039  0.00  0.00    -0.090 HD
ATOM     21  H   LIG d   1      -3.612  54.593 118.675  0.00  0.00    -0.090 HD
ENDBRANCH   5  18
BRANCH   3  22
ATOM     22  C   LIG d   1      -3.956  59.517 118.628  0.00  0.00     0.382 C 
ATOM     23  O   LIG d   1      -3.263  60.472 118.201  0.00  0.00    -0.241 OA
ATOM     24  O   LIG d   1      -5.171  59.473 118.358  0.00  0.00    -0.241 OA
ENDBRANCH   3  22
TORSDOF 7
ENDMDL
MODEL 8
REMARK VINA RESULT:      -4.1      7.435     10.166
REMARK  7 active torsions:
REMARK  status: ('A' for Active; 'I' for Inactive)
REMARK    1  A    between atoms: C_2  and  C_3 
REMARK    2  A    between atoms: C_3  and  O_6 
REMARK    3  A    between atoms: C_3  and  C_4 
REMARK    4  A    between atoms: C_7  and  O_6 
REMARK    5  A    between atoms: C_9  and  C_10 
REMARK    6  A    between atoms: N_15  and  C_14 
REMARK    7  A    between atoms: N_20  and  C_19 
REMARK       I    between atoms: C_22  and  N_20 
ROOT
ATOM      1  C   LIG d   1     -17.002  77.489 121.722  0.00  0.00     0.161 C 
ATOM      2  C   LIG d   1     -17.161  76.222 121.136  0.00  0.00     0.016 C 
ATOM      3  C   LIG d   1     -17.970  75.985 120.001  0.00  0.00     0.038 C 
ATOM      4  C   LIG d   1     -18.559  77.033 119.279  0.00  0.00     0.028 C 
ATOM      5  C   LIG d   1     -18.838  78.270 120.126  0.00  0.00    -0.047 C 
ATOM      6  C   LIG d   1     -17.548  78.662 120.882  0.00  0.00     0.091 C 
ENDROOT
BRANCH   1   7
ATOM      7  O   LIG d   1     -15.614  77.707 122.045  0.00  0.00    -0.368 OA
BRANCH   7   8
ATOM      8  C   LIG d   1     -14.821  76.519 122.285  0.00  0.00     0.119 C 
BRANCH   8   9
ATOM      9  C   LIG d   1     -14.421  76.522 123.773  0.00  0.00     0.028 C 
ATOM     10  C   LIG d   1     -12.922  76.794 123.977  0.00  0.00     0.006 C 
ENDBRANCH   8   9
BRANCH   8  11
ATOM     11  C   LIG d   1     -13.500  76.565 121.510  0.00  0.00     0.028 C 
ATOM     12  C   LIG d   1     -13.619  75.976 120.095  0.00  0.00     0.006 C 
ENDBRANCH   8  11
ENDBRANCH   7   8
ENDBRANCH   1   7
BRANCH   6  13
ATOM     13  N   LIG d   1     -17.756  79.813 121.799  0.00  0.00    -0.311 N 
ATOM     14  C   LIG d   1     -17.490  81.075 121.465  0.00  0.00     0.210 C 
ATOM     15  C   LIG d   1     -17.758  82.106 122.566  0.00  0.00     0.109 C 
ATOM     16  O   LIG d   1     -17.089  81.441 120.350  0.00  0.00    -0.276 OA
ATOM     17  H   LIG d   1     -18.109  79.610 122.714  0.00  0.00     0.149 HD
ENDBRANCH   6  13
BRANCH   5  18
ATOM     18  N   LIG d   1     -19.323  79.330 119.221  0.00  0.00     0.381 N 
ATOM     19  H   LIG d   1     -19.822  78.920 118.457  0.00  0.00    -0.090 HD
ATOM     20  H   LIG d   1     -18.533  79.828 118.851  0.00  0.00    -0.090 HD
ATOM     21  H   LIG d   1     -19.917  79.957 119.718  0.00  0.00    -0.090 HD
ENDBRANCH   5  18
BRANCH   3  22
ATOM     22  C   LIG d   1     -18.228  74.683 119.601  0.00  0.00     0.382 C 
ATOM     23  O   LIG d   1     -19.337  74.156 119.859  0.00  0.00    -0.241 OA
ATOM     24  O   LIG d   1     -17.350  74.013 119.024  0.00  0.00    -0.241 OA
ENDBRANCH   3  22
TORSDOF 7
ENDMDL
MODEL 9
REMARK VINA RESULT:      -4.0      8.663     10.720
REMARK  7 active torsions:
REMARK  status: ('A' for Active; 'I' for Inactive)
REMARK    1  A    between atoms: C_2  and  C_3 
REMARK    2  A    between atoms: C_3  and  O_6 
REMARK    3  A    between atoms: C_3  and  C_4 
REMARK    4  A    between atoms: C_7  and  O_6 
REMARK    5  A    between atoms: C_9  and  C_10 
REMARK    6  A    between atoms: N_15  and  C_14 
REMARK    7  A    between atoms: N_20  and  C_19 
REMARK       I    between atoms: C_22  and  N_20 
ROOT
ATOM      1  C   LIG d   1     -19.122  75.953 120.632  0.00  0.00     0.161 C 
ATOM      2  C   LIG d   1     -19.324  77.341 120.555  0.00  0.00     0.016 C 
ATOM      3  C   LIG d   1     -18.305  78.259 120.212  0.00  0.00     0.038 C 
ATOM      4  C   LIG d   1     -17.042  77.834 119.773  0.00  0.00     0.028 C 
ATOM      5  C   LIG d   1     -16.639  76.468 120.320  0.00  0.00    -0.047 C 
ATOM      6  C   LIG d   1     -17.780  75.462 120.049  0.00  0.00     0.091 C 
ENDROOT
BRANCH   1   7
ATOM      7  O   LIG d   1     -20.222  75.263 120.007  0.00  0.00    -0.368 OA
BRANCH   7   8
ATOM      8  C   LIG d   1     -21.310  74.874 120.882  0.00  0.00     0.119 C 
BRANCH   8   9
ATOM      9  C   LIG d   1     -21.718  73.438 120.503  0.00  0.00     0.028 C 
ATOM     10  C   LIG d   1     -20.528  72.463 120.530  0.00  0.00     0.006 C 
ENDBRANCH   8   9
BRANCH   8  11
ATOM     11  C   LIG d   1     -22.557  75.729 120.635  0.00  0.00     0.028 C 
ATOM     12  C   LIG d   1     -23.654  74.973 119.868  0.00  0.00     0.006 C 
ENDBRANCH   8  11
ENDBRANCH   7   8
ENDBRANCH   1   7
BRANCH   6  13
ATOM     13  N   LIG d   1     -17.503  74.121 120.626  0.00  0.00    -0.311 N 
ATOM     14  C   LIG d   1     -16.840  73.166 119.976  0.00  0.00     0.210 C 
ATOM     15  C   LIG d   1     -16.681  71.851 120.745  0.00  0.00     0.109 C 
ATOM     16  O   LIG d   1     -16.341  73.294 118.848  0.00  0.00    -0.276 OA
ATOM     17  H   LIG d   1     -17.845  73.942 121.550  0.00  0.00     0.149 HD
ENDBRANCH   6  13
BRANCH   5  18
ATOM     18  N   LIG d   1     -15.368  76.088 119.675  0.00  0.00     0.381 N 
ATOM     19  H   LIG d   1     -15.291  76.540 118.785  0.00  0.00    -0.090 HD
ATOM     20  H   LIG d   1     -15.363  75.094 119.525  0.00  0.00    -0.090 HD
ATOM     21  H   LIG d   1     -14.600  76.348 120.254  0.00  0.00    -0.090 HD
ENDBRANCH   5  18
BRANCH   3  22
ATOM     22  C   LIG d   1     -18.532  79.620 120.346  0.00  0.00     0.382 C 
ATOM     23  O   LIG d   1     -17.573  80.426 120.269  0.00  0.00    -0.241 OA
ATOM     24  O   LIG d   1     -19.676  80.049 120.587  0.00  0.00    -0.241 OA
ENDBRANCH   3  22
TORSDOF 7
ENDMDL
