MODEL 1
REMARK VINA RESULT:      -6.5      0.000      0.000
REMARK  7 active torsions:
REMARK  status: ('A' for Active; 'I' for Inactive)
REMARK    1  A    between atoms: C_2  and  C_3 
REMARK    2  A    between atoms: C_3  and  O_6 
REMARK    3  A    between atoms: C_3  and  C_4 
REMARK    4  A    between atoms: C_7  and  O_6 
REMARK    5  A    between atoms: C_9  and  C_10 
REMARK    6  A    between atoms: N_15  and  C_14 
REMARK    7  A    between atoms: N_20  and  C_19 
REMARK       I    between atoms: C_22  and  N_20 
ROOT
ATOM      1  C   LIG d   1       1.212  81.484 111.797  0.00  0.00     0.161 C 
ATOM      2  C   LIG d   1       2.319  81.977 111.087  0.00  0.00     0.016 C 
ATOM      3  C   LIG d   1       2.489  81.805 109.694  0.00  0.00     0.038 C 
ATOM      4  C   LIG d   1       1.482  81.256 108.886  0.00  0.00     0.028 C 
ATOM      5  C   LIG d   1       0.566  80.291 109.632  0.00  0.00    -0.047 C 
ATOM      6  C   LIG d   1       0.050  80.980 110.916  0.00  0.00     0.091 C 
ENDROOT
BRANCH   1   7
ATOM      7  O   LIG d   1       0.742  82.483 112.723  0.00  0.00    -0.368 OA
BRANCH   7   8
ATOM      8  C   LIG d   1       0.912  83.862 112.313  0.00  0.00     0.119 C 
BRANCH   8   9
ATOM      9  C   LIG d   1       1.525  84.627 113.503  0.00  0.00     0.028 C 
ATOM     10  C   LIG d   1       2.661  85.569 113.072  0.00  0.00     0.006 C 
ENDBRANCH   8   9
BRANCH   8  11
ATOM     11  C   LIG d   1      -0.438  84.536 112.051  0.00  0.00     0.028 C 
ATOM     12  C   LIG d   1      -0.654  84.881 110.568  0.00  0.00     0.006 C 
ENDBRANCH   8  11
ENDBRANCH   7   8
ENDBRANCH   1   7
BRANCH   6  13
ATOM     13  N   LIG d   1      -0.786  80.075 111.748  0.00  0.00    -0.311 N 
ATOM     14  C   LIG d   1      -1.909  80.462 112.350  0.00  0.00     0.210 C 
ATOM     15  C   LIG d   1      -2.607  79.377 113.176  0.00  0.00     0.109 C 
ATOM     16  O   LIG d   1      -2.410  81.592 112.253  0.00  0.00    -0.276 OA
ATOM     17  H   LIG d   1      -0.469  79.131 111.855  0.00  0.00     0.149 HD
ENDBRANCH   6  13
BRANCH   5  18
ATOM     18  N   LIG d   1      -0.517  79.901 108.709  0.00  0.00     0.381 N 
ATOM     19  H   LIG d   1      -1.397  80.209 109.072  0.00  0.00    -0.090 HD
ATOM     20  H   LIG d   1      -0.538  78.899 108.637  0.00  0.00    -0.090 HD
ATOM     21  H   LIG d   1      -0.361  80.303 107.811  0.00  0.00    -0.090 HD
ENDBRANCH   5  18
BRANCH   3  22
ATOM     22  C   LIG d   1       3.694  82.149 109.101  0.00  0.00     0.382 C 
ATOM     23  O   LIG d   1       4.058  81.579 108.044  0.00  0.00    -0.241 OA
ATOM     24  O   LIG d   1       4.443  82.990 109.633  0.00  0.00    -0.241 OA
ENDBRANCH   3  22
TORSDOF 7
ENDMDL
MODEL 2
REMARK VINA RESULT:      -6.2      1.497      4.944
REMARK  7 active torsions:
REMARK  status: ('A' for Active; 'I' for Inactive)
REMARK    1  A    between atoms: C_2  and  C_3 
REMARK    2  A    between atoms: C_3  and  O_6 
REMARK    3  A    between atoms: C_3  and  C_4 
REMARK    4  A    between atoms: C_7  and  O_6 
REMARK    5  A    between atoms: C_9  and  C_10 
REMARK    6  A    between atoms: N_15  and  C_14 
REMARK    7  A    between atoms: N_20  and  C_19 
REMARK       I    between atoms: C_22  and  N_20 
ROOT
ATOM      1  C   LIG d   1       0.099  82.392 111.211  0.00  0.00     0.161 C 
ATOM      2  C   LIG d   1      -1.041  82.090 111.973  0.00  0.00     0.016 C 
ATOM      3  C   LIG d   1      -1.624  80.803 112.024  0.00  0.00     0.038 C 
ATOM      4  C   LIG d   1      -1.013  79.688 111.431  0.00  0.00     0.028 C 
ATOM      5  C   LIG d   1      -0.137  80.043 110.234  0.00  0.00    -0.047 C 
ATOM      6  C   LIG d   1       0.844  81.165 110.646  0.00  0.00     0.091 C 
ENDROOT
BRANCH   1   7
ATOM      7  O   LIG d   1       0.999  83.213 111.982  0.00  0.00    -0.368 OA
BRANCH   7   8
ATOM      8  C   LIG d   1       0.829  84.645 111.848  0.00  0.00     0.119 C 
BRANCH   8   9
ATOM      9  C   LIG d   1       0.475  84.934 110.376  0.00  0.00     0.028 C 
ATOM     10  C   LIG d   1      -0.844  85.711 110.231  0.00  0.00     0.006 C 
ENDBRANCH   8   9
BRANCH   8  11
ATOM     11  C   LIG d   1       2.144  85.389 112.102  0.00  0.00     0.028 C 
ATOM     12  C   LIG d   1       3.105  85.326 110.904  0.00  0.00     0.006 C 
ENDBRANCH   8  11
ENDBRANCH   7   8
ENDBRANCH   1   7
BRANCH   6  13
ATOM     13  N   LIG d   1       1.681  81.630 109.510  0.00  0.00    -0.311 N 
ATOM     14  C   LIG d   1       2.989  81.860 109.609  0.00  0.00     0.210 C 
ATOM     15  C   LIG d   1       3.659  82.354 108.323  0.00  0.00     0.109 C 
ATOM     16  O   LIG d   1       3.665  81.671 110.632  0.00  0.00    -0.276 OA
ATOM     17  H   LIG d   1       1.220  81.780 108.634  0.00  0.00     0.149 HD
ENDBRANCH   6  13
BRANCH   5  18
ATOM     18  N   LIG d   1       0.545  78.809 109.799  0.00  0.00     0.381 N 
ATOM     19  H   LIG d   1       0.447  78.699 108.810  0.00  0.00    -0.090 HD
ATOM     20  H   LIG d   1       0.111  78.022 110.249  0.00  0.00    -0.090 HD
ATOM     21  H   LIG d   1       1.510  78.849 110.043  0.00  0.00    -0.090 HD
ENDBRANCH   5  18
BRANCH   3  22
ATOM     22  C   LIG d   1      -2.854  80.629 112.641  0.00  0.00     0.382 C 
ATOM     23  O   LIG d   1      -3.146  79.523 113.155  0.00  0.00    -0.241 OA
ATOM     24  O   LIG d   1      -3.691  81.551 112.652  0.00  0.00    -0.241 OA
ENDBRANCH   3  22
TORSDOF 7
ENDMDL
MODEL 3
REMARK VINA RESULT:      -6.0      2.763      5.367
REMARK  7 active torsions:
REMARK  status: ('A' for Active; 'I' for Inactive)
REMARK    1  A    between atoms: C_2  and  C_3 
REMARK    2  A    between atoms: C_3  and  O_6 
REMARK    3  A    between atoms: C_3  and  C_4 
REMARK    4  A    between atoms: C_7  and  O_6 
REMARK    5  A    between atoms: C_9  and  C_10 
REMARK    6  A    between atoms: N_15  and  C_14 
REMARK    7  A    between atoms: N_20  and  C_19 
REMARK       I    between atoms: C_22  and  N_20 
ROOT
ATOM      1  C   LIG d   1       1.935  85.408 110.570  0.00  0.00     0.161 C 
ATOM      2  C   LIG d   1       0.896  86.166 111.135  0.00  0.00     0.016 C 
ATOM      3  C   LIG d   1      -0.357  85.621 111.496  0.00  0.00     0.038 C 
ATOM      4  C   LIG d   1      -0.604  84.240 111.457  0.00  0.00     0.028 C 
ATOM      5  C   LIG d   1       0.238  83.504 110.422  0.00  0.00    -0.047 C 
ATOM      6  C   LIG d   1       1.724  83.881 110.623  0.00  0.00     0.091 C 
ENDROOT
BRANCH   1   7
ATOM      7  O   LIG d   1       3.189  85.762 111.187  0.00  0.00    -0.368 OA
BRANCH   7   8
ATOM      8  C   LIG d   1       3.101  86.513 112.423  0.00  0.00     0.119 C 
BRANCH   8   9
ATOM      9  C   LIG d   1       4.242  87.549 112.417  0.00  0.00     0.028 C 
ATOM     10  C   LIG d   1       4.066  88.622 113.505  0.00  0.00     0.006 C 
ENDBRANCH   8   9
BRANCH   8  11
ATOM     11  C   LIG d   1       3.372  85.620 113.638  0.00  0.00     0.028 C 
ATOM     12  C   LIG d   1       2.120  85.392 114.500  0.00  0.00     0.006 C 
ENDBRANCH   8  11
ENDBRANCH   7   8
ENDBRANCH   1   7
BRANCH   6  13
ATOM     13  N   LIG d   1       2.608  83.268 109.598  0.00  0.00    -0.311 N 
ATOM     14  C   LIG d   1       3.326  82.167 109.811  0.00  0.00     0.210 C 
ATOM     15  C   LIG d   1       4.186  81.716 108.627  0.00  0.00     0.109 C 
ATOM     16  O   LIG d   1       3.307  81.503 110.859  0.00  0.00    -0.276 OA
ATOM     17  H   LIG d   1       2.659  83.725 108.708  0.00  0.00     0.149 HD
ENDBRANCH   6  13
BRANCH   5  18
ATOM     18  N   LIG d   1      -0.019  82.060 110.583  0.00  0.00     0.381 N 
ATOM     19  H   LIG d   1      -0.167  81.849 111.550  0.00  0.00    -0.090 HD
ATOM     20  H   LIG d   1       0.787  81.549 110.269  0.00  0.00    -0.090 HD
ATOM     21  H   LIG d   1      -0.818  81.795 110.051  0.00  0.00    -0.090 HD
ENDBRANCH   5  18
BRANCH   3  22
ATOM     22  C   LIG d   1      -1.394  86.465 111.865  0.00  0.00     0.382 C 
ATOM     23  O   LIG d   1      -1.902  87.240 111.020  0.00  0.00    -0.241 OA
ATOM     24  O   LIG d   1      -1.796  86.493 113.044  0.00  0.00    -0.241 OA
ENDBRANCH   3  22
TORSDOF 7
ENDMDL
MODEL 4
REMARK VINA RESULT:      -5.9      2.371      5.619
REMARK  7 active torsions:
REMARK  status: ('A' for Active; 'I' for Inactive)
REMARK    1  A    between atoms: C_2  and  C_3 
REMARK    2  A    between atoms: C_3  and  O_6 
REMARK    3  A    between atoms: C_3  and  C_4 
REMARK    4  A    between atoms: C_7  and  O_6 
REMARK    5  A    between atoms: C_9  and  C_10 
REMARK    6  A    between atoms: N_15  and  C_14 
REMARK    7  A    between atoms: N_20  and  C_19 
REMARK       I    between atoms: C_22  and  N_20 
ROOT
ATOM      1  C   LIG d   1       1.976  82.101 111.919  0.00  0.00     0.161 C 
ATOM      2  C   LIG d   1       1.062  81.036 111.971  0.00  0.00     0.016 C 
ATOM      3  C   LIG d   1      -0.339  81.208 111.881  0.00  0.00     0.038 C 
ATOM      4  C   LIG d   1      -0.915  82.450 111.579  0.00  0.00     0.028 C 
ATOM      5  C   LIG d   1      -0.064  83.636 112.019  0.00  0.00    -0.047 C 
ATOM      6  C   LIG d   1       1.373  83.451 111.478  0.00  0.00     0.091 C 
ENDROOT
BRANCH   1   7
ATOM      7  O   LIG d   1       3.088  81.749 111.071  0.00  0.00    -0.368 OA
BRANCH   7   8
ATOM      8  C   LIG d   1       2.768  81.450 109.690  0.00  0.00     0.119 C 
BRANCH   8   9
ATOM      9  C   LIG d   1       3.144  79.978 109.436  0.00  0.00     0.028 C 
ATOM     10  C   LIG d   1       1.935  79.127 109.013  0.00  0.00     0.006 C 
ENDBRANCH   8   9
BRANCH   8  11
ATOM     11  C   LIG d   1       3.638  82.263 108.728  0.00  0.00     0.028 C 
ATOM     12  C   LIG d   1       4.569  83.247 109.453  0.00  0.00     0.006 C 
ENDBRANCH   8  11
ENDBRANCH   7   8
ENDBRANCH   1   7
BRANCH   6  13
ATOM     13  N   LIG d   1       2.293  84.525 111.933  0.00  0.00    -0.311 N 
ATOM     14  C   LIG d   1       2.522  85.638 111.238  0.00  0.00     0.210 C 
ATOM     15  C   LIG d   1       3.521  86.607 111.878  0.00  0.00     0.109 C 
ATOM     16  O   LIG d   1       1.968  85.929 110.167  0.00  0.00    -0.276 OA
ATOM     17  H   LIG d   1       2.761  84.385 112.807  0.00  0.00     0.149 HD
ENDBRANCH   6  13
BRANCH   5  18
ATOM     18  N   LIG d   1      -0.715  84.862 111.520  0.00  0.00     0.381 N 
ATOM     19  H   LIG d   1      -0.495  85.631 112.121  0.00  0.00    -0.090 HD
ATOM     20  H   LIG d   1      -1.711  84.729 111.532  0.00  0.00    -0.090 HD
ATOM     21  H   LIG d   1      -0.410  85.058 110.593  0.00  0.00    -0.090 HD
ENDBRANCH   5  18
BRANCH   3  22
ATOM     22  C   LIG d   1      -1.180  80.135 112.134  0.00  0.00     0.382 C 
ATOM     23  O   LIG d   1      -1.636  79.458 111.181  0.00  0.00    -0.241 OA
ATOM     24  O   LIG d   1      -1.525  79.864 113.300  0.00  0.00    -0.241 OA
ENDBRANCH   3  22
TORSDOF 7
ENDMDL
MODEL 5
REMARK VINA RESULT:      -5.8      2.915      5.423
REMARK  7 active torsions:
REMARK  status: ('A' for Active; 'I' for Inactive)
REMARK    1  A    between atoms: C_2  and  C_3 
REMARK    2  A    between atoms: C_3  and  O_6 
REMARK    3  A    between atoms: C_3  and  C_4 
REMARK    4  A    between atoms: C_7  and  O_6 
REMARK    5  A    between atoms: C_9  and  C_10 
REMARK    6  A    between atoms: N_15  and  C_14 
REMARK    7  A    between atoms: N_20  and  C_19 
REMARK       I    between atoms: C_22  and  N_20 
ROOT
ATOM      1  C   LIG d   1       2.331  84.709 111.537  0.00  0.00     0.161 C 
ATOM      2  C   LIG d   1       2.905  85.980 111.705  0.00  0.00     0.016 C 
ATOM      3  C   LIG d   1       3.082  86.594 112.966  0.00  0.00     0.038 C 
ATOM      4  C   LIG d   1       2.833  85.909 114.165  0.00  0.00     0.028 C 
ATOM      5  C   LIG d   1       1.780  84.814 114.030  0.00  0.00    -0.047 C 
ATOM      6  C   LIG d   1       2.156  83.902 112.840  0.00  0.00     0.091 C 
ENDROOT
BRANCH   1   7
ATOM      7  O   LIG d   1       3.093  83.952 110.576  0.00  0.00    -0.368 OA
BRANCH   7   8
ATOM      8  C   LIG d   1       2.477  83.764 109.279  0.00  0.00     0.119 C 
BRANCH   8   9
ATOM      9  C   LIG d   1       0.984  84.118 109.419  0.00  0.00     0.028 C 
ATOM     10  C   LIG d   1       0.605  85.387 108.638  0.00  0.00     0.006 C 
ENDBRANCH   8   9
BRANCH   8  11
ATOM     11  C   LIG d   1       2.508  82.293 108.855  0.00  0.00     0.028 C 
ATOM     12  C   LIG d   1       3.936  81.755 108.673  0.00  0.00     0.006 C 
ENDBRANCH   8  11
ENDBRANCH   7   8
ENDBRANCH   1   7
BRANCH   6  13
ATOM     13  N   LIG d   1       1.133  82.853 112.585  0.00  0.00    -0.311 N 
ATOM     14  C   LIG d   1       1.436  81.590 112.292  0.00  0.00     0.210 C 
ATOM     15  C   LIG d   1       0.232  80.676 112.046  0.00  0.00     0.109 C 
ATOM     16  O   LIG d   1       2.588  81.132 112.244  0.00  0.00    -0.276 OA
ATOM     17  H   LIG d   1       0.173  83.131 112.635  0.00  0.00     0.149 HD
ENDBRANCH   6  13
BRANCH   5  18
ATOM     18  N   LIG d   1       1.720  84.093 115.315  0.00  0.00     0.381 N 
ATOM     19  H   LIG d   1       2.636  84.035 115.714  0.00  0.00    -0.090 HD
ATOM     20  H   LIG d   1       1.389  83.159 115.149  0.00  0.00    -0.090 HD
ATOM     21  H   LIG d   1       1.106  84.564 115.942  0.00  0.00    -0.090 HD
ENDBRANCH   5  18
BRANCH   3  22
ATOM     22  C   LIG d   1       3.475  87.922 113.035  0.00  0.00     0.382 C 
ATOM     23  O   LIG d   1       4.526  88.295 112.461  0.00  0.00    -0.241 OA
ATOM     24  O   LIG d   1       2.815  88.742 113.701  0.00  0.00    -0.241 OA
ENDBRANCH   3  22
TORSDOF 7
ENDMDL
MODEL 6
REMARK VINA RESULT:      -5.5      2.458      5.506
REMARK  7 active torsions:
REMARK  status: ('A' for Active; 'I' for Inactive)
REMARK    1  A    between atoms: C_2  and  C_3 
REMARK    2  A    between atoms: C_3  and  O_6 
REMARK    3  A    between atoms: C_3  and  C_4 
REMARK    4  A    between atoms: C_7  and  O_6 
REMARK    5  A    between atoms: C_9  and  C_10 
REMARK    6  A    between atoms: N_15  and  C_14 
REMARK    7  A    between atoms: N_20  and  C_19 
REMARK       I    between atoms: C_22  and  N_20 
ROOT
ATOM      1  C   LIG d   1       0.832  82.650 111.288  0.00  0.00     0.161 C 
ATOM      2  C   LIG d   1       1.180  82.795 112.642  0.00  0.00     0.016 C 
ATOM      3  C   LIG d   1       1.467  84.043 113.242  0.00  0.00     0.038 C 
ATOM      4  C   LIG d   1       1.278  85.254 112.561  0.00  0.00     0.028 C 
ATOM      5  C   LIG d   1       1.415  85.126 111.047  0.00  0.00    -0.047 C 
ATOM      6  C   LIG d   1       0.513  83.971 110.558  0.00  0.00     0.091 C 
ENDROOT
BRANCH   1   7
ATOM      7  O   LIG d   1      -0.269  81.729 111.163  0.00  0.00    -0.368 OA
BRANCH   7   8
ATOM      8  C   LIG d   1       0.083  80.333 110.995  0.00  0.00     0.119 C 
BRANCH   8   9
ATOM      9  C   LIG d   1       0.307  80.090 109.490  0.00  0.00     0.028 C 
ATOM     10  C   LIG d   1       1.697  79.502 109.192  0.00  0.00     0.006 C 
ENDBRANCH   8   9
BRANCH   8  11
ATOM     11  C   LIG d   1      -1.079  79.415 111.386  0.00  0.00     0.028 C 
ATOM     12  C   LIG d   1      -1.781  79.859 112.678  0.00  0.00     0.006 C 
ENDBRANCH   8  11
ENDBRANCH   7   8
ENDBRANCH   1   7
BRANCH   6  13
ATOM     13  N   LIG d   1       0.651  83.723 109.099  0.00  0.00    -0.311 N 
ATOM     14  C   LIG d   1       1.783  83.312 108.529  0.00  0.00     0.210 C 
ATOM     15  C   LIG d   1       1.715  83.136 107.009  0.00  0.00     0.109 C 
ATOM     16  O   LIG d   1       2.827  83.045 109.143  0.00  0.00    -0.276 OA
ATOM     17  H   LIG d   1      -0.157  83.884 108.530  0.00  0.00     0.149 HD
ENDBRANCH   6  13
BRANCH   5  18
ATOM     18  N   LIG d   1       1.059  86.429 110.455  0.00  0.00     0.381 N 
ATOM     19  H   LIG d   1       1.800  87.084 110.606  0.00  0.00    -0.090 HD
ATOM     20  H   LIG d   1       0.233  86.778 110.910  0.00  0.00    -0.090 HD
ATOM     21  H   LIG d   1       0.890  86.326 109.479  0.00  0.00    -0.090 HD
ENDBRANCH   5  18
BRANCH   3  22
ATOM     22  C   LIG d   1       1.988  84.084 114.526  0.00  0.00     0.382 C 
ATOM     23  O   LIG d   1       2.040  83.037 115.216  0.00  0.00    -0.241 OA
ATOM     24  O   LIG d   1       2.366  85.163 115.021  0.00  0.00    -0.241 OA
ENDBRANCH   3  22
TORSDOF 7
ENDMDL
MODEL 7
REMARK VINA RESULT:      -5.1     23.879     26.636
REMARK  7 active torsions:
REMARK  status: ('A' for Active; 'I' for Inactive)
REMARK    1  A    between atoms: C_2  and  C_3 
REMARK    2  A    between atoms: C_3  and  O_6 
REMARK    3  A    between atoms: C_3  and  C_4 
REMARK    4  A    between atoms: C_7  and  O_6 
REMARK    5  A    between atoms: C_9  and  C_10 
REMARK    6  A    between atoms: N_15  and  C_14 
REMARK    7  A    between atoms: N_20  and  C_19 
REMARK       I    between atoms: C_22  and  N_20 
ROOT
ATOM      1  C   LIG d   1     -25.604  85.686 113.896  0.00  0.00     0.161 C 
ATOM      2  C   LIG d   1     -24.542  86.604 113.934  0.00  0.00     0.016 C 
ATOM      3  C   LIG d   1     -23.218  86.278 113.560  0.00  0.00     0.038 C 
ATOM      4  C   LIG d   1     -22.895  85.044 112.976  0.00  0.00     0.028 C 
ATOM      5  C   LIG d   1     -23.834  83.915 113.388  0.00  0.00    -0.047 C 
ATOM      6  C   LIG d   1     -25.294  84.367 113.157  0.00  0.00     0.091 C 
ENDROOT
BRANCH   1   7
ATOM      7  O   LIG d   1     -26.773  86.313 113.332  0.00  0.00    -0.368 OA
BRANCH   7   8
ATOM      8  C   LIG d   1     -26.542  87.198 112.209  0.00  0.00     0.119 C 
BRANCH   8   9
ATOM      9  C   LIG d   1     -27.289  88.515 112.495  0.00  0.00     0.028 C 
ATOM     10  C   LIG d   1     -27.117  89.545 111.366  0.00  0.00     0.006 C 
ENDBRANCH   8   9
BRANCH   8  11
ATOM     11  C   LIG d   1     -27.170  86.645 110.926  0.00  0.00     0.028 C 
ATOM     12  C   LIG d   1     -28.567  86.048 111.156  0.00  0.00     0.006 C 
ENDBRANCH   8  11
ENDBRANCH   7   8
ENDBRANCH   1   7
BRANCH   6  13
ATOM     13  N   LIG d   1     -26.280  83.353 113.613  0.00  0.00    -0.311 N 
ATOM     14  C   LIG d   1     -27.111  82.717 112.789  0.00  0.00     0.210 C 
ATOM     15  C   LIG d   1     -28.061  81.725 113.468  0.00  0.00     0.109 C 
ATOM     16  O   LIG d   1     -27.129  82.856 111.557  0.00  0.00    -0.276 OA
ATOM     17  H   LIG d   1     -26.311  83.156 114.594  0.00  0.00     0.149 HD
ENDBRANCH   6  13
BRANCH   5  18
ATOM     18  N   LIG d   1     -23.467  82.722 112.602  0.00  0.00     0.381 N 
ATOM     19  H   LIG d   1     -22.652  82.295 112.995  0.00  0.00    -0.090 HD
ATOM     20  H   LIG d   1     -23.252  83.005 111.662  0.00  0.00    -0.090 HD
ATOM     21  H   LIG d   1     -24.222  82.072 112.597  0.00  0.00    -0.090 HD
ENDBRANCH   5  18
BRANCH   3  22
ATOM     22  C   LIG d   1     -22.193  87.179 113.807  0.00  0.00     0.382 C 
ATOM     23  O   LIG d   1     -22.373  88.130 114.604  0.00  0.00    -0.241 OA
ATOM     24  O   LIG d   1     -21.105  87.077 113.209  0.00  0.00    -0.241 OA
ENDBRANCH   3  22
TORSDOF 7
ENDMDL
MODEL 8
REMARK VINA RESULT:      -5.1      5.030      7.652
REMARK  7 active torsions:
REMARK  status: ('A' for Active; 'I' for Inactive)
REMARK    1  A    between atoms: C_2  and  C_3 
REMARK    2  A    between atoms: C_3  and  O_6 
REMARK    3  A    between atoms: C_3  and  C_4 
REMARK    4  A    between atoms: C_7  and  O_6 
REMARK    5  A    between atoms: C_9  and  C_10 
REMARK    6  A    between atoms: N_15  and  C_14 
REMARK    7  A    between atoms: N_20  and  C_19 
REMARK       I    between atoms: C_22  and  N_20 
ROOT
ATOM      1  C   LIG d   1       2.508  85.883 113.676  0.00  0.00     0.161 C 
ATOM      2  C   LIG d   1       2.004  84.697 114.238  0.00  0.00     0.016 C 
ATOM      3  C   LIG d   1       2.261  84.297 115.569  0.00  0.00     0.038 C 
ATOM      4  C   LIG d   1       2.918  85.136 116.482  0.00  0.00     0.028 C 
ATOM      5  C   LIG d   1       3.879  86.117 115.819  0.00  0.00    -0.047 C 
ATOM      6  C   LIG d   1       3.134  86.864 114.689  0.00  0.00     0.091 C 
ENDROOT
BRANCH   1   7
ATOM      7  O   LIG d   1       1.475  86.540 112.915  0.00  0.00    -0.368 OA
BRANCH   7   8
ATOM      8  C   LIG d   1       1.675  86.591 111.481  0.00  0.00     0.119 C 
BRANCH   8   9
ATOM      9  C   LIG d   1       0.478  85.879 110.820  0.00  0.00     0.028 C 
ATOM     10  C   LIG d   1      -0.820  86.040 111.630  0.00  0.00     0.006 C 
ENDBRANCH   8   9
BRANCH   8  11
ATOM     11  C   LIG d   1       2.908  85.786 111.061  0.00  0.00     0.028 C 
ATOM     12  C   LIG d   1       2.568  84.627 110.110  0.00  0.00     0.006 C 
ENDBRANCH   8  11
ENDBRANCH   7   8
ENDBRANCH   1   7
BRANCH   6  13
ATOM     13  N   LIG d   1       4.024  87.783 113.933  0.00  0.00    -0.311 N 
ATOM     14  C   LIG d   1       4.233  89.052 114.280  0.00  0.00     0.210 C 
ATOM     15  C   LIG d   1       5.171  89.830 113.353  0.00  0.00     0.109 C 
ATOM     16  O   LIG d   1       3.755  89.597 115.286  0.00  0.00    -0.276 OA
ATOM     17  H   LIG d   1       4.477  87.413 113.120  0.00  0.00     0.149 HD
ENDBRANCH   6  13
BRANCH   5  18
ATOM     18  N   LIG d   1       4.390  87.019 116.868  0.00  0.00     0.381 N 
ATOM     19  H   LIG d   1       3.677  87.181 117.552  0.00  0.00    -0.090 HD
ATOM     20  H   LIG d   1       4.631  87.900 116.451  0.00  0.00    -0.090 HD
ATOM     21  H   LIG d   1       5.192  86.618 117.302  0.00  0.00    -0.090 HD
ENDBRANCH   5  18
BRANCH   3  22
ATOM     22  C   LIG d   1       1.892  83.028 115.989  0.00  0.00     0.382 C 
ATOM     23  O   LIG d   1       2.150  82.032 115.271  0.00  0.00    -0.241 OA
ATOM     24  O   LIG d   1       1.266  82.872 117.054  0.00  0.00    -0.241 OA
ENDBRANCH   3  22
TORSDOF 7
ENDMDL
MODEL 9
REMARK VINA RESULT:      -4.8      2.633      5.762
REMARK  7 active torsions:
REMARK  status: ('A' for Active; 'I' for Inactive)
REMARK    1  A    between atoms: C_2  and  C_3 
REMARK    2  A    between atoms: C_3  and  O_6 
REMARK    3  A    between atoms: C_3  and  C_4 
REMARK    4  A    between atoms: C_7  and  O_6 
REMARK    5  A    between atoms: C_9  and  C_10 
REMARK    6  A    between atoms: N_15  and  C_14 
REMARK    7  A    between atoms: N_20  and  C_19 
REMARK       I    between atoms: C_22  and  N_20 
ROOT
ATOM      1  C   LIG d   1       1.460  83.636 111.824  0.00  0.00     0.161 C 
ATOM      2  C   LIG d   1       1.692  84.286 113.047  0.00  0.00     0.016 C 
ATOM      3  C   LIG d   1       1.026  85.471 113.437  0.00  0.00     0.038 C 
ATOM      4  C   LIG d   1      -0.033  86.006 112.690  0.00  0.00     0.028 C 
ATOM      5  C   LIG d   1       0.043  85.669 111.204  0.00  0.00    -0.047 C 
ATOM      6  C   LIG d   1       0.229  84.143 111.045  0.00  0.00     0.091 C 
ENDROOT
BRANCH   1   7
ATOM      7  O   LIG d   1       1.368  82.213 112.037  0.00  0.00    -0.368 OA
BRANCH   7   8
ATOM      8  C   LIG d   1       1.594  81.379 110.874  0.00  0.00     0.119 C 
BRANCH   8   9
ATOM      9  C   LIG d   1       0.600  80.204 110.947  0.00  0.00     0.028 C 
ATOM     10  C   LIG d   1       0.127  79.747 109.557  0.00  0.00     0.006 C 
ENDBRANCH   8   9
BRANCH   8  11
ATOM     11  C   LIG d   1       2.984  80.737 110.910  0.00  0.00     0.028 C 
ATOM     12  C   LIG d   1       3.753  80.905 109.590  0.00  0.00     0.006 C 
ENDBRANCH   8  11
ENDBRANCH   7   8
ENDBRANCH   1   7
BRANCH   6  13
ATOM     13  N   LIG d   1       0.396  83.738 109.625  0.00  0.00    -0.311 N 
ATOM     14  C   LIG d   1       1.515  83.943 108.931  0.00  0.00     0.210 C 
ATOM     15  C   LIG d   1       1.469  83.466 107.476  0.00  0.00     0.109 C 
ATOM     16  O   LIG d   1       2.551  84.445 109.392  0.00  0.00    -0.276 OA
ATOM     17  H   LIG d   1      -0.385  83.295 109.182  0.00  0.00     0.149 HD
ENDBRANCH   6  13
BRANCH   5  18
ATOM     18  N   LIG d   1      -1.191  86.171 110.570  0.00  0.00     0.381 N 
ATOM     19  H   LIG d   1      -0.961  86.834 109.857  0.00  0.00    -0.090 HD
ATOM     20  H   LIG d   1      -1.748  86.636 111.265  0.00  0.00    -0.090 HD
ATOM     21  H   LIG d   1      -1.704  85.413 110.176  0.00  0.00    -0.090 HD
ENDBRANCH   5  18
BRANCH   3  22
ATOM     22  C   LIG d   1       1.447  86.156 114.567  0.00  0.00     0.382 C 
ATOM     23  O   LIG d   1       2.384  85.698 115.265  0.00  0.00    -0.241 OA
ATOM     24  O   LIG d   1       0.873  87.202 114.922  0.00  0.00    -0.241 OA
ENDBRANCH   3  22
TORSDOF 7
ENDMDL
