MODEL 1
REMARK VINA RESULT:      -6.2      0.000      0.000
REMARK  7 active torsions:
REMARK  status: ('A' for Active; 'I' for Inactive)
REMARK    1  A    between atoms: C_2  and  C_3 
REMARK    2  A    between atoms: C_3  and  O_6 
REMARK    3  A    between atoms: C_3  and  C_4 
REMARK    4  A    between atoms: C_7  and  O_6 
REMARK    5  A    between atoms: C_9  and  C_10 
REMARK    6  A    between atoms: N_15  and  C_14 
REMARK    7  A    between atoms: N_20  and  C_19 
REMARK       I    between atoms: C_22  and  N_20 
ROOT
ATOM      1  C   LIG d   1      -7.872  75.361 116.188  0.00  0.00     0.161 C 
ATOM      2  C   LIG d   1      -6.907  75.006 115.231  0.00  0.00     0.016 C 
ATOM      3  C   LIG d   1      -5.700  75.718 115.041  0.00  0.00     0.038 C 
ATOM      4  C   LIG d   1      -5.304  76.750 115.905  0.00  0.00     0.028 C 
ATOM      5  C   LIG d   1      -6.475  77.467 116.568  0.00  0.00    -0.047 C 
ATOM      6  C   LIG d   1      -7.407  76.417 117.213  0.00  0.00     0.091 C 
ENDROOT
BRANCH   1   7
ATOM      7  O   LIG d   1      -8.346  74.180 116.865  0.00  0.00    -0.368 OA
BRANCH   7   8
ATOM      8  C   LIG d   1      -8.948  73.164 116.026  0.00  0.00     0.119 C 
BRANCH   8   9
ATOM      9  C   LIG d   1     -10.427  73.036 116.442  0.00  0.00     0.028 C 
ATOM     10  C   LIG d   1     -10.952  74.303 117.138  0.00  0.00     0.006 C 
ENDBRANCH   8   9
BRANCH   8  11
ATOM     11  C   LIG d   1      -8.332  71.787 116.290  0.00  0.00     0.028 C 
ATOM     12  C   LIG d   1      -9.390  70.690 116.494  0.00  0.00     0.006 C 
ENDBRANCH   8  11
ENDBRANCH   7   8
ENDBRANCH   1   7
BRANCH   6  13
ATOM     13  N   LIG d   1      -8.622  77.028 117.811  0.00  0.00    -0.311 N 
ATOM     14  C   LIG d   1      -8.712  77.379 119.093  0.00  0.00     0.210 C 
ATOM     15  C   LIG d   1     -10.061  77.974 119.508  0.00  0.00     0.109 C 
ATOM     16  O   LIG d   1      -7.791  77.283 119.918  0.00  0.00    -0.276 OA
ATOM     17  H   LIG d   1      -9.407  77.171 117.205  0.00  0.00     0.149 HD
ENDBRANCH   6  13
BRANCH   5  18
ATOM     18  N   LIG d   1      -5.918  78.423 117.543  0.00  0.00     0.381 N 
ATOM     19  H   LIG d   1      -6.282  78.229 118.454  0.00  0.00    -0.090 HD
ATOM     20  H   LIG d   1      -6.197  79.353 117.283  0.00  0.00    -0.090 HD
ATOM     21  H   LIG d   1      -4.924  78.358 117.554  0.00  0.00    -0.090 HD
ENDBRANCH   5  18
BRANCH   3  22
ATOM     22  C   LIG d   1      -4.893  75.424 113.953  0.00  0.00     0.382 C 
ATOM     23  O   LIG d   1      -3.768  74.897 114.131  0.00  0.00    -0.241 OA
ATOM     24  O   LIG d   1      -5.256  75.719 112.799  0.00  0.00    -0.241 OA
ENDBRANCH   3  22
TORSDOF 7
ENDMDL
MODEL 2
REMARK VINA RESULT:      -6.2      1.650      4.940
REMARK  7 active torsions:
REMARK  status: ('A' for Active; 'I' for Inactive)
REMARK    1  A    between atoms: C_2  and  C_3 
REMARK    2  A    between atoms: C_3  and  O_6 
REMARK    3  A    between atoms: C_3  and  C_4 
REMARK    4  A    between atoms: C_7  and  O_6 
REMARK    5  A    between atoms: C_9  and  C_10 
REMARK    6  A    between atoms: N_15  and  C_14 
REMARK    7  A    between atoms: N_20  and  C_19 
REMARK       I    between atoms: C_22  and  N_20 
ROOT
ATOM      1  C   LIG d   1      -7.845  75.921 117.338  0.00  0.00     0.161 C 
ATOM      2  C   LIG d   1      -8.903  76.610 117.953  0.00  0.00     0.016 C 
ATOM      3  C   LIG d   1      -8.873  77.997 118.228  0.00  0.00     0.038 C 
ATOM      4  C   LIG d   1      -7.837  78.822 117.766  0.00  0.00     0.028 C 
ATOM      5  C   LIG d   1      -6.513  78.088 117.583  0.00  0.00    -0.047 C 
ATOM      6  C   LIG d   1      -6.754  76.825 116.726  0.00  0.00     0.091 C 
ENDROOT
BRANCH   1   7
ATOM      7  O   LIG d   1      -8.365  75.018 116.341  0.00  0.00    -0.368 OA
BRANCH   7   8
ATOM      8  C   LIG d   1      -8.301  73.607 116.665  0.00  0.00     0.119 C 
BRANCH   8   9
ATOM      9  C   LIG d   1      -7.258  72.965 115.730  0.00  0.00     0.028 C 
ATOM     10  C   LIG d   1      -6.868  71.545 116.173  0.00  0.00     0.006 C 
ENDBRANCH   8   9
BRANCH   8  11
ATOM     11  C   LIG d   1      -9.622  72.902 116.344  0.00  0.00     0.028 C 
ATOM     12  C   LIG d   1     -10.852  73.766 116.663  0.00  0.00     0.006 C 
ENDBRANCH   8  11
ENDBRANCH   7   8
ENDBRANCH   1   7
BRANCH   6  13
ATOM     13  N   LIG d   1      -5.525  76.003 116.570  0.00  0.00    -0.311 N 
ATOM     14  C   LIG d   1      -4.929  75.792 115.398  0.00  0.00     0.210 C 
ATOM     15  C   LIG d   1      -3.686  74.898 115.457  0.00  0.00     0.109 C 
ATOM     16  O   LIG d   1      -5.292  76.286 114.320  0.00  0.00    -0.276 OA
ATOM     17  H   LIG d   1      -5.145  75.590 117.398  0.00  0.00     0.149 HD
ENDBRANCH   6  13
BRANCH   5  18
ATOM     18  N   LIG d   1      -5.561  79.032 116.968  0.00  0.00     0.381 N 
ATOM     19  H   LIG d   1      -5.870  79.971 117.120  0.00  0.00    -0.090 HD
ATOM     20  H   LIG d   1      -5.533  78.865 115.977  0.00  0.00    -0.090 HD
ATOM     21  H   LIG d   1      -4.654  78.905 117.359  0.00  0.00    -0.090 HD
ENDBRANCH   5  18
BRANCH   3  22
ATOM     22  C   LIG d   1      -9.869  78.565 119.008  0.00  0.00     0.382 C 
ATOM     23  O   LIG d   1     -10.283  79.721 118.753  0.00  0.00    -0.241 OA
ATOM     24  O   LIG d   1     -10.327  77.953 119.992  0.00  0.00    -0.241 OA
ENDBRANCH   3  22
TORSDOF 7
ENDMDL
MODEL 3
REMARK VINA RESULT:      -6.0     14.850     16.510
REMARK  7 active torsions:
REMARK  status: ('A' for Active; 'I' for Inactive)
REMARK    1  A    between atoms: C_2  and  C_3 
REMARK    2  A    between atoms: C_3  and  O_6 
REMARK    3  A    between atoms: C_3  and  C_4 
REMARK    4  A    between atoms: C_7  and  O_6 
REMARK    5  A    between atoms: C_9  and  C_10 
REMARK    6  A    between atoms: N_15  and  C_14 
REMARK    7  A    between atoms: N_20  and  C_19 
REMARK       I    between atoms: C_22  and  N_20 
ROOT
ATOM      1  C   LIG d   1      -4.458  90.508 117.491  0.00  0.00     0.161 C 
ATOM      2  C   LIG d   1      -5.178  89.881 116.460  0.00  0.00     0.016 C 
ATOM      3  C   LIG d   1      -6.327  90.443 115.860  0.00  0.00     0.038 C 
ATOM      4  C   LIG d   1      -6.750  91.749 116.147  0.00  0.00     0.028 C 
ATOM      5  C   LIG d   1      -6.354  92.221 117.542  0.00  0.00    -0.047 C 
ATOM      6  C   LIG d   1      -4.839  91.983 117.741  0.00  0.00     0.091 C 
ENDROOT
BRANCH   1   7
ATOM      7  O   LIG d   1      -3.044  90.392 117.240  0.00  0.00    -0.368 OA
BRANCH   7   8
ATOM      8  C   LIG d   1      -2.380  89.257 117.849  0.00  0.00     0.119 C 
BRANCH   8   9
ATOM      9  C   LIG d   1      -2.909  89.130 119.291  0.00  0.00     0.028 C 
ATOM     10  C   LIG d   1      -1.930  89.705 120.328  0.00  0.00     0.006 C 
ENDBRANCH   8   9
BRANCH   8  11
ATOM     11  C   LIG d   1      -0.874  89.502 117.989  0.00  0.00     0.028 C 
ATOM     12  C   LIG d   1      -0.374  90.660 117.111  0.00  0.00     0.006 C 
ENDBRANCH   8  11
ENDBRANCH   7   8
ENDBRANCH   1   7
BRANCH   6  13
ATOM     13  N   LIG d   1      -4.384  92.339 119.110  0.00  0.00    -0.311 N 
ATOM     14  C   LIG d   1      -3.275  93.035 119.356  0.00  0.00     0.210 C 
ATOM     15  C   LIG d   1      -2.979  93.276 120.839  0.00  0.00     0.109 C 
ATOM     16  O   LIG d   1      -2.526  93.502 118.485  0.00  0.00    -0.276 OA
ATOM     17  H   LIG d   1      -4.950  92.026 119.874  0.00  0.00     0.149 HD
ENDBRANCH   6  13
BRANCH   5  18
ATOM     18  N   LIG d   1      -6.735  93.641 117.657  0.00  0.00     0.381 N 
ATOM     19  H   LIG d   1      -7.732  93.727 117.637  0.00  0.00    -0.090 HD
ATOM     20  H   LIG d   1      -6.359  94.144 116.872  0.00  0.00    -0.090 HD
ATOM     21  H   LIG d   1      -6.379  94.022 118.506  0.00  0.00    -0.090 HD
ENDBRANCH   5  18
BRANCH   3  22
ATOM     22  C   LIG d   1      -7.090  89.680 114.989  0.00  0.00     0.382 C 
ATOM     23  O   LIG d   1      -8.342  89.758 115.019  0.00  0.00    -0.241 OA
ATOM     24  O   LIG d   1      -6.544  88.882 114.204  0.00  0.00    -0.241 OA
ENDBRANCH   3  22
TORSDOF 7
ENDMDL
MODEL 4
REMARK VINA RESULT:      -6.0      2.568      5.675
REMARK  7 active torsions:
REMARK  status: ('A' for Active; 'I' for Inactive)
REMARK    1  A    between atoms: C_2  and  C_3 
REMARK    2  A    between atoms: C_3  and  O_6 
REMARK    3  A    between atoms: C_3  and  C_4 
REMARK    4  A    between atoms: C_7  and  O_6 
REMARK    5  A    between atoms: C_9  and  C_10 
REMARK    6  A    between atoms: N_15  and  C_14 
REMARK    7  A    between atoms: N_20  and  C_19 
REMARK       I    between atoms: C_22  and  N_20 
ROOT
ATOM      1  C   LIG d   1      -7.063  75.659 115.839  0.00  0.00     0.161 C 
ATOM      2  C   LIG d   1      -8.407  75.496 116.217  0.00  0.00     0.016 C 
ATOM      3  C   LIG d   1      -8.965  74.252 116.592  0.00  0.00     0.038 C 
ATOM      4  C   LIG d   1      -8.174  73.106 116.761  0.00  0.00     0.028 C 
ATOM      5  C   LIG d   1      -6.912  73.109 115.905  0.00  0.00    -0.047 C 
ATOM      6  C   LIG d   1      -6.160  74.441 116.124  0.00  0.00     0.091 C 
ENDROOT
BRANCH   1   7
ATOM      7  O   LIG d   1      -6.521  76.842 116.458  0.00  0.00    -0.368 OA
BRANCH   7   8
ATOM      8  C   LIG d   1      -7.180  77.286 117.670  0.00  0.00     0.119 C 
BRANCH   8   9
ATOM      9  C   LIG d   1      -7.153  78.827 117.673  0.00  0.00     0.028 C 
ATOM     10  C   LIG d   1      -8.530  79.437 117.986  0.00  0.00     0.006 C 
ENDBRANCH   8   9
BRANCH   8  11
ATOM     11  C   LIG d   1      -6.398  76.864 118.917  0.00  0.00     0.028 C 
ATOM     12  C   LIG d   1      -7.135  75.806 119.753  0.00  0.00     0.006 C 
ENDBRANCH   8  11
ENDBRANCH   7   8
ENDBRANCH   1   7
BRANCH   6  13
ATOM     13  N   LIG d   1      -4.956  74.562 115.260  0.00  0.00    -0.311 N 
ATOM     14  C   LIG d   1      -3.747  74.869 115.726  0.00  0.00     0.210 C 
ATOM     15  C   LIG d   1      -2.649  74.961 114.662  0.00  0.00     0.109 C 
ATOM     16  O   LIG d   1      -3.473  75.042 116.923  0.00  0.00    -0.276 OA
ATOM     17  H   LIG d   1      -5.082  74.406 114.279  0.00  0.00     0.149 HD
ENDBRANCH   6  13
BRANCH   5  18
ATOM     18  N   LIG d   1      -6.115  71.926 116.282  0.00  0.00     0.381 N 
ATOM     19  H   LIG d   1      -6.007  71.893 117.276  0.00  0.00    -0.090 HD
ATOM     20  H   LIG d   1      -5.203  72.003 115.868  0.00  0.00    -0.090 HD
ATOM     21  H   LIG d   1      -6.564  71.096 115.962  0.00  0.00    -0.090 HD
ENDBRANCH   5  18
BRANCH   3  22
ATOM     22  C   LIG d   1     -10.336  74.138 116.764  0.00  0.00     0.382 C 
ATOM     23  O   LIG d   1     -10.977  75.061 117.322  0.00  0.00    -0.241 OA
ATOM     24  O   LIG d   1     -10.933  73.105 116.408  0.00  0.00    -0.241 OA
ENDBRANCH   3  22
TORSDOF 7
ENDMDL
MODEL 5
REMARK VINA RESULT:      -5.8      2.279      5.212
REMARK  7 active torsions:
REMARK  status: ('A' for Active; 'I' for Inactive)
REMARK    1  A    between atoms: C_2  and  C_3 
REMARK    2  A    between atoms: C_3  and  O_6 
REMARK    3  A    between atoms: C_3  and  C_4 
REMARK    4  A    between atoms: C_7  and  O_6 
REMARK    5  A    between atoms: C_9  and  C_10 
REMARK    6  A    between atoms: N_15  and  C_14 
REMARK    7  A    between atoms: N_20  and  C_19 
REMARK       I    between atoms: C_22  and  N_20 
ROOT
ATOM      1  C   LIG d   1      -6.081  74.685 116.544  0.00  0.00     0.161 C 
ATOM      2  C   LIG d   1      -6.726  73.515 116.112  0.00  0.00     0.016 C 
ATOM      3  C   LIG d   1      -8.113  73.288 116.266  0.00  0.00     0.038 C 
ATOM      4  C   LIG d   1      -8.980  74.289 116.730  0.00  0.00     0.028 C 
ATOM      5  C   LIG d   1      -8.302  75.302 117.647  0.00  0.00    -0.047 C 
ATOM      6  C   LIG d   1      -7.028  75.833 116.951  0.00  0.00     0.091 C 
ENDROOT
BRANCH   1   7
ATOM      7  O   LIG d   1      -5.155  75.134 115.534  0.00  0.00    -0.368 OA
BRANCH   7   8
ATOM      8  C   LIG d   1      -3.814  74.591 115.614  0.00  0.00     0.119 C 
BRANCH   8   9
ATOM      9  C   LIG d   1      -3.148  75.185 116.870  0.00  0.00     0.028 C 
ATOM     10  C   LIG d   1      -1.936  74.361 117.337  0.00  0.00     0.006 C 
ENDBRANCH   8   9
BRANCH   8  11
ATOM     11  C   LIG d   1      -2.952  75.062 114.438  0.00  0.00     0.028 C 
ATOM     12  C   LIG d   1      -3.514  76.318 113.753  0.00  0.00     0.006 C 
ENDBRANCH   8  11
ENDBRANCH   7   8
ENDBRANCH   1   7
BRANCH   6  13
ATOM     13  N   LIG d   1      -6.259  76.767 117.814  0.00  0.00    -0.311 N 
ATOM     14  C   LIG d   1      -5.773  77.930 117.385  0.00  0.00     0.210 C 
ATOM     15  C   LIG d   1      -4.992  78.731 118.433  0.00  0.00     0.109 C 
ATOM     16  O   LIG d   1      -5.942  78.390 116.246  0.00  0.00    -0.276 OA
ATOM     17  H   LIG d   1      -6.102  76.486 118.763  0.00  0.00     0.149 HD
ENDBRANCH   6  13
BRANCH   5  18
ATOM     18  N   LIG d   1      -9.284  76.362 117.944  0.00  0.00     0.381 N 
ATOM     19  H   LIG d   1     -10.039  75.983 118.479  0.00  0.00    -0.090 HD
ATOM     20  H   LIG d   1      -9.655  76.712 117.078  0.00  0.00    -0.090 HD
ATOM     21  H   LIG d   1      -8.846  77.100 118.449  0.00  0.00    -0.090 HD
ENDBRANCH   5  18
BRANCH   3  22
ATOM     22  C   LIG d   1      -8.640  72.036 115.992  0.00  0.00     0.382 C 
ATOM     23  O   LIG d   1      -9.879  71.848 116.060  0.00  0.00    -0.241 OA
ATOM     24  O   LIG d   1      -7.889  71.080 115.721  0.00  0.00    -0.241 OA
ENDBRANCH   3  22
TORSDOF 7
ENDMDL
MODEL 6
REMARK VINA RESULT:      -5.6     14.965     17.611
REMARK  7 active torsions:
REMARK  status: ('A' for Active; 'I' for Inactive)
REMARK    1  A    between atoms: C_2  and  C_3 
REMARK    2  A    between atoms: C_3  and  O_6 
REMARK    3  A    between atoms: C_3  and  C_4 
REMARK    4  A    between atoms: C_7  and  O_6 
REMARK    5  A    between atoms: C_9  and  C_10 
REMARK    6  A    between atoms: N_15  and  C_14 
REMARK    7  A    between atoms: N_20  and  C_19 
REMARK       I    between atoms: C_22  and  N_20 
ROOT
ATOM      1  C   LIG d   1      -6.208  92.427 117.505  0.00  0.00     0.161 C 
ATOM      2  C   LIG d   1      -7.172  91.566 116.955  0.00  0.00     0.016 C 
ATOM      3  C   LIG d   1      -6.867  90.285 116.440  0.00  0.00     0.038 C 
ATOM      4  C   LIG d   1      -5.593  89.714 116.578  0.00  0.00     0.028 C 
ATOM      5  C   LIG d   1      -4.474  90.745 116.672  0.00  0.00    -0.047 C 
ATOM      6  C   LIG d   1      -4.833  91.777 117.766  0.00  0.00     0.091 C 
ENDROOT
BRANCH   1   7
ATOM      7  O   LIG d   1      -6.718  93.022 118.715  0.00  0.00    -0.368 OA
BRANCH   7   8
ATOM      8  C   LIG d   1      -7.537  94.206 118.546  0.00  0.00     0.119 C 
BRANCH   8   9
ATOM      9  C   LIG d   1      -6.665  95.426 118.899  0.00  0.00     0.028 C 
ATOM     10  C   LIG d   1      -7.365  96.759 118.587  0.00  0.00     0.006 C 
ENDBRANCH   8   9
BRANCH   8  11
ATOM     11  C   LIG d   1      -8.694  94.231 119.550  0.00  0.00     0.028 C 
ATOM     12  C   LIG d   1      -8.292  93.700 120.935  0.00  0.00     0.006 C 
ENDBRANCH   8  11
ENDBRANCH   7   8
ENDBRANCH   1   7
BRANCH   6  13
ATOM     13  N   LIG d   1      -3.831  92.870 117.865  0.00  0.00    -0.311 N 
ATOM     14  C   LIG d   1      -2.807  92.850 118.717  0.00  0.00     0.210 C 
ATOM     15  C   LIG d   1      -1.904  94.086 118.671  0.00  0.00     0.109 C 
ATOM     16  O   LIG d   1      -2.544  91.912 119.485  0.00  0.00    -0.276 OA
ATOM     17  H   LIG d   1      -3.951  93.656 117.257  0.00  0.00     0.149 HD
ENDBRANCH   6  13
BRANCH   5  18
ATOM     18  N   LIG d   1      -3.221  90.019 116.952  0.00  0.00     0.381 N 
ATOM     19  H   LIG d   1      -2.709  90.491 117.670  0.00  0.00    -0.090 HD
ATOM     20  H   LIG d   1      -2.659  90.009 116.119  0.00  0.00    -0.090 HD
ATOM     21  H   LIG d   1      -3.424  89.086 117.236  0.00  0.00    -0.090 HD
ENDBRANCH   5  18
BRANCH   3  22
ATOM     22  C   LIG d   1      -7.834  89.577 115.741  0.00  0.00     0.382 C 
ATOM     23  O   LIG d   1      -8.230  89.991 114.625  0.00  0.00    -0.241 OA
ATOM     24  O   LIG d   1      -8.347  88.554 116.234  0.00  0.00    -0.241 OA
ENDBRANCH   3  22
TORSDOF 7
ENDMDL
MODEL 7
REMARK VINA RESULT:      -5.6      2.364      6.186
REMARK  7 active torsions:
REMARK  status: ('A' for Active; 'I' for Inactive)
REMARK    1  A    between atoms: C_2  and  C_3 
REMARK    2  A    between atoms: C_3  and  O_6 
REMARK    3  A    between atoms: C_3  and  C_4 
REMARK    4  A    between atoms: C_7  and  O_6 
REMARK    5  A    between atoms: C_9  and  C_10 
REMARK    6  A    between atoms: N_15  and  C_14 
REMARK    7  A    between atoms: N_20  and  C_19 
REMARK       I    between atoms: C_22  and  N_20 
ROOT
ATOM      1  C   LIG d   1      -7.174  75.833 116.409  0.00  0.00     0.161 C 
ATOM      2  C   LIG d   1      -8.526  75.731 116.776  0.00  0.00     0.016 C 
ATOM      3  C   LIG d   1      -9.240  74.511 116.784  0.00  0.00     0.038 C 
ATOM      4  C   LIG d   1      -8.605  73.279 116.570  0.00  0.00     0.028 C 
ATOM      5  C   LIG d   1      -7.355  73.385 115.702  0.00  0.00    -0.047 C 
ATOM      6  C   LIG d   1      -6.435  74.485 116.280  0.00  0.00     0.091 C 
ENDROOT
BRANCH   1   7
ATOM      7  O   LIG d   1      -6.481  76.697 117.332  0.00  0.00    -0.368 OA
BRANCH   7   8
ATOM      8  C   LIG d   1      -6.163  78.025 116.846  0.00  0.00     0.119 C 
BRANCH   8   9
ATOM      9  C   LIG d   1      -4.632  78.108 116.696  0.00  0.00     0.028 C 
ATOM     10  C   LIG d   1      -3.891  77.350 117.810  0.00  0.00     0.006 C 
ENDBRANCH   8   9
BRANCH   8  11
ATOM     11  C   LIG d   1      -6.529  79.097 117.876  0.00  0.00     0.028 C 
ATOM     12  C   LIG d   1      -8.033  79.410 117.903  0.00  0.00     0.006 C 
ENDBRANCH   8  11
ENDBRANCH   7   8
ENDBRANCH   1   7
BRANCH   6  13
ATOM     13  N   LIG d   1      -5.228  74.712 115.443  0.00  0.00    -0.311 N 
ATOM     14  C   LIG d   1      -5.264  75.305 114.251  0.00  0.00     0.210 C 
ATOM     15  C   LIG d   1      -3.909  75.421 113.546  0.00  0.00     0.109 C 
ATOM     16  O   LIG d   1      -6.284  75.775 113.725  0.00  0.00    -0.276 OA
ATOM     17  H   LIG d   1      -4.353  74.389 115.807  0.00  0.00     0.149 HD
ENDBRANCH   6  13
BRANCH   5  18
ATOM     18  N   LIG d   1      -6.718  72.054 115.675  0.00  0.00     0.381 N 
ATOM     19  H   LIG d   1      -7.328  71.378 116.089  0.00  0.00    -0.090 HD
ATOM     20  H   LIG d   1      -5.871  72.088 116.215  0.00  0.00    -0.090 HD
ATOM     21  H   LIG d   1      -6.511  71.795 114.735  0.00  0.00    -0.090 HD
ENDBRANCH   5  18
BRANCH   3  22
ATOM     22  C   LIG d   1     -10.614  74.520 116.970  0.00  0.00     0.382 C 
ATOM     23  O   LIG d   1     -11.158  75.471 117.580  0.00  0.00    -0.241 OA
ATOM     24  O   LIG d   1     -11.312  73.567 116.573  0.00  0.00    -0.241 OA
ENDBRANCH   3  22
TORSDOF 7
ENDMDL
MODEL 8
REMARK VINA RESULT:      -5.5     14.562     17.357
REMARK  7 active torsions:
REMARK  status: ('A' for Active; 'I' for Inactive)
REMARK    1  A    between atoms: C_2  and  C_3 
REMARK    2  A    between atoms: C_3  and  O_6 
REMARK    3  A    between atoms: C_3  and  C_4 
REMARK    4  A    between atoms: C_7  and  O_6 
REMARK    5  A    between atoms: C_9  and  C_10 
REMARK    6  A    between atoms: N_15  and  C_14 
REMARK    7  A    between atoms: N_20  and  C_19 
REMARK       I    between atoms: C_22  and  N_20 
ROOT
ATOM      1  C   LIG d   1      -3.802  91.679 117.679  0.00  0.00     0.161 C 
ATOM      2  C   LIG d   1      -3.771  92.639 118.704  0.00  0.00     0.016 C 
ATOM      3  C   LIG d   1      -4.926  93.292 119.193  0.00  0.00     0.038 C 
ATOM      4  C   LIG d   1      -6.216  92.916 118.791  0.00  0.00     0.028 C 
ATOM      5  C   LIG d   1      -6.262  92.307 117.394  0.00  0.00    -0.047 C 
ATOM      6  C   LIG d   1      -5.212  91.176 117.305  0.00  0.00     0.091 C 
ENDROOT
BRANCH   1   7
ATOM      7  O   LIG d   1      -2.949  90.570 118.023  0.00  0.00    -0.368 OA
BRANCH   7   8
ATOM      8  C   LIG d   1      -1.610  90.907 118.462  0.00  0.00     0.119 C 
BRANCH   8   9
ATOM      9  C   LIG d   1      -0.645  90.570 117.308  0.00  0.00     0.028 C 
ATOM     10  C   LIG d   1      -0.118  89.128 117.386  0.00  0.00     0.006 C 
ENDBRANCH   8   9
BRANCH   8  11
ATOM     11  C   LIG d   1      -1.167  90.023 119.631  0.00  0.00     0.028 C 
ATOM     12  C   LIG d   1      -2.337  89.597 120.532  0.00  0.00     0.006 C 
ENDBRANCH   8  11
ENDBRANCH   7   8
ENDBRANCH   1   7
BRANCH   6  13
ATOM     13  N   LIG d   1      -5.132  90.582 115.945  0.00  0.00    -0.311 N 
ATOM     14  C   LIG d   1      -5.879  89.554 115.550  0.00  0.00     0.210 C 
ATOM     15  C   LIG d   1      -5.625  89.084 114.114  0.00  0.00     0.109 C 
ATOM     16  O   LIG d   1      -6.752  89.006 116.240  0.00  0.00    -0.276 OA
ATOM     17  H   LIG d   1      -4.472  90.986 115.309  0.00  0.00     0.149 HD
ENDBRANCH   6  13
BRANCH   5  18
ATOM     18  N   LIG d   1      -7.640  91.836 117.158  0.00  0.00     0.381 N 
ATOM     19  H   LIG d   1      -8.254  92.619 117.058  0.00  0.00    -0.090 HD
ATOM     20  H   LIG d   1      -7.941  91.300 117.953  0.00  0.00    -0.090 HD
ATOM     21  H   LIG d   1      -7.672  91.272 116.337  0.00  0.00    -0.090 HD
ENDBRANCH   5  18
BRANCH   3  22
ATOM     22  C   LIG d   1      -4.793  94.361 120.066  0.00  0.00     0.382 C 
ATOM     23  O   LIG d   1      -3.680  94.609 120.588  0.00  0.00    -0.241 OA
ATOM     24  O   LIG d   1      -5.782  95.053 120.373  0.00  0.00    -0.241 OA
ENDBRANCH   3  22
TORSDOF 7
ENDMDL
MODEL 9
REMARK VINA RESULT:      -5.4      2.632      5.630
REMARK  7 active torsions:
REMARK  status: ('A' for Active; 'I' for Inactive)
REMARK    1  A    between atoms: C_2  and  C_3 
REMARK    2  A    between atoms: C_3  and  O_6 
REMARK    3  A    between atoms: C_3  and  C_4 
REMARK    4  A    between atoms: C_7  and  O_6 
REMARK    5  A    between atoms: C_9  and  C_10 
REMARK    6  A    between atoms: N_15  and  C_14 
REMARK    7  A    between atoms: N_20  and  C_19 
REMARK       I    between atoms: C_22  and  N_20 
ROOT
ATOM      1  C   LIG d   1      -6.310  77.783 117.095  0.00  0.00     0.161 C 
ATOM      2  C   LIG d   1      -7.642  77.905 117.524  0.00  0.00     0.016 C 
ATOM      3  C   LIG d   1      -8.226  79.134 117.909  0.00  0.00     0.038 C 
ATOM      4  C   LIG d   1      -7.557  80.356 117.746  0.00  0.00     0.028 C 
ATOM      5  C   LIG d   1      -6.038  80.226 117.792  0.00  0.00    -0.047 C 
ATOM      6  C   LIG d   1      -5.599  79.121 116.804  0.00  0.00     0.091 C 
ENDROOT
BRANCH   1   7
ATOM      7  O   LIG d   1      -6.246  76.921 115.941  0.00  0.00    -0.368 OA
BRANCH   7   8
ATOM      8  C   LIG d   1      -6.365  75.500 116.200  0.00  0.00     0.119 C 
BRANCH   8   9
ATOM      9  C   LIG d   1      -5.131  74.813 115.584  0.00  0.00     0.028 C 
ATOM     10  C   LIG d   1      -3.832  75.159 116.330  0.00  0.00     0.006 C 
ENDBRANCH   8   9
BRANCH   8  11
ATOM     11  C   LIG d   1      -7.570  74.899 115.471  0.00  0.00     0.028 C 
ATOM     12  C   LIG d   1      -7.797  73.419 115.814  0.00  0.00     0.006 C 
ENDBRANCH   8  11
ENDBRANCH   7   8
ENDBRANCH   1   7
BRANCH   6  13
ATOM     13  N   LIG d   1      -4.135  78.870 116.848  0.00  0.00    -0.311 N 
ATOM     14  C   LIG d   1      -3.322  79.090 115.816  0.00  0.00     0.210 C 
ATOM     15  C   LIG d   1      -1.850  78.746 116.067  0.00  0.00     0.109 C 
ATOM     16  O   LIG d   1      -3.675  79.566 114.727  0.00  0.00    -0.276 OA
ATOM     17  H   LIG d   1      -3.759  78.513 117.705  0.00  0.00     0.149 HD
ENDBRANCH   6  13
BRANCH   5  18
ATOM     18  N   LIG d   1      -5.467  81.548 117.472  0.00  0.00     0.381 N 
ATOM     19  H   LIG d   1      -5.005  81.921 118.276  0.00  0.00    -0.090 HD
ATOM     20  H   LIG d   1      -6.214  82.172 117.220  0.00  0.00    -0.090 HD
ATOM     21  H   LIG d   1      -4.823  81.467 116.716  0.00  0.00    -0.090 HD
ENDBRANCH   5  18
BRANCH   3  22
ATOM     22  C   LIG d   1      -9.479  79.144 118.502  0.00  0.00     0.382 C 
ATOM     23  O   LIG d   1     -10.177  78.101 118.510  0.00  0.00    -0.241 OA
ATOM     24  O   LIG d   1      -9.940  80.193 118.989  0.00  0.00    -0.241 OA
ENDBRANCH   3  22
TORSDOF 7
ENDMDL
