MODEL 1
REMARK VINA RESULT:      -5.9      0.000      0.000
REMARK  7 active torsions:
REMARK  status: ('A' for Active; 'I' for Inactive)
REMARK    1  A    between atoms: C_2  and  C_3 
REMARK    2  A    between atoms: C_3  and  O_6 
REMARK    3  A    between atoms: C_3  and  C_4 
REMARK    4  A    between atoms: C_7  and  O_6 
REMARK    5  A    between atoms: C_9  and  C_10 
REMARK    6  A    between atoms: N_15  and  C_14 
REMARK    7  A    between atoms: N_20  and  C_19 
REMARK       I    between atoms: C_22  and  N_20 
ROOT
ATOM      1  C   LIG d   1      -8.338  74.880 116.826  0.00  0.00     0.161 C 
ATOM      2  C   LIG d   1      -7.515  74.878 115.688  0.00  0.00     0.016 C 
ATOM      3  C   LIG d   1      -6.459  75.797 115.489  0.00  0.00     0.038 C 
ATOM      4  C   LIG d   1      -6.056  76.692 116.492  0.00  0.00     0.028 C 
ATOM      5  C   LIG d   1      -7.178  77.069 117.453  0.00  0.00    -0.047 C 
ATOM      6  C   LIG d   1      -7.843  75.777 117.980  0.00  0.00     0.091 C 
ENDROOT
BRANCH   1   7
ATOM      7  O   LIG d   1      -8.535  73.530 117.290  0.00  0.00    -0.368 OA
BRANCH   7   8
ATOM      8  C   LIG d   1      -9.720  72.855 116.803  0.00  0.00     0.119 C 
BRANCH   8   9
ATOM      9  C   LIG d   1     -10.793  72.949 117.905  0.00  0.00     0.028 C 
ATOM     10  C   LIG d   1     -11.773  74.111 117.673  0.00  0.00     0.006 C 
ENDBRANCH   8   9
BRANCH   8  11
ATOM     11  C   LIG d   1      -9.469  71.357 116.608  0.00  0.00     0.028 C 
ATOM     12  C   LIG d   1      -8.047  71.051 116.110  0.00  0.00     0.006 C 
ENDBRANCH   8  11
ENDBRANCH   7   8
ENDBRANCH   1   7
BRANCH   6  13
ATOM     13  N   LIG d   1      -9.006  76.057 118.862  0.00  0.00    -0.311 N 
ATOM     14  C   LIG d   1      -8.907  76.200 120.183  0.00  0.00     0.210 C 
ATOM     15  C   LIG d   1     -10.232  76.465 120.906  0.00  0.00     0.109 C 
ATOM     16  O   LIG d   1      -7.844  76.164 120.820  0.00  0.00    -0.276 OA
ATOM     17  H   LIG d   1      -9.903  76.133 118.424  0.00  0.00     0.149 HD
ENDBRANCH   6  13
BRANCH   5  18
ATOM     18  N   LIG d   1      -6.589  77.894 118.524  0.00  0.00     0.381 N 
ATOM     19  H   LIG d   1      -6.873  77.544 119.417  0.00  0.00    -0.090 HD
ATOM     20  H   LIG d   1      -6.927  78.836 118.433  0.00  0.00    -0.090 HD
ATOM     21  H   LIG d   1      -5.595  77.883 118.456  0.00  0.00    -0.090 HD
ENDBRANCH   5  18
BRANCH   3  22
ATOM     22  C   LIG d   1      -5.819  75.854 114.260  0.00  0.00     0.382 C 
ATOM     23  O   LIG d   1      -6.482  75.730 113.202  0.00  0.00    -0.241 OA
ATOM     24  O   LIG d   1      -4.582  75.982 114.197  0.00  0.00    -0.241 OA
ENDBRANCH   3  22
TORSDOF 7
ENDMDL
MODEL 2
REMARK VINA RESULT:      -5.9      1.277      2.278
REMARK  7 active torsions:
REMARK  status: ('A' for Active; 'I' for Inactive)
REMARK    1  A    between atoms: C_2  and  C_3 
REMARK    2  A    between atoms: C_3  and  O_6 
REMARK    3  A    between atoms: C_3  and  C_4 
REMARK    4  A    between atoms: C_7  and  O_6 
REMARK    5  A    between atoms: C_9  and  C_10 
REMARK    6  A    between atoms: N_15  and  C_14 
REMARK    7  A    between atoms: N_20  and  C_19 
REMARK       I    between atoms: C_22  and  N_20 
ROOT
ATOM      1  C   LIG d   1      -8.466  75.218 116.471  0.00  0.00     0.161 C 
ATOM      2  C   LIG d   1      -7.410  74.755 115.668  0.00  0.00     0.016 C 
ATOM      3  C   LIG d   1      -6.063  74.722 116.097  0.00  0.00     0.038 C 
ATOM      4  C   LIG d   1      -5.700  75.010 117.421  0.00  0.00     0.028 C 
ATOM      5  C   LIG d   1      -6.662  75.964 118.120  0.00  0.00    -0.047 C 
ATOM      6  C   LIG d   1      -8.104  75.432 117.955  0.00  0.00     0.091 C 
ENDROOT
BRANCH   1   7
ATOM      7  O   LIG d   1      -9.595  74.330 116.353  0.00  0.00    -0.368 OA
BRANCH   7   8
ATOM      8  C   LIG d   1      -9.572  73.155 117.200  0.00  0.00     0.119 C 
BRANCH   8   9
ATOM      9  C   LIG d   1      -9.551  71.920 116.278  0.00  0.00     0.028 C 
ATOM     10  C   LIG d   1      -8.189  71.206 116.285  0.00  0.00     0.006 C 
ENDBRANCH   8   9
BRANCH   8  11
ATOM     11  C   LIG d   1     -10.863  73.030 118.015  0.00  0.00     0.028 C 
ATOM     12  C   LIG d   1     -11.880  74.137 117.693  0.00  0.00     0.006 C 
ENDBRANCH   8  11
ENDBRANCH   7   8
ENDBRANCH   1   7
BRANCH   6  13
ATOM     13  N   LIG d   1      -9.117  76.350 118.537  0.00  0.00    -0.311 N 
ATOM     14  C   LIG d   1      -9.649  76.183 119.747  0.00  0.00     0.210 C 
ATOM     15  C   LIG d   1     -10.690  77.233 120.147  0.00  0.00     0.109 C 
ATOM     16  O   LIG d   1      -9.333  75.284 120.541  0.00  0.00    -0.276 OA
ATOM     17  H   LIG d   1      -9.408  77.125 117.974  0.00  0.00     0.149 HD
ENDBRANCH   6  13
BRANCH   5  18
ATOM     18  N   LIG d   1      -6.242  76.068 119.530  0.00  0.00     0.381 N 
ATOM     19  H   LIG d   1      -5.573  75.354 119.737  0.00  0.00    -0.090 HD
ATOM     20  H   LIG d   1      -7.044  75.930 120.119  0.00  0.00    -0.090 HD
ATOM     21  H   LIG d   1      -5.845  76.966 119.702  0.00  0.00    -0.090 HD
ENDBRANCH   5  18
BRANCH   3  22
ATOM     22  C   LIG d   1      -5.058  74.436 115.186  0.00  0.00     0.382 C 
ATOM     23  O   LIG d   1      -3.859  74.441 115.553  0.00  0.00    -0.241 OA
ATOM     24  O   LIG d   1      -5.333  74.216 113.991  0.00  0.00    -0.241 OA
ENDBRANCH   3  22
TORSDOF 7
ENDMDL
MODEL 3
REMARK VINA RESULT:      -5.6      2.323      4.866
REMARK  7 active torsions:
REMARK  status: ('A' for Active; 'I' for Inactive)
REMARK    1  A    between atoms: C_2  and  C_3 
REMARK    2  A    between atoms: C_3  and  O_6 
REMARK    3  A    between atoms: C_3  and  C_4 
REMARK    4  A    between atoms: C_7  and  O_6 
REMARK    5  A    between atoms: C_9  and  C_10 
REMARK    6  A    between atoms: N_15  and  C_14 
REMARK    7  A    between atoms: N_20  and  C_19 
REMARK       I    between atoms: C_22  and  N_20 
ROOT
ATOM      1  C   LIG d   1      -8.769  75.160 118.007  0.00  0.00     0.161 C 
ATOM      2  C   LIG d   1     -10.133  75.277 118.322  0.00  0.00     0.016 C 
ATOM      3  C   LIG d   1     -10.729  76.480 118.767  0.00  0.00     0.038 C 
ATOM      4  C   LIG d   1     -10.026  77.693 118.783  0.00  0.00     0.028 C 
ATOM      5  C   LIG d   1      -8.521  77.520 118.955  0.00  0.00    -0.047 C 
ATOM      6  C   LIG d   1      -8.010  76.500 117.912  0.00  0.00     0.091 C 
ENDROOT
BRANCH   1   7
ATOM      7  O   LIG d   1      -8.612  74.407 116.788  0.00  0.00    -0.368 OA
BRANCH   7   8
ATOM      8  C   LIG d   1      -8.161  73.039 116.937  0.00  0.00     0.119 C 
BRANCH   8   9
ATOM      9  C   LIG d   1      -7.162  72.753 115.799  0.00  0.00     0.028 C 
ATOM     10  C   LIG d   1      -6.572  74.041 115.200  0.00  0.00     0.006 C 
ENDBRANCH   8   9
BRANCH   8  11
ATOM     11  C   LIG d   1      -9.310  72.048 116.726  0.00  0.00     0.028 C 
ATOM     12  C   LIG d   1      -9.866  71.491 118.047  0.00  0.00     0.006 C 
ENDBRANCH   8  11
ENDBRANCH   7   8
ENDBRANCH   1   7
BRANCH   6  13
ATOM     13  N   LIG d   1      -6.561  76.208 118.066  0.00  0.00    -0.311 N 
ATOM     14  C   LIG d   1      -5.608  76.850 117.392  0.00  0.00     0.210 C 
ATOM     15  C   LIG d   1      -4.180  76.380 117.685  0.00  0.00     0.109 C 
ATOM     16  O   LIG d   1      -5.808  77.785 116.602  0.00  0.00    -0.276 OA
ATOM     17  H   LIG d   1      -6.308  75.485 118.710  0.00  0.00     0.149 HD
ENDBRANCH   6  13
BRANCH   5  18
ATOM     18  N   LIG d   1      -7.900  78.850 118.816  0.00  0.00     0.381 N 
ATOM     19  H   LIG d   1      -8.598  79.561 118.902  0.00  0.00    -0.090 HD
ATOM     20  H   LIG d   1      -7.487  78.922 117.903  0.00  0.00    -0.090 HD
ATOM     21  H   LIG d   1      -7.201  78.975 119.515  0.00  0.00    -0.090 HD
ENDBRANCH   5  18
BRANCH   3  22
ATOM     22  C   LIG d   1     -12.032  76.467 119.240  0.00  0.00     0.382 C 
ATOM     23  O   LIG d   1     -12.275  76.830 120.416  0.00  0.00    -0.241 OA
ATOM     24  O   LIG d   1     -12.962  76.055 118.521  0.00  0.00    -0.241 OA
ENDBRANCH   3  22
TORSDOF 7
ENDMDL
MODEL 4
REMARK VINA RESULT:      -5.6     15.092     16.812
REMARK  7 active torsions:
REMARK  status: ('A' for Active; 'I' for Inactive)
REMARK    1  A    between atoms: C_2  and  C_3 
REMARK    2  A    between atoms: C_3  and  O_6 
REMARK    3  A    between atoms: C_3  and  C_4 
REMARK    4  A    between atoms: C_7  and  O_6 
REMARK    5  A    between atoms: C_9  and  C_10 
REMARK    6  A    between atoms: N_15  and  C_14 
REMARK    7  A    between atoms: N_20  and  C_19 
REMARK       I    between atoms: C_22  and  N_20 
ROOT
ATOM      1  C   LIG d   1      -4.257  90.789 117.618  0.00  0.00     0.161 C 
ATOM      2  C   LIG d   1      -4.680  90.543 116.301  0.00  0.00     0.016 C 
ATOM      3  C   LIG d   1      -5.877  91.062 115.758  0.00  0.00     0.038 C 
ATOM      4  C   LIG d   1      -6.664  91.993 116.452  0.00  0.00     0.028 C 
ATOM      5  C   LIG d   1      -6.542  91.878 117.968  0.00  0.00    -0.047 C 
ATOM      6  C   LIG d   1      -5.046  91.892 118.354  0.00  0.00     0.091 C 
ENDROOT
BRANCH   1   7
ATOM      7  O   LIG d   1      -2.847  91.087 117.631  0.00  0.00    -0.368 OA
BRANCH   7   8
ATOM      8  C   LIG d   1      -1.977  90.032 118.110  0.00  0.00     0.119 C 
BRANCH   8   9
ATOM      9  C   LIG d   1      -1.406  89.307 116.875  0.00  0.00     0.028 C 
ATOM     10  C   LIG d   1      -0.014  89.828 116.481  0.00  0.00     0.006 C 
ENDBRANCH   8   9
BRANCH   8  11
ATOM     11  C   LIG d   1      -2.764  88.966 118.878  0.00  0.00     0.028 C 
ATOM     12  C   LIG d   1      -1.862  87.876 119.478  0.00  0.00     0.006 C 
ENDBRANCH   8  11
ENDBRANCH   7   8
ENDBRANCH   1   7
BRANCH   6  13
ATOM     13  N   LIG d   1      -4.834  91.699 119.812  0.00  0.00    -0.311 N 
ATOM     14  C   LIG d   1      -4.724  92.706 120.677  0.00  0.00     0.210 C 
ATOM     15  C   LIG d   1      -4.490  92.287 122.132  0.00  0.00     0.109 C 
ATOM     16  O   LIG d   1      -4.830  93.906 120.382  0.00  0.00    -0.276 OA
ATOM     17  H   LIG d   1      -4.768  90.756 120.143  0.00  0.00     0.149 HD
ENDBRANCH   6  13
BRANCH   5  18
ATOM     18  N   LIG d   1      -7.304  92.992 118.562  0.00  0.00     0.381 N 
ATOM     19  H   LIG d   1      -7.423  93.720 117.886  0.00  0.00    -0.090 HD
ATOM     20  H   LIG d   1      -6.784  93.364 119.338  0.00  0.00    -0.090 HD
ATOM     21  H   LIG d   1      -8.193  92.670 118.874  0.00  0.00    -0.090 HD
ENDBRANCH   5  18
BRANCH   3  22
ATOM     22  C   LIG d   1      -6.320  90.618 114.521  0.00  0.00     0.382 C 
ATOM     23  O   LIG d   1      -6.734  91.443 113.671  0.00  0.00    -0.241 OA
ATOM     24  O   LIG d   1      -6.352  89.401 114.261  0.00  0.00    -0.241 OA
ENDBRANCH   3  22
TORSDOF 7
ENDMDL
MODEL 5
REMARK VINA RESULT:      -5.5     15.761     17.290
REMARK  7 active torsions:
REMARK  status: ('A' for Active; 'I' for Inactive)
REMARK    1  A    between atoms: C_2  and  C_3 
REMARK    2  A    between atoms: C_3  and  O_6 
REMARK    3  A    between atoms: C_3  and  C_4 
REMARK    4  A    between atoms: C_7  and  O_6 
REMARK    5  A    between atoms: C_9  and  C_10 
REMARK    6  A    between atoms: N_15  and  C_14 
REMARK    7  A    between atoms: N_20  and  C_19 
REMARK       I    between atoms: C_22  and  N_20 
ROOT
ATOM      1  C   LIG d   1      -4.675  91.080 117.859  0.00  0.00     0.161 C 
ATOM      2  C   LIG d   1      -4.860  90.543 116.574  0.00  0.00     0.016 C 
ATOM      3  C   LIG d   1      -5.891  90.956 115.698  0.00  0.00     0.038 C 
ATOM      4  C   LIG d   1      -6.719  92.050 115.992  0.00  0.00     0.028 C 
ATOM      5  C   LIG d   1      -6.894  92.292 117.488  0.00  0.00    -0.047 C 
ATOM      6  C   LIG d   1      -5.500  92.350 118.153  0.00  0.00     0.091 C 
ENDROOT
BRANCH   1   7
ATOM      7  O   LIG d   1      -3.274  91.328 118.087  0.00  0.00    -0.368 OA
BRANCH   7   8
ATOM      8  C   LIG d   1      -2.584  90.364 118.920  0.00  0.00     0.119 C 
BRANCH   8   9
ATOM      9  C   LIG d   1      -2.224  91.068 120.242  0.00  0.00     0.028 C 
ATOM     10  C   LIG d   1      -1.925  92.564 120.048  0.00  0.00     0.006 C 
ENDBRANCH   8   9
BRANCH   8  11
ATOM     11  C   LIG d   1      -1.244  89.952 118.302  0.00  0.00     0.028 C 
ATOM     12  C   LIG d   1      -1.408  89.027 117.086  0.00  0.00     0.006 C 
ENDBRANCH   8  11
ENDBRANCH   7   8
ENDBRANCH   1   7
BRANCH   6  13
ATOM     13  N   LIG d   1      -5.582  92.501 119.629  0.00  0.00    -0.311 N 
ATOM     14  C   LIG d   1      -5.525  93.677 120.251  0.00  0.00     0.210 C 
ATOM     15  C   LIG d   1      -5.609  93.607 121.779  0.00  0.00     0.109 C 
ATOM     16  O   LIG d   1      -5.445  94.776 119.680  0.00  0.00    -0.276 OA
ATOM     17  H   LIG d   1      -5.680  91.663 120.169  0.00  0.00     0.149 HD
ENDBRANCH   6  13
BRANCH   5  18
ATOM     18  N   LIG d   1      -7.665  93.539 117.650  0.00  0.00     0.381 N 
ATOM     19  H   LIG d   1      -7.490  94.148 116.875  0.00  0.00    -0.090 HD
ATOM     20  H   LIG d   1      -7.362  94.002 118.489  0.00  0.00    -0.090 HD
ATOM     21  H   LIG d   1      -8.638  93.334 117.708  0.00  0.00    -0.090 HD
ENDBRANCH   5  18
BRANCH   3  22
ATOM     22  C   LIG d   1      -6.126  90.247 114.530  0.00  0.00     0.382 C 
ATOM     23  O   LIG d   1      -5.490  89.190 114.299  0.00  0.00    -0.241 OA
ATOM     24  O   LIG d   1      -6.934  90.674 113.684  0.00  0.00    -0.241 OA
ENDBRANCH   3  22
TORSDOF 7
ENDMDL
MODEL 6
REMARK VINA RESULT:      -5.5      2.394      4.754
REMARK  7 active torsions:
REMARK  status: ('A' for Active; 'I' for Inactive)
REMARK    1  A    between atoms: C_2  and  C_3 
REMARK    2  A    between atoms: C_3  and  O_6 
REMARK    3  A    between atoms: C_3  and  C_4 
REMARK    4  A    between atoms: C_7  and  O_6 
REMARK    5  A    between atoms: C_9  and  C_10 
REMARK    6  A    between atoms: N_15  and  C_14 
REMARK    7  A    between atoms: N_20  and  C_19 
REMARK       I    between atoms: C_22  and  N_20 
ROOT
ATOM      1  C   LIG d   1      -8.499  74.982 117.571  0.00  0.00     0.161 C 
ATOM      2  C   LIG d   1      -9.896  74.967 117.426  0.00  0.00     0.016 C 
ATOM      3  C   LIG d   1     -10.779  75.601 118.331  0.00  0.00     0.038 C 
ATOM      4  C   LIG d   1     -10.314  76.426 119.366  0.00  0.00     0.028 C 
ATOM      5  C   LIG d   1      -8.916  76.059 119.850  0.00  0.00    -0.047 C 
ATOM      6  C   LIG d   1      -7.969  75.970 118.631  0.00  0.00     0.091 C 
ENDROOT
BRANCH   1   7
ATOM      7  O   LIG d   1      -7.878  75.236 116.295  0.00  0.00    -0.368 OA
BRANCH   7   8
ATOM      8  C   LIG d   1      -7.481  74.068 115.536  0.00  0.00     0.119 C 
BRANCH   8   9
ATOM      9  C   LIG d   1      -7.155  72.949 116.544  0.00  0.00     0.028 C 
ATOM     10  C   LIG d   1      -7.705  71.582 116.103  0.00  0.00     0.006 C 
ENDBRANCH   8   9
BRANCH   8  11
ATOM     11  C   LIG d   1      -6.178  74.317 114.771  0.00  0.00     0.028 C 
ATOM     12  C   LIG d   1      -4.980  74.569 115.700  0.00  0.00     0.006 C 
ENDBRANCH   8  11
ENDBRANCH   7   8
ENDBRANCH   1   7
BRANCH   6  13
ATOM     13  N   LIG d   1      -6.599  75.534 119.008  0.00  0.00    -0.311 N 
ATOM     14  C   LIG d   1      -5.605  76.381 119.267  0.00  0.00     0.210 C 
ATOM     15  C   LIG d   1      -4.267  75.722 119.616  0.00  0.00     0.109 C 
ATOM     16  O   LIG d   1      -5.713  77.617 119.272  0.00  0.00    -0.276 OA
ATOM     17  H   LIG d   1      -6.432  74.548 119.058  0.00  0.00     0.149 HD
ENDBRANCH   6  13
BRANCH   5  18
ATOM     18  N   LIG d   1      -8.502  77.081 120.830  0.00  0.00     0.381 N 
ATOM     19  H   LIG d   1      -8.396  76.662 121.733  0.00  0.00    -0.090 HD
ATOM     20  H   LIG d   1      -9.218  77.783 120.890  0.00  0.00    -0.090 HD
ATOM     21  H   LIG d   1      -7.642  77.497 120.547  0.00  0.00    -0.090 HD
ENDBRANCH   5  18
BRANCH   3  22
ATOM     22  C   LIG d   1     -12.144  75.379 118.228  0.00  0.00     0.382 C 
ATOM     23  O   LIG d   1     -12.953  76.254 118.619  0.00  0.00    -0.241 OA
ATOM     24  O   LIG d   1     -12.577  74.296 117.790  0.00  0.00    -0.241 OA
ENDBRANCH   3  22
TORSDOF 7
ENDMDL
MODEL 7
REMARK VINA RESULT:      -5.4     15.525     17.707
REMARK  7 active torsions:
REMARK  status: ('A' for Active; 'I' for Inactive)
REMARK    1  A    between atoms: C_2  and  C_3 
REMARK    2  A    between atoms: C_3  and  O_6 
REMARK    3  A    between atoms: C_3  and  C_4 
REMARK    4  A    between atoms: C_7  and  O_6 
REMARK    5  A    between atoms: C_9  and  C_10 
REMARK    6  A    between atoms: N_15  and  C_14 
REMARK    7  A    between atoms: N_20  and  C_19 
REMARK       I    between atoms: C_22  and  N_20 
ROOT
ATOM      1  C   LIG d   1      -4.677  91.491 117.385  0.00  0.00     0.161 C 
ATOM      2  C   LIG d   1      -3.702  92.316 117.972  0.00  0.00     0.016 C 
ATOM      3  C   LIG d   1      -4.013  93.419 118.800  0.00  0.00     0.038 C 
ATOM      4  C   LIG d   1      -5.324  93.684 119.222  0.00  0.00     0.028 C 
ATOM      5  C   LIG d   1      -6.386  93.182 118.250  0.00  0.00    -0.047 C 
ATOM      6  C   LIG d   1      -6.108  91.697 117.924  0.00  0.00     0.091 C 
ENDROOT
BRANCH   1   7
ATOM      7  O   LIG d   1      -4.288  90.109 117.512  0.00  0.00    -0.368 OA
BRANCH   7   8
ATOM      8  C   LIG d   1      -2.905  89.867 117.869  0.00  0.00     0.119 C 
BRANCH   8   9
ATOM      9  C   LIG d   1      -2.265  89.058 116.724  0.00  0.00     0.028 C 
ATOM     10  C   LIG d   1      -0.733  89.189 116.698  0.00  0.00     0.006 C 
ENDBRANCH   8   9
BRANCH   8  11
ATOM     11  C   LIG d   1      -2.799  88.970 119.107  0.00  0.00     0.028 C 
ATOM     12  C   LIG d   1      -2.125  89.674 120.296  0.00  0.00     0.006 C 
ENDBRANCH   8  11
ENDBRANCH   7   8
ENDBRANCH   1   7
BRANCH   6  13
ATOM     13  N   LIG d   1      -7.052  91.152 116.914  0.00  0.00    -0.311 N 
ATOM     14  C   LIG d   1      -6.994  91.454 115.618  0.00  0.00     0.210 C 
ATOM     15  C   LIG d   1      -8.074  90.798 114.752  0.00  0.00     0.109 C 
ATOM     16  O   LIG d   1      -6.131  92.177 115.099  0.00  0.00    -0.276 OA
ATOM     17  H   LIG d   1      -7.765  90.532 117.244  0.00  0.00     0.149 HD
ENDBRANCH   6  13
BRANCH   5  18
ATOM     18  N   LIG d   1      -7.704  93.400 118.877  0.00  0.00     0.381 N 
ATOM     19  H   LIG d   1      -8.249  94.020 118.313  0.00  0.00    -0.090 HD
ATOM     20  H   LIG d   1      -7.569  93.828 119.776  0.00  0.00    -0.090 HD
ATOM     21  H   LIG d   1      -8.178  92.530 118.983  0.00  0.00    -0.090 HD
ENDBRANCH   5  18
BRANCH   3  22
ATOM     22  C   LIG d   1      -3.009  94.296 119.182  0.00  0.00     0.382 C 
ATOM     23  O   LIG d   1      -2.047  94.523 118.409  0.00  0.00    -0.241 OA
ATOM     24  O   LIG d   1      -3.029  94.828 120.308  0.00  0.00    -0.241 OA
ENDBRANCH   3  22
TORSDOF 7
ENDMDL
MODEL 8
REMARK VINA RESULT:      -5.3      2.620      5.330
REMARK  7 active torsions:
REMARK  status: ('A' for Active; 'I' for Inactive)
REMARK    1  A    between atoms: C_2  and  C_3 
REMARK    2  A    between atoms: C_3  and  O_6 
REMARK    3  A    between atoms: C_3  and  C_4 
REMARK    4  A    between atoms: C_7  and  O_6 
REMARK    5  A    between atoms: C_9  and  C_10 
REMARK    6  A    between atoms: N_15  and  C_14 
REMARK    7  A    between atoms: N_20  and  C_19 
REMARK       I    between atoms: C_22  and  N_20 
ROOT
ATOM      1  C   LIG d   1      -8.046  75.482 117.596  0.00  0.00     0.161 C 
ATOM      2  C   LIG d   1      -8.255  76.796 118.047  0.00  0.00     0.016 C 
ATOM      3  C   LIG d   1      -9.514  77.284 118.466  0.00  0.00     0.038 C 
ATOM      4  C   LIG d   1     -10.626  76.441 118.608  0.00  0.00     0.028 C 
ATOM      5  C   LIG d   1     -10.586  75.226 117.686  0.00  0.00    -0.047 C 
ATOM      6  C   LIG d   1      -9.223  74.517 117.849  0.00  0.00     0.091 C 
ENDROOT
BRANCH   1   7
ATOM      7  O   LIG d   1      -6.834  74.956 118.172  0.00  0.00    -0.368 OA
BRANCH   7   8
ATOM      8  C   LIG d   1      -5.645  75.045 117.348  0.00  0.00     0.119 C 
BRANCH   8   9
ATOM      9  C   LIG d   1      -5.640  73.823 116.409  0.00  0.00     0.028 C 
ATOM     10  C   LIG d   1      -5.984  74.196 114.958  0.00  0.00     0.006 C 
ENDBRANCH   8   9
BRANCH   8  11
ATOM     11  C   LIG d   1      -4.372  74.916 118.189  0.00  0.00     0.028 C 
ATOM     12  C   LIG d   1      -3.237  74.195 117.446  0.00  0.00     0.006 C 
ENDBRANCH   8  11
ENDBRANCH   7   8
ENDBRANCH   1   7
BRANCH   6  13
ATOM     13  N   LIG d   1      -9.068  73.367 116.921  0.00  0.00    -0.311 N 
ATOM     14  C   LIG d   1      -9.292  72.103 117.276  0.00  0.00     0.210 C 
ATOM     15  C   LIG d   1      -9.054  71.068 116.171  0.00  0.00     0.109 C 
ATOM     16  O   LIG d   1      -9.696  71.743 118.392  0.00  0.00    -0.276 OA
ATOM     17  H   LIG d   1      -8.773  73.571 115.986  0.00  0.00     0.149 HD
ENDBRANCH   6  13
BRANCH   5  18
ATOM     18  N   LIG d   1     -11.732  74.365 118.035  0.00  0.00     0.381 N 
ATOM     19  H   LIG d   1     -12.582  74.888 117.970  0.00  0.00    -0.090 HD
ATOM     20  H   LIG d   1     -11.625  74.051 118.983  0.00  0.00    -0.090 HD
ATOM     21  H   LIG d   1     -11.768  73.581 117.420  0.00  0.00    -0.090 HD
ENDBRANCH   5  18
BRANCH   3  22
ATOM     22  C   LIG d   1      -9.679  78.639 118.712  0.00  0.00     0.382 C 
ATOM     23  O   LIG d   1      -8.725  79.431 118.524  0.00  0.00    -0.241 OA
ATOM     24  O   LIG d   1     -10.757  79.072 119.160  0.00  0.00    -0.241 OA
ENDBRANCH   3  22
TORSDOF 7
ENDMDL
MODEL 9
REMARK VINA RESULT:      -5.2      2.571      4.902
REMARK  7 active torsions:
REMARK  status: ('A' for Active; 'I' for Inactive)
REMARK    1  A    between atoms: C_2  and  C_3 
REMARK    2  A    between atoms: C_3  and  O_6 
REMARK    3  A    between atoms: C_3  and  C_4 
REMARK    4  A    between atoms: C_7  and  O_6 
REMARK    5  A    between atoms: C_9  and  C_10 
REMARK    6  A    between atoms: N_15  and  C_14 
REMARK    7  A    between atoms: N_20  and  C_19 
REMARK       I    between atoms: C_22  and  N_20 
ROOT
ATOM      1  C   LIG d   1      -9.065  74.908 119.052  0.00  0.00     0.161 C 
ATOM      2  C   LIG d   1      -8.578  73.969 118.127  0.00  0.00     0.016 C 
ATOM      3  C   LIG d   1      -9.374  73.391 117.112  0.00  0.00     0.038 C 
ATOM      4  C   LIG d   1     -10.683  73.828 116.857  0.00  0.00     0.028 C 
ATOM      5  C   LIG d   1     -11.377  74.409 118.084  0.00  0.00    -0.047 C 
ATOM      6  C   LIG d   1     -10.460  75.479 118.720  0.00  0.00     0.091 C 
ENDROOT
BRANCH   1   7
ATOM      7  O   LIG d   1      -8.112  75.976 119.213  0.00  0.00    -0.368 OA
BRANCH   7   8
ATOM      8  C   LIG d   1      -7.022  76.007 118.258  0.00  0.00     0.119 C 
BRANCH   8   9
ATOM      9  C   LIG d   1      -5.717  75.750 119.037  0.00  0.00     0.028 C 
ATOM     10  C   LIG d   1      -4.838  74.678 118.370  0.00  0.00     0.006 C 
ENDBRANCH   8   9
BRANCH   8  11
ATOM     11  C   LIG d   1      -6.859  77.401 117.644  0.00  0.00     0.028 C 
ATOM     12  C   LIG d   1      -7.782  78.447 118.288  0.00  0.00     0.006 C 
ENDBRANCH   8  11
ENDBRANCH   7   8
ENDBRANCH   1   7
BRANCH   6  13
ATOM     13  N   LIG d   1     -11.027  76.039 119.974  0.00  0.00    -0.311 N 
ATOM     14  C   LIG d   1     -11.318  77.328 120.135  0.00  0.00     0.210 C 
ATOM     15  C   LIG d   1     -11.875  77.698 121.514  0.00  0.00     0.109 C 
ATOM     16  O   LIG d   1     -11.199  78.195 119.257  0.00  0.00    -0.276 OA
ATOM     17  H   LIG d   1     -11.185  75.399 120.728  0.00  0.00     0.149 HD
ENDBRANCH   6  13
BRANCH   5  18
ATOM     18  N   LIG d   1     -12.678  74.950 117.645  0.00  0.00     0.381 N 
ATOM     19  H   LIG d   1     -12.580  75.917 117.409  0.00  0.00    -0.090 HD
ATOM     20  H   LIG d   1     -13.333  74.875 118.404  0.00  0.00    -0.090 HD
ATOM     21  H   LIG d   1     -13.011  74.440 116.857  0.00  0.00    -0.090 HD
ENDBRANCH   5  18
BRANCH   3  22
ATOM     22  C   LIG d   1      -8.875  72.335 116.364  0.00  0.00     0.382 C 
ATOM     23  O   LIG d   1      -9.608  71.352 116.101  0.00  0.00    -0.241 OA
ATOM     24  O   LIG d   1      -7.687  72.333 115.988  0.00  0.00    -0.241 OA
ENDBRANCH   3  22
TORSDOF 7
ENDMDL
