MODEL 1
REMARK VINA RESULT:      -5.1      0.000      0.000
REMARK  7 active torsions:
REMARK  status: ('A' for Active; 'I' for Inactive)
REMARK    1  A    between atoms: C_2  and  C_3 
REMARK    2  A    between atoms: C_3  and  O_6 
REMARK    3  A    between atoms: C_3  and  C_4 
REMARK    4  A    between atoms: C_7  and  O_6 
REMARK    5  A    between atoms: C_9  and  C_10 
REMARK    6  A    between atoms: N_15  and  C_14 
REMARK    7  A    between atoms: N_20  and  C_19 
REMARK       I    between atoms: C_22  and  N_20 
ROOT
ATOM      1  C   LIG d   1     -10.622  78.447 119.887  0.00  0.00     0.161 C 
ATOM      2  C   LIG d   1     -11.569  77.929 120.786  0.00  0.00     0.016 C 
ATOM      3  C   LIG d   1     -12.109  78.671 121.861  0.00  0.00     0.038 C 
ATOM      4  C   LIG d   1     -11.850  80.041 122.021  0.00  0.00     0.028 C 
ATOM      5  C   LIG d   1     -10.510  80.475 121.437  0.00  0.00    -0.047 C 
ATOM      6  C   LIG d   1     -10.411  79.973 119.979  0.00  0.00     0.091 C 
ENDROOT
BRANCH   1   7
ATOM      7  O   LIG d   1     -10.970  78.069 118.540  0.00  0.00    -0.368 OA
BRANCH   7   8
ATOM      8  C   LIG d   1     -10.144  77.046 117.932  0.00  0.00     0.119 C 
BRANCH   8   9
ATOM      9  C   LIG d   1     -10.993  75.764 117.832  0.00  0.00     0.028 C 
ATOM     10  C   LIG d   1     -10.226  74.601 117.181  0.00  0.00     0.006 C 
ENDBRANCH   8   9
BRANCH   8  11
ATOM     11  C   LIG d   1      -8.959  76.679 118.831  0.00  0.00     0.028 C 
ATOM     12  C   LIG d   1      -7.607  77.111 118.242  0.00  0.00     0.006 C 
ENDBRANCH   8  11
ENDBRANCH   7   8
ENDBRANCH   1   7
BRANCH   6  13
ATOM     13  N   LIG d   1      -9.095  80.282 119.360  0.00  0.00    -0.311 N 
ATOM     14  C   LIG d   1      -8.963  80.928 118.203  0.00  0.00     0.210 C 
ATOM     15  C   LIG d   1      -7.518  81.126 117.734  0.00  0.00     0.109 C 
ATOM     16  O   LIG d   1      -9.904  81.383 117.535  0.00  0.00    -0.276 OA
ATOM     17  H   LIG d   1      -8.278  79.976 119.850  0.00  0.00     0.149 HD
ENDBRANCH   6  13
BRANCH   5  18
ATOM     18  N   LIG d   1     -10.430  81.944 121.549  0.00  0.00     0.381 N 
ATOM     19  H   LIG d   1     -11.151  82.277 122.158  0.00  0.00    -0.090 HD
ATOM     20  H   LIG d   1     -10.573  82.347 120.641  0.00  0.00    -0.090 HD
ATOM     21  H   LIG d   1      -9.537  82.211 121.903  0.00  0.00    -0.090 HD
ENDBRANCH   5  18
BRANCH   3  22
ATOM     22  C   LIG d   1     -12.888  78.033 122.814  0.00  0.00     0.382 C 
ATOM     23  O   LIG d   1     -12.494  77.967 124.004  0.00  0.00    -0.241 OA
ATOM     24  O   LIG d   1     -13.959  77.484 122.491  0.00  0.00    -0.241 OA
ENDBRANCH   3  22
TORSDOF 7
ENDMDL
MODEL 2
REMARK VINA RESULT:      -4.6      3.756      6.002
REMARK  7 active torsions:
REMARK  status: ('A' for Active; 'I' for Inactive)
REMARK    1  A    between atoms: C_2  and  C_3 
REMARK    2  A    between atoms: C_3  and  O_6 
REMARK    3  A    between atoms: C_3  and  C_4 
REMARK    4  A    between atoms: C_7  and  O_6 
REMARK    5  A    between atoms: C_9  and  C_10 
REMARK    6  A    between atoms: N_15  and  C_14 
REMARK    7  A    between atoms: N_20  and  C_19 
REMARK       I    between atoms: C_22  and  N_20 
ROOT
ATOM      1  C   LIG d   1      -7.821  78.221 118.015  0.00  0.00     0.161 C 
ATOM      2  C   LIG d   1      -9.133  77.725 117.948  0.00  0.00     0.016 C 
ATOM      3  C   LIG d   1      -9.448  76.347 117.989  0.00  0.00     0.038 C 
ATOM      4  C   LIG d   1      -8.474  75.372 118.253  0.00  0.00     0.028 C 
ATOM      5  C   LIG d   1      -7.071  75.786 117.823  0.00  0.00    -0.047 C 
ATOM      6  C   LIG d   1      -6.755  77.179 118.414  0.00  0.00     0.091 C 
ENDROOT
BRANCH   1   7
ATOM      7  O   LIG d   1      -7.771  79.354 118.904  0.00  0.00    -0.368 OA
BRANCH   7   8
ATOM      8  C   LIG d   1      -7.363  80.612 118.312  0.00  0.00     0.119 C 
BRANCH   8   9
ATOM      9  C   LIG d   1      -6.970  81.559 119.462  0.00  0.00     0.028 C 
ATOM     10  C   LIG d   1      -5.696  81.101 120.191  0.00  0.00     0.006 C 
ENDBRANCH   8   9
BRANCH   8  11
ATOM     11  C   LIG d   1      -8.532  81.299 117.601  0.00  0.00     0.028 C 
ATOM     12  C   LIG d   1      -9.508  81.976 118.577  0.00  0.00     0.006 C 
ENDBRANCH   8  11
ENDBRANCH   7   8
ENDBRANCH   1   7
BRANCH   6  13
ATOM     13  N   LIG d   1      -5.433  77.695 117.974  0.00  0.00    -0.311 N 
ATOM     14  C   LIG d   1      -4.312  77.530 118.673  0.00  0.00     0.210 C 
ATOM     15  C   LIG d   1      -3.062  78.159 118.048  0.00  0.00     0.109 C 
ATOM     16  O   LIG d   1      -4.227  76.894 119.734  0.00  0.00    -0.276 OA
ATOM     17  H   LIG d   1      -5.405  78.196 117.107  0.00  0.00     0.149 HD
ENDBRANCH   6  13
BRANCH   5  18
ATOM     18  N   LIG d   1      -6.138  74.738 118.281  0.00  0.00     0.381 N 
ATOM     19  H   LIG d   1      -6.606  73.855 118.305  0.00  0.00    -0.090 HD
ATOM     20  H   LIG d   1      -5.833  74.959 119.213  0.00  0.00    -0.090 HD
ATOM     21  H   LIG d   1      -5.353  74.690 117.669  0.00  0.00    -0.090 HD
ENDBRANCH   5  18
BRANCH   3  22
ATOM     22  C   LIG d   1     -10.743  75.930 117.724  0.00  0.00     0.382 C 
ATOM     23  O   LIG d   1     -10.945  74.817 117.180  0.00  0.00    -0.241 OA
ATOM     24  O   LIG d   1     -11.711  76.670 117.982  0.00  0.00    -0.241 OA
ENDBRANCH   3  22
TORSDOF 7
ENDMDL
MODEL 3
REMARK VINA RESULT:      -4.6      3.291      6.077
REMARK  7 active torsions:
REMARK  status: ('A' for Active; 'I' for Inactive)
REMARK    1  A    between atoms: C_2  and  C_3 
REMARK    2  A    between atoms: C_3  and  O_6 
REMARK    3  A    between atoms: C_3  and  C_4 
REMARK    4  A    between atoms: C_7  and  O_6 
REMARK    5  A    between atoms: C_9  and  C_10 
REMARK    6  A    between atoms: N_15  and  C_14 
REMARK    7  A    between atoms: N_20  and  C_19 
REMARK       I    between atoms: C_22  and  N_20 
ROOT
ATOM      1  C   LIG d   1      -7.690  76.498 119.630  0.00  0.00     0.161 C 
ATOM      2  C   LIG d   1      -6.992  75.405 119.090  0.00  0.00     0.016 C 
ATOM      3  C   LIG d   1      -7.540  74.534 118.120  0.00  0.00     0.038 C 
ATOM      4  C   LIG d   1      -8.778  74.788 117.511  0.00  0.00     0.028 C 
ATOM      5  C   LIG d   1      -9.731  75.592 118.388  0.00  0.00    -0.047 C 
ATOM      6  C   LIG d   1      -9.000  76.856 118.897  0.00  0.00     0.091 C 
ENDROOT
BRANCH   1   7
ATOM      7  O   LIG d   1      -6.823  77.647 119.697  0.00  0.00    -0.368 OA
BRANCH   7   8
ATOM      8  C   LIG d   1      -6.787  78.488 118.518  0.00  0.00     0.119 C 
BRANCH   8   9
ATOM      9  C   LIG d   1      -5.408  78.301 117.857  0.00  0.00     0.028 C 
ATOM     10  C   LIG d   1      -4.249  78.547 118.839  0.00  0.00     0.006 C 
ENDBRANCH   8   9
BRANCH   8  11
ATOM     11  C   LIG d   1      -6.862  79.972 118.889  0.00  0.00     0.028 C 
ATOM     12  C   LIG d   1      -7.279  80.201 120.350  0.00  0.00     0.006 C 
ENDBRANCH   8  11
ENDBRANCH   7   8
ENDBRANCH   1   7
BRANCH   6  13
ATOM     13  N   LIG d   1      -9.834  77.656 119.831  0.00  0.00    -0.311 N 
ATOM     14  C   LIG d   1     -10.510  78.743 119.462  0.00  0.00     0.210 C 
ATOM     15  C   LIG d   1     -11.291  79.431 120.586  0.00  0.00     0.109 C 
ATOM     16  O   LIG d   1     -10.562  79.184 118.304  0.00  0.00    -0.276 OA
ATOM     17  H   LIG d   1      -9.873  77.351 120.784  0.00  0.00     0.149 HD
ENDBRANCH   6  13
BRANCH   5  18
ATOM     18  N   LIG d   1     -10.926  75.902 117.580  0.00  0.00     0.381 N 
ATOM     19  H   LIG d   1     -10.658  76.408 116.760  0.00  0.00    -0.090 HD
ATOM     20  H   LIG d   1     -11.542  76.483 118.121  0.00  0.00    -0.090 HD
ATOM     21  H   LIG d   1     -11.391  75.060 117.323  0.00  0.00    -0.090 HD
ENDBRANCH   5  18
BRANCH   3  22
ATOM     22  C   LIG d   1      -6.864  73.372 117.780  0.00  0.00     0.382 C 
ATOM     23  O   LIG d   1      -5.764  73.439 117.180  0.00  0.00    -0.241 OA
ATOM     24  O   LIG d   1      -7.362  72.257 118.026  0.00  0.00    -0.241 OA
ENDBRANCH   3  22
TORSDOF 7
ENDMDL
MODEL 4
REMARK VINA RESULT:      -4.6     11.784     14.214
REMARK  7 active torsions:
REMARK  status: ('A' for Active; 'I' for Inactive)
REMARK    1  A    between atoms: C_2  and  C_3 
REMARK    2  A    between atoms: C_3  and  O_6 
REMARK    3  A    between atoms: C_3  and  C_4 
REMARK    4  A    between atoms: C_7  and  O_6 
REMARK    5  A    between atoms: C_9  and  C_10 
REMARK    6  A    between atoms: N_15  and  C_14 
REMARK    7  A    between atoms: N_20  and  C_19 
REMARK       I    between atoms: C_22  and  N_20 
ROOT
ATOM      1  C   LIG d   1     -14.039  65.251 120.263  0.00  0.00     0.161 C 
ATOM      2  C   LIG d   1     -13.140  64.390 120.914  0.00  0.00     0.016 C 
ATOM      3  C   LIG d   1     -12.386  64.765 122.050  0.00  0.00     0.038 C 
ATOM      4  C   LIG d   1     -12.595  65.986 122.708  0.00  0.00     0.028 C 
ATOM      5  C   LIG d   1     -13.127  67.084 121.793  0.00  0.00    -0.047 C 
ATOM      6  C   LIG d   1     -14.362  66.549 121.033  0.00  0.00     0.091 C 
ENDROOT
BRANCH   1   7
ATOM      7  O   LIG d   1     -15.252  64.541 119.946  0.00  0.00    -0.368 OA
BRANCH   7   8
ATOM      8  C   LIG d   1     -15.494  64.289 118.540  0.00  0.00     0.119 C 
BRANCH   8   9
ATOM      9  C   LIG d   1     -16.690  65.161 118.112  0.00  0.00     0.028 C 
ATOM     10  C   LIG d   1     -17.755  65.279 119.215  0.00  0.00     0.006 C 
ENDBRANCH   8   9
BRANCH   8  11
ATOM     11  C   LIG d   1     -15.940  62.843 118.302  0.00  0.00     0.028 C 
ATOM     12  C   LIG d   1     -15.488  61.889 119.418  0.00  0.00     0.006 C 
ENDBRANCH   8  11
ENDBRANCH   7   8
ENDBRANCH   1   7
BRANCH   6  13
ATOM     13  N   LIG d   1     -14.894  67.532 120.053  0.00  0.00    -0.311 N 
ATOM     14  C   LIG d   1     -15.891  68.372 120.325  0.00  0.00     0.210 C 
ATOM     15  C   LIG d   1     -16.299  69.288 119.167  0.00  0.00     0.109 C 
ATOM     16  O   LIG d   1     -16.455  68.467 121.425  0.00  0.00    -0.276 OA
ATOM     17  H   LIG d   1     -14.473  67.544 119.145  0.00  0.00     0.149 HD
ENDBRANCH   6  13
BRANCH   5  18
ATOM     18  N   LIG d   1     -13.429  68.258 122.634  0.00  0.00     0.381 N 
ATOM     19  H   LIG d   1     -13.495  67.980 123.592  0.00  0.00    -0.090 HD
ATOM     20  H   LIG d   1     -14.316  68.638 122.354  0.00  0.00    -0.090 HD
ATOM     21  H   LIG d   1     -12.716  68.945 122.528  0.00  0.00    -0.090 HD
ENDBRANCH   5  18
BRANCH   3  22
ATOM     22  C   LIG d   1     -11.383  63.929 122.516  0.00  0.00     0.382 C 
ATOM     23  O   LIG d   1     -10.536  63.460 121.717  0.00  0.00    -0.241 OA
ATOM     24  O   LIG d   1     -11.339  63.602 123.717  0.00  0.00    -0.241 OA
ENDBRANCH   3  22
TORSDOF 7
ENDMDL
MODEL 5
REMARK VINA RESULT:      -4.6      2.284      2.972
REMARK  7 active torsions:
REMARK  status: ('A' for Active; 'I' for Inactive)
REMARK    1  A    between atoms: C_2  and  C_3 
REMARK    2  A    between atoms: C_3  and  O_6 
REMARK    3  A    between atoms: C_3  and  C_4 
REMARK    4  A    between atoms: C_7  and  O_6 
REMARK    5  A    between atoms: C_9  and  C_10 
REMARK    6  A    between atoms: N_15  and  C_14 
REMARK    7  A    between atoms: N_20  and  C_19 
REMARK       I    between atoms: C_22  and  N_20 
ROOT
ATOM      1  C   LIG d   1      -8.701  77.719 119.584  0.00  0.00     0.161 C 
ATOM      2  C   LIG d   1     -10.022  77.787 120.057  0.00  0.00     0.016 C 
ATOM      3  C   LIG d   1     -10.604  78.968 120.572  0.00  0.00     0.038 C 
ATOM      4  C   LIG d   1      -9.948  80.206 120.509  0.00  0.00     0.028 C 
ATOM      5  C   LIG d   1      -8.427  80.087 120.504  0.00  0.00    -0.047 C 
ATOM      6  C   LIG d   1      -8.007  79.085 119.404  0.00  0.00     0.091 C 
ENDROOT
BRANCH   1   7
ATOM      7  O   LIG d   1      -8.661  76.971 118.352  0.00  0.00    -0.368 OA
BRANCH   7   8
ATOM      8  C   LIG d   1      -8.642  75.528 118.483  0.00  0.00     0.119 C 
BRANCH   8   9
ATOM      9  C   LIG d   1      -7.178  75.103 118.708  0.00  0.00     0.028 C 
ATOM     10  C   LIG d   1      -6.949  73.611 118.412  0.00  0.00     0.006 C 
ENDBRANCH   8   9
BRANCH   8  11
ATOM     11  C   LIG d   1      -9.068  74.845 117.180  0.00  0.00     0.028 C 
ATOM     12  C   LIG d   1     -10.543  74.412 117.188  0.00  0.00     0.006 C 
ENDBRANCH   8  11
ENDBRANCH   7   8
ENDBRANCH   1   7
BRANCH   6  13
ATOM     13  N   LIG d   1      -6.540  78.845 119.387  0.00  0.00    -0.311 N 
ATOM     14  C   LIG d   1      -5.789  78.978 118.295  0.00  0.00     0.210 C 
ATOM     15  C   LIG d   1      -4.302  78.663 118.492  0.00  0.00     0.109 C 
ATOM     16  O   LIG d   1      -6.206  79.357 117.191  0.00  0.00    -0.276 OA
ATOM     17  H   LIG d   1      -6.114  78.565 120.248  0.00  0.00     0.149 HD
ENDBRANCH   6  13
BRANCH   5  18
ATOM     18  N   LIG d   1      -7.875  81.439 120.297  0.00  0.00     0.381 N 
ATOM     19  H   LIG d   1      -6.935  81.372 119.960  0.00  0.00    -0.090 HD
ATOM     20  H   LIG d   1      -7.861  81.923 121.177  0.00  0.00    -0.090 HD
ATOM     21  H   LIG d   1      -8.435  81.939 119.642  0.00  0.00    -0.090 HD
ENDBRANCH   5  18
BRANCH   3  22
ATOM     22  C   LIG d   1     -11.841  78.909 121.195  0.00  0.00     0.382 C 
ATOM     23  O   LIG d   1     -12.381  79.960 121.617  0.00  0.00    -0.241 OA
ATOM     24  O   LIG d   1     -12.404  77.814 121.380  0.00  0.00    -0.241 OA
ENDBRANCH   3  22
TORSDOF 7
ENDMDL
MODEL 6
REMARK VINA RESULT:      -4.6      3.377      5.261
REMARK  7 active torsions:
REMARK  status: ('A' for Active; 'I' for Inactive)
REMARK    1  A    between atoms: C_2  and  C_3 
REMARK    2  A    between atoms: C_3  and  O_6 
REMARK    3  A    between atoms: C_3  and  C_4 
REMARK    4  A    between atoms: C_7  and  O_6 
REMARK    5  A    between atoms: C_9  and  C_10 
REMARK    6  A    between atoms: N_15  and  C_14 
REMARK    7  A    between atoms: N_20  and  C_19 
REMARK       I    between atoms: C_22  and  N_20 
ROOT
ATOM      1  C   LIG d   1      -7.886  78.594 118.047  0.00  0.00     0.161 C 
ATOM      2  C   LIG d   1      -9.180  78.067 117.903  0.00  0.00     0.016 C 
ATOM      3  C   LIG d   1      -9.621  76.896 118.563  0.00  0.00     0.038 C 
ATOM      4  C   LIG d   1      -8.841  76.255 119.536  0.00  0.00     0.028 C 
ATOM      5  C   LIG d   1      -7.342  76.459 119.341  0.00  0.00    -0.047 C 
ATOM      6  C   LIG d   1      -7.057  77.971 119.190  0.00  0.00     0.091 C 
ENDROOT
BRANCH   1   7
ATOM      7  O   LIG d   1      -7.956  80.025 118.203  0.00  0.00    -0.368 OA
BRANCH   7   8
ATOM      8  C   LIG d   1      -8.746  80.507 119.318  0.00  0.00     0.119 C 
BRANCH   8   9
ATOM      9  C   LIG d   1      -9.625  81.661 118.798  0.00  0.00     0.028 C 
ATOM     10  C   LIG d   1      -9.465  81.885 117.285  0.00  0.00     0.006 C 
ENDBRANCH   8   9
BRANCH   8  11
ATOM     11  C   LIG d   1      -7.859  81.130 120.401  0.00  0.00     0.028 C 
ATOM     12  C   LIG d   1      -6.626  81.843 119.824  0.00  0.00     0.006 C 
ENDBRANCH   8  11
ENDBRANCH   7   8
ENDBRANCH   1   7
BRANCH   6  13
ATOM     13  N   LIG d   1      -5.624  78.252 118.912  0.00  0.00    -0.311 N 
ATOM     14  C   LIG d   1      -4.751  78.606 119.853  0.00  0.00     0.210 C 
ATOM     15  C   LIG d   1      -3.329  78.870 119.348  0.00  0.00     0.109 C 
ATOM     16  O   LIG d   1      -5.011  78.696 121.062  0.00  0.00    -0.276 OA
ATOM     17  H   LIG d   1      -5.320  78.173 117.961  0.00  0.00     0.149 HD
ENDBRANCH   6  13
BRANCH   5  18
ATOM     18  N   LIG d   1      -6.656  75.854 120.499  0.00  0.00     0.381 N 
ATOM     19  H   LIG d   1      -5.881  75.306 120.185  0.00  0.00    -0.090 HD
ATOM     20  H   LIG d   1      -7.298  75.248 120.977  0.00  0.00    -0.090 HD
ATOM     21  H   LIG d   1      -6.338  76.568 121.118  0.00  0.00    -0.090 HD
ENDBRANCH   5  18
BRANCH   3  22
ATOM     22  C   LIG d   1     -10.842  76.334 118.221  0.00  0.00     0.382 C 
ATOM     23  O   LIG d   1     -10.884  75.182 117.725  0.00  0.00    -0.241 OA
ATOM     24  O   LIG d   1     -11.897  76.980 118.362  0.00  0.00    -0.241 OA
ENDBRANCH   3  22
TORSDOF 7
ENDMDL
MODEL 7
REMARK VINA RESULT:      -4.6      3.920      6.346
REMARK  7 active torsions:
REMARK  status: ('A' for Active; 'I' for Inactive)
REMARK    1  A    between atoms: C_2  and  C_3 
REMARK    2  A    between atoms: C_3  and  O_6 
REMARK    3  A    between atoms: C_3  and  C_4 
REMARK    4  A    between atoms: C_7  and  O_6 
REMARK    5  A    between atoms: C_9  and  C_10 
REMARK    6  A    between atoms: N_15  and  C_14 
REMARK    7  A    between atoms: N_20  and  C_19 
REMARK       I    between atoms: C_22  and  N_20 
ROOT
ATOM      1  C   LIG d   1      -6.491  77.996 117.710  0.00  0.00     0.161 C 
ATOM      2  C   LIG d   1      -7.219  79.193 117.819  0.00  0.00     0.016 C 
ATOM      3  C   LIG d   1      -8.627  79.239 117.941  0.00  0.00     0.038 C 
ATOM      4  C   LIG d   1      -9.394  78.078 118.115  0.00  0.00     0.028 C 
ATOM      5  C   LIG d   1      -8.758  76.834 117.505  0.00  0.00    -0.047 C 
ATOM      6  C   LIG d   1      -7.301  76.717 118.009  0.00  0.00     0.091 C 
ENDROOT
BRANCH   1   7
ATOM      7  O   LIG d   1      -5.322  78.057 118.550  0.00  0.00    -0.368 OA
BRANCH   7   8
ATOM      8  C   LIG d   1      -5.529  77.757 119.953  0.00  0.00     0.119 C 
BRANCH   8   9
ATOM      9  C   LIG d   1      -5.084  78.993 120.760  0.00  0.00     0.028 C 
ATOM     10  C   LIG d   1      -4.146  79.911 119.959  0.00  0.00     0.006 C 
ENDBRANCH   8   9
BRANCH   8  11
ATOM     11  C   LIG d   1      -4.617  76.619 120.420  0.00  0.00     0.028 C 
ATOM     12  C   LIG d   1      -3.560  76.234 119.373  0.00  0.00     0.006 C 
ENDBRANCH   8  11
ENDBRANCH   7   8
ENDBRANCH   1   7
BRANCH   6  13
ATOM     13  N   LIG d   1      -6.578  75.573 117.395  0.00  0.00    -0.311 N 
ATOM     14  C   LIG d   1      -6.467  74.380 117.976  0.00  0.00     0.210 C 
ATOM     15  C   LIG d   1      -5.664  73.346 117.180  0.00  0.00     0.109 C 
ATOM     16  O   LIG d   1      -6.985  74.069 119.059  0.00  0.00    -0.276 OA
ATOM     17  H   LIG d   1      -6.154  75.728 116.502  0.00  0.00     0.149 HD
ENDBRANCH   6  13
BRANCH   5  18
ATOM     18  N   LIG d   1      -9.593  75.677 117.878  0.00  0.00     0.381 N 
ATOM     19  H   LIG d   1      -9.437  75.442 118.838  0.00  0.00    -0.090 HD
ATOM     20  H   LIG d   1      -9.329  74.889 117.313  0.00  0.00    -0.090 HD
ATOM     21  H   LIG d   1     -10.556  75.891 117.734  0.00  0.00    -0.090 HD
ENDBRANCH   5  18
BRANCH   3  22
ATOM     22  C   LIG d   1      -9.285  80.456 117.849  0.00  0.00     0.382 C 
ATOM     23  O   LIG d   1     -10.470  80.560 118.246  0.00  0.00    -0.241 OA
ATOM     24  O   LIG d   1      -8.722  81.441 117.333  0.00  0.00    -0.241 OA
ENDBRANCH   3  22
TORSDOF 7
ENDMDL
MODEL 8
REMARK VINA RESULT:      -4.5      2.047      2.631
REMARK  7 active torsions:
REMARK  status: ('A' for Active; 'I' for Inactive)
REMARK    1  A    between atoms: C_2  and  C_3 
REMARK    2  A    between atoms: C_3  and  O_6 
REMARK    3  A    between atoms: C_3  and  C_4 
REMARK    4  A    between atoms: C_7  and  O_6 
REMARK    5  A    between atoms: C_9  and  C_10 
REMARK    6  A    between atoms: N_15  and  C_14 
REMARK    7  A    between atoms: N_20  and  C_19 
REMARK       I    between atoms: C_22  and  N_20 
ROOT
ATOM      1  C   LIG d   1      -9.550  79.083 119.284  0.00  0.00     0.161 C 
ATOM      2  C   LIG d   1     -10.385  79.381 120.374  0.00  0.00     0.016 C 
ATOM      3  C   LIG d   1     -10.415  80.645 121.009  0.00  0.00     0.038 C 
ATOM      4  C   LIG d   1      -9.718  81.749 120.496  0.00  0.00     0.028 C 
ATOM      5  C   LIG d   1      -8.475  81.364 119.701  0.00  0.00    -0.047 C 
ATOM      6  C   LIG d   1      -8.864  80.307 118.642  0.00  0.00     0.091 C 
ENDROOT
BRANCH   1   7
ATOM      7  O   LIG d   1     -10.289  78.344 118.292  0.00  0.00    -0.368 OA
BRANCH   7   8
ATOM      8  C   LIG d   1      -9.821  77.001 118.019  0.00  0.00     0.119 C 
BRANCH   8   9
ATOM      9  C   LIG d   1     -11.059  76.087 117.936  0.00  0.00     0.028 C 
ATOM     10  C   LIG d   1     -10.773  74.778 117.180  0.00  0.00     0.006 C 
ENDBRANCH   8   9
BRANCH   8  11
ATOM     11  C   LIG d   1      -8.989  76.453 119.182  0.00  0.00     0.028 C 
ATOM     12  C   LIG d   1      -7.680  75.793 118.721  0.00  0.00     0.006 C 
ENDBRANCH   8  11
ENDBRANCH   7   8
ENDBRANCH   1   7
BRANCH   6  13
ATOM     13  N   LIG d   1      -7.691  79.814 117.875  0.00  0.00    -0.311 N 
ATOM     14  C   LIG d   1      -6.624  79.256 118.445  0.00  0.00     0.210 C 
ATOM     15  C   LIG d   1      -5.518  78.834 117.474  0.00  0.00     0.109 C 
ATOM     16  O   LIG d   1      -6.504  79.040 119.661  0.00  0.00    -0.276 OA
ATOM     17  H   LIG d   1      -7.718  79.920 116.880  0.00  0.00     0.149 HD
ENDBRANCH   6  13
BRANCH   5  18
ATOM     18  N   LIG d   1      -7.924  82.598 119.110  0.00  0.00     0.381 N 
ATOM     19  H   LIG d   1      -8.042  82.581 118.117  0.00  0.00    -0.090 HD
ATOM     20  H   LIG d   1      -6.940  82.643 119.310  0.00  0.00    -0.090 HD
ATOM     21  H   LIG d   1      -8.384  83.394 119.493  0.00  0.00    -0.090 HD
ENDBRANCH   5  18
BRANCH   3  22
ATOM     22  C   LIG d   1     -11.119  80.802 122.193  0.00  0.00     0.382 C 
ATOM     23  O   LIG d   1     -11.708  81.884 122.433  0.00  0.00    -0.241 OA
ATOM     24  O   LIG d   1     -11.135  79.893 123.044  0.00  0.00    -0.241 OA
ENDBRANCH   3  22
TORSDOF 7
ENDMDL
MODEL 9
REMARK VINA RESULT:      -4.5      3.345      5.763
REMARK  7 active torsions:
REMARK  status: ('A' for Active; 'I' for Inactive)
REMARK    1  A    between atoms: C_2  and  C_3 
REMARK    2  A    between atoms: C_3  and  O_6 
REMARK    3  A    between atoms: C_3  and  C_4 
REMARK    4  A    between atoms: C_7  and  O_6 
REMARK    5  A    between atoms: C_9  and  C_10 
REMARK    6  A    between atoms: N_15  and  C_14 
REMARK    7  A    between atoms: N_20  and  C_19 
REMARK       I    between atoms: C_22  and  N_20 
ROOT
ATOM      1  C   LIG d   1      -7.208  77.763 117.305  0.00  0.00     0.161 C 
ATOM      2  C   LIG d   1      -6.279  76.714 117.412  0.00  0.00     0.016 C 
ATOM      3  C   LIG d   1      -5.115  76.783 118.211  0.00  0.00     0.038 C 
ATOM      4  C   LIG d   1      -4.877  77.856 119.083  0.00  0.00     0.028 C 
ATOM      5  C   LIG d   1      -5.528  79.159 118.631  0.00  0.00    -0.047 C 
ATOM      6  C   LIG d   1      -7.022  78.897 118.335  0.00  0.00     0.091 C 
ENDROOT
BRANCH   1   7
ATOM      7  O   LIG d   1      -8.548  77.237 117.375  0.00  0.00    -0.368 OA
BRANCH   7   8
ATOM      8  C   LIG d   1      -8.736  76.079 118.224  0.00  0.00     0.119 C 
BRANCH   8   9
ATOM      9  C   LIG d   1      -9.969  75.317 117.702  0.00  0.00     0.028 C 
ATOM     10  C   LIG d   1     -11.278  76.092 117.931  0.00  0.00     0.006 C 
ENDBRANCH   8   9
BRANCH   8  11
ATOM     11  C   LIG d   1      -9.088  76.489 119.656  0.00  0.00     0.028 C 
ATOM     12  C   LIG d   1      -8.038  76.035 120.682  0.00  0.00     0.006 C 
ENDBRANCH   8  11
ENDBRANCH   7   8
ENDBRANCH   1   7
BRANCH   6  13
ATOM     13  N   LIG d   1      -7.715  80.101 117.806  0.00  0.00    -0.311 N 
ATOM     14  C   LIG d   1      -8.926  80.485 118.207  0.00  0.00     0.210 C 
ATOM     15  C   LIG d   1      -9.465  81.744 117.520  0.00  0.00     0.109 C 
ATOM     16  O   LIG d   1      -9.591  79.921 119.089  0.00  0.00    -0.276 OA
ATOM     17  H   LIG d   1      -7.234  80.635 117.110  0.00  0.00     0.149 HD
ENDBRANCH   6  13
BRANCH   5  18
ATOM     18  N   LIG d   1      -5.316  80.156 119.698  0.00  0.00     0.381 N 
ATOM     19  H   LIG d   1      -4.530  80.731 119.472  0.00  0.00    -0.090 HD
ATOM     20  H   LIG d   1      -5.119  79.675 120.558  0.00  0.00    -0.090 HD
ATOM     21  H   LIG d   1      -6.131  80.720 119.804  0.00  0.00    -0.090 HD
ENDBRANCH   5  18
BRANCH   3  22
ATOM     22  C   LIG d   1      -4.154  75.788 118.113  0.00  0.00     0.382 C 
ATOM     23  O   LIG d   1      -4.502  74.596 117.938  0.00  0.00    -0.241 OA
ATOM     24  O   LIG d   1      -2.946  76.062 118.243  0.00  0.00    -0.241 OA
ENDBRANCH   3  22
TORSDOF 7
ENDMDL
