MODEL 1
REMARK VINA RESULT:      -5.8      0.000      0.000
REMARK  7 active torsions:
REMARK  status: ('A' for Active; 'I' for Inactive)
REMARK    1  A    between atoms: C_2  and  C_3 
REMARK    2  A    between atoms: C_3  and  O_6 
REMARK    3  A    between atoms: C_3  and  C_4 
REMARK    4  A    between atoms: C_7  and  O_6 
REMARK    5  A    between atoms: C_9  and  C_10 
REMARK    6  A    between atoms: N_15  and  C_14 
REMARK    7  A    between atoms: N_20  and  C_19 
REMARK       I    between atoms: C_22  and  N_20 
ROOT
ATOM      1  C   LIG d   1      -7.252  75.571 116.767  0.00  0.00     0.161 C 
ATOM      2  C   LIG d   1      -8.102  74.473 116.979  0.00  0.00     0.016 C 
ATOM      3  C   LIG d   1      -7.673  73.129 116.890  0.00  0.00     0.038 C 
ATOM      4  C   LIG d   1      -6.321  72.791 116.731  0.00  0.00     0.028 C 
ATOM      5  C   LIG d   1      -5.510  73.862 116.011  0.00  0.00    -0.047 C 
ATOM      6  C   LIG d   1      -5.750  75.224 116.702  0.00  0.00     0.091 C 
ENDROOT
BRANCH   1   7
ATOM      7  O   LIG d   1      -7.492  76.575 117.774  0.00  0.00    -0.368 OA
BRANCH   7   8
ATOM      8  C   LIG d   1      -8.266  77.726 117.355  0.00  0.00     0.119 C 
BRANCH   8   9
ATOM      9  C   LIG d   1      -7.320  78.942 117.346  0.00  0.00     0.028 C 
ATOM     10  C   LIG d   1      -8.046  80.253 117.693  0.00  0.00     0.006 C 
ENDBRANCH   8   9
BRANCH   8  11
ATOM     11  C   LIG d   1      -9.355  78.066 118.376  0.00  0.00     0.028 C 
ATOM     12  C   LIG d   1     -10.359  76.921 118.581  0.00  0.00     0.006 C 
ENDBRANCH   8  11
ENDBRANCH   7   8
ENDBRANCH   1   7
BRANCH   6  13
ATOM     13  N   LIG d   1      -5.060  76.342 116.009  0.00  0.00    -0.311 N 
ATOM     14  C   LIG d   1      -3.860  76.797 116.367  0.00  0.00     0.210 C 
ATOM     15  C   LIG d   1      -3.338  77.970 115.531  0.00  0.00     0.109 C 
ATOM     16  O   LIG d   1      -3.165  76.320 117.277  0.00  0.00    -0.276 OA
ATOM     17  H   LIG d   1      -5.539  76.767 115.239  0.00  0.00     0.149 HD
ENDBRANCH   6  13
BRANCH   5  18
ATOM     18  N   LIG d   1      -4.096  73.443 116.036  0.00  0.00     0.381 N 
ATOM     19  H   LIG d   1      -4.016  72.499 115.714  0.00  0.00    -0.090 HD
ATOM     20  H   LIG d   1      -3.762  73.482 116.983  0.00  0.00    -0.090 HD
ATOM     21  H   LIG d   1      -3.551  74.046 115.459  0.00  0.00    -0.090 HD
ENDBRANCH   5  18
BRANCH   3  22
ATOM     22  C   LIG d   1      -8.608  72.105 116.921  0.00  0.00     0.382 C 
ATOM     23  O   LIG d   1      -9.812  72.363 117.164  0.00  0.00    -0.241 OA
ATOM     24  O   LIG d   1      -8.256  70.922 116.751  0.00  0.00    -0.241 OA
ENDBRANCH   3  22
TORSDOF 7
ENDMDL
MODEL 2
REMARK VINA RESULT:      -5.8      1.926      4.906
REMARK  7 active torsions:
REMARK  status: ('A' for Active; 'I' for Inactive)
REMARK    1  A    between atoms: C_2  and  C_3 
REMARK    2  A    between atoms: C_3  and  O_6 
REMARK    3  A    between atoms: C_3  and  C_4 
REMARK    4  A    between atoms: C_7  and  O_6 
REMARK    5  A    between atoms: C_9  and  C_10 
REMARK    6  A    between atoms: N_15  and  C_14 
REMARK    7  A    between atoms: N_20  and  C_19 
REMARK       I    between atoms: C_22  and  N_20 
ROOT
ATOM      1  C   LIG d   1      -6.985  75.343 117.127  0.00  0.00     0.161 C 
ATOM      2  C   LIG d   1      -8.114  76.092 117.495  0.00  0.00     0.016 C 
ATOM      3  C   LIG d   1      -8.162  77.504 117.442  0.00  0.00     0.038 C 
ATOM      4  C   LIG d   1      -7.128  78.260 116.870  0.00  0.00     0.028 C 
ATOM      5  C   LIG d   1      -5.765  77.581 116.951  0.00  0.00    -0.047 C 
ATOM      6  C   LIG d   1      -5.887  76.144 116.395  0.00  0.00     0.091 C 
ENDROOT
BRANCH   1   7
ATOM      7  O   LIG d   1      -7.389  74.208 116.335  0.00  0.00    -0.368 OA
BRANCH   7   8
ATOM      8  C   LIG d   1      -7.816  73.036 117.072  0.00  0.00     0.119 C 
BRANCH   8   9
ATOM      9  C   LIG d   1      -7.203  71.804 116.378  0.00  0.00     0.028 C 
ATOM     10  C   LIG d   1      -5.839  72.110 115.736  0.00  0.00     0.006 C 
ENDBRANCH   8   9
BRANCH   8  11
ATOM     11  C   LIG d   1      -9.332  72.841 116.978  0.00  0.00     0.028 C 
ATOM     12  C   LIG d   1      -9.782  71.443 117.431  0.00  0.00     0.006 C 
ENDBRANCH   8  11
ENDBRANCH   7   8
ENDBRANCH   1   7
BRANCH   6  13
ATOM     13  N   LIG d   1      -4.618  75.380 116.515  0.00  0.00    -0.311 N 
ATOM     14  C   LIG d   1      -3.761  75.221 115.508  0.00  0.00     0.210 C 
ATOM     15  C   LIG d   1      -2.523  74.381 115.840  0.00  0.00     0.109 C 
ATOM     16  O   LIG d   1      -3.892  75.723 114.382  0.00  0.00    -0.276 OA
ATOM     17  H   LIG d   1      -4.417  74.965 117.404  0.00  0.00     0.149 HD
ENDBRANCH   6  13
BRANCH   5  18
ATOM     18  N   LIG d   1      -4.808  78.413 116.197  0.00  0.00     0.381 N 
ATOM     19  H   LIG d   1      -3.877  78.079 116.350  0.00  0.00    -0.090 HD
ATOM     20  H   LIG d   1      -4.863  79.358 116.534  0.00  0.00    -0.090 HD
ATOM     21  H   LIG d   1      -5.023  78.385 115.225  0.00  0.00    -0.090 HD
ENDBRANCH   5  18
BRANCH   3  22
ATOM     22  C   LIG d   1      -9.238  78.177 118.003  0.00  0.00     0.382 C 
ATOM     23  O   LIG d   1     -10.329  77.583 118.172  0.00  0.00    -0.241 OA
ATOM     24  O   LIG d   1      -9.143  79.383 118.300  0.00  0.00    -0.241 OA
ENDBRANCH   3  22
TORSDOF 7
ENDMDL
MODEL 3
REMARK VINA RESULT:      -5.7     12.698     15.941
REMARK  7 active torsions:
REMARK  status: ('A' for Active; 'I' for Inactive)
REMARK    1  A    between atoms: C_2  and  C_3 
REMARK    2  A    between atoms: C_3  and  O_6 
REMARK    3  A    between atoms: C_3  and  C_4 
REMARK    4  A    between atoms: C_7  and  O_6 
REMARK    5  A    between atoms: C_9  and  C_10 
REMARK    6  A    between atoms: N_15  and  C_14 
REMARK    7  A    between atoms: N_20  and  C_19 
REMARK       I    between atoms: C_22  and  N_20 
ROOT
ATOM      1  C   LIG d   1       2.125  86.911 112.606  0.00  0.00     0.161 C 
ATOM      2  C   LIG d   1       2.441  88.275 112.721  0.00  0.00     0.016 C 
ATOM      3  C   LIG d   1       3.221  88.807 113.774  0.00  0.00     0.038 C 
ATOM      4  C   LIG d   1       3.868  87.983 114.707  0.00  0.00     0.028 C 
ATOM      5  C   LIG d   1       3.165  86.647 114.925  0.00  0.00    -0.047 C 
ATOM      6  C   LIG d   1       2.914  85.982 113.552  0.00  0.00     0.091 C 
ENDROOT
BRANCH   1   7
ATOM      7  O   LIG d   1       2.285  86.486 111.238  0.00  0.00    -0.368 OA
BRANCH   7   8
ATOM      8  C   LIG d   1       1.082  86.467 110.432  0.00  0.00     0.119 C 
BRANCH   8   9
ATOM      9  C   LIG d   1      -0.070  85.978 111.331  0.00  0.00     0.028 C 
ATOM     10  C   LIG d   1      -1.322  86.864 111.215  0.00  0.00     0.006 C 
ENDBRANCH   8   9
BRANCH   8  11
ATOM     11  C   LIG d   1       1.182  85.434 109.305  0.00  0.00     0.028 C 
ATOM     12  C   LIG d   1       0.725  84.032 109.739  0.00  0.00     0.006 C 
ENDBRANCH   8  11
ENDBRANCH   7   8
ENDBRANCH   1   7
BRANCH   6  13
ATOM     13  N   LIG d   1       2.155  84.710 113.669  0.00  0.00    -0.311 N 
ATOM     14  C   LIG d   1       2.409  83.634 112.927  0.00  0.00     0.210 C 
ATOM     15  C   LIG d   1       1.495  82.434 113.193  0.00  0.00     0.109 C 
ATOM     16  O   LIG d   1       3.325  83.549 112.095  0.00  0.00    -0.276 OA
ATOM     17  H   LIG d   1       1.414  84.681 114.342  0.00  0.00     0.149 HD
ENDBRANCH   6  13
BRANCH   5  18
ATOM     18  N   LIG d   1       4.018  85.835 115.813  0.00  0.00     0.381 N 
ATOM     19  H   LIG d   1       3.855  84.863 115.643  0.00  0.00    -0.090 HD
ATOM     20  H   LIG d   1       3.774  86.033 116.768  0.00  0.00    -0.090 HD
ATOM     21  H   LIG d   1       4.977  86.051 115.656  0.00  0.00    -0.090 HD
ENDBRANCH   5  18
BRANCH   3  22
ATOM     22  C   LIG d   1       3.327  90.181 113.924  0.00  0.00     0.382 C 
ATOM     23  O   LIG d   1       3.209  90.932 112.925  0.00  0.00    -0.241 OA
ATOM     24  O   LIG d   1       3.584  90.677 115.037  0.00  0.00    -0.241 OA
ENDBRANCH   3  22
TORSDOF 7
ENDMDL
MODEL 4
REMARK VINA RESULT:      -5.7     12.772     14.588
REMARK  7 active torsions:
REMARK  status: ('A' for Active; 'I' for Inactive)
REMARK    1  A    between atoms: C_2  and  C_3 
REMARK    2  A    between atoms: C_3  and  O_6 
REMARK    3  A    between atoms: C_3  and  C_4 
REMARK    4  A    between atoms: C_7  and  O_6 
REMARK    5  A    between atoms: C_9  and  C_10 
REMARK    6  A    between atoms: N_15  and  C_14 
REMARK    7  A    between atoms: N_20  and  C_19 
REMARK       I    between atoms: C_22  and  N_20 
ROOT
ATOM      1  C   LIG d   1       2.384  84.963 110.451  0.00  0.00     0.161 C 
ATOM      2  C   LIG d   1       1.406  85.930 110.740  0.00  0.00     0.016 C 
ATOM      3  C   LIG d   1       0.035  85.626 110.899  0.00  0.00     0.038 C 
ATOM      4  C   LIG d   1      -0.433  84.304 110.929  0.00  0.00     0.028 C 
ATOM      5  C   LIG d   1       0.440  83.334 110.140  0.00  0.00    -0.047 C 
ATOM      6  C   LIG d   1       1.909  83.502 110.591  0.00  0.00     0.091 C 
ENDROOT
BRANCH   1   7
ATOM      7  O   LIG d   1       3.551  85.191 111.266  0.00  0.00    -0.368 OA
BRANCH   7   8
ATOM      8  C   LIG d   1       3.412  86.176 112.319  0.00  0.00     0.119 C 
BRANCH   8   9
ATOM      9  C   LIG d   1       4.505  87.241 112.104  0.00  0.00     0.028 C 
ATOM     10  C   LIG d   1       4.453  88.356 113.161  0.00  0.00     0.006 C 
ENDBRANCH   8   9
BRANCH   8  11
ATOM     11  C   LIG d   1       3.703  85.567 113.693  0.00  0.00     0.028 C 
ATOM     12  C   LIG d   1       2.626  84.568 114.143  0.00  0.00     0.006 C 
ENDBRANCH   8  11
ENDBRANCH   7   8
ENDBRANCH   1   7
BRANCH   6  13
ATOM     13  N   LIG d   1       2.842  82.649 109.809  0.00  0.00    -0.311 N 
ATOM     14  C   LIG d   1       3.342  81.501 110.264  0.00  0.00     0.210 C 
ATOM     15  C   LIG d   1       4.302  80.789 109.305  0.00  0.00     0.109 C 
ATOM     16  O   LIG d   1       3.057  80.989 111.357  0.00  0.00    -0.276 OA
ATOM     17  H   LIG d   1       3.103  82.974 108.899  0.00  0.00     0.149 HD
ENDBRANCH   6  13
BRANCH   5  18
ATOM     18  N   LIG d   1      -0.084  81.974 110.370  0.00  0.00     0.381 N 
ATOM     19  H   LIG d   1       0.033  81.724 111.332  0.00  0.00    -0.090 HD
ATOM     20  H   LIG d   1       0.440  81.325 109.810  0.00  0.00    -0.090 HD
ATOM     21  H   LIG d   1      -1.048  81.935 110.124  0.00  0.00    -0.090 HD
ENDBRANCH   5  18
BRANCH   3  22
ATOM     22  C   LIG d   1      -0.891  86.654 110.990  0.00  0.00     0.382 C 
ATOM     23  O   LIG d   1      -0.572  87.739 111.535  0.00  0.00    -0.241 OA
ATOM     24  O   LIG d   1      -2.054  86.496 110.574  0.00  0.00    -0.241 OA
ENDBRANCH   3  22
TORSDOF 7
ENDMDL
MODEL 5
REMARK VINA RESULT:      -5.7      2.261      5.352
REMARK  7 active torsions:
REMARK  status: ('A' for Active; 'I' for Inactive)
REMARK    1  A    between atoms: C_2  and  C_3 
REMARK    2  A    between atoms: C_3  and  O_6 
REMARK    3  A    between atoms: C_3  and  C_4 
REMARK    4  A    between atoms: C_7  and  O_6 
REMARK    5  A    between atoms: C_9  and  C_10 
REMARK    6  A    between atoms: N_15  and  C_14 
REMARK    7  A    between atoms: N_20  and  C_19 
REMARK       I    between atoms: C_22  and  N_20 
ROOT
ATOM      1  C   LIG d   1      -6.155  77.081 117.006  0.00  0.00     0.161 C 
ATOM      2  C   LIG d   1      -6.879  78.240 117.334  0.00  0.00     0.016 C 
ATOM      3  C   LIG d   1      -6.369  79.548 117.170  0.00  0.00     0.038 C 
ATOM      4  C   LIG d   1      -5.150  79.793 116.521  0.00  0.00     0.028 C 
ATOM      5  C   LIG d   1      -4.162  78.637 116.632  0.00  0.00    -0.047 C 
ATOM      6  C   LIG d   1      -4.866  77.332 116.195  0.00  0.00     0.091 C 
ENDROOT
BRANCH   1   7
ATOM      7  O   LIG d   1      -7.010  76.150 116.314  0.00  0.00    -0.368 OA
BRANCH   7   8
ATOM      8  C   LIG d   1      -7.754  75.228 117.148  0.00  0.00     0.119 C 
BRANCH   8   9
ATOM      9  C   LIG d   1      -7.301  73.802 116.780  0.00  0.00     0.028 C 
ATOM     10  C   LIG d   1      -6.059  73.358 117.571  0.00  0.00     0.006 C 
ENDBRANCH   8   9
BRANCH   8  11
ATOM     11  C   LIG d   1      -9.251  75.273 116.828  0.00  0.00     0.028 C 
ATOM     12  C   LIG d   1     -10.028  76.233 117.744  0.00  0.00     0.006 C 
ENDBRANCH   8  11
ENDBRANCH   7   8
ENDBRANCH   1   7
BRANCH   6  13
ATOM     13  N   LIG d   1      -3.996  76.138 116.353  0.00  0.00    -0.311 N 
ATOM     14  C   LIG d   1      -3.725  75.292 115.360  0.00  0.00     0.210 C 
ATOM     15  C   LIG d   1      -2.822  74.115 115.742  0.00  0.00     0.109 C 
ATOM     16  O   LIG d   1      -4.120  75.422 114.192  0.00  0.00    -0.276 OA
ATOM     17  H   LIG d   1      -3.608  75.973 117.261  0.00  0.00     0.149 HD
ENDBRANCH   6  13
BRANCH   5  18
ATOM     18  N   LIG d   1      -2.991  78.969 115.798  0.00  0.00     0.381 N 
ATOM     19  H   LIG d   1      -3.024  78.447 114.945  0.00  0.00    -0.090 HD
ATOM     20  H   LIG d   1      -2.156  78.711 116.294  0.00  0.00    -0.090 HD
ATOM     21  H   LIG d   1      -2.981  79.945 115.599  0.00  0.00    -0.090 HD
ENDBRANCH   5  18
BRANCH   3  22
ATOM     22  C   LIG d   1      -7.065  80.627 117.693  0.00  0.00     0.382 C 
ATOM     23  O   LIG d   1      -6.666  81.179 118.747  0.00  0.00    -0.241 OA
ATOM     24  O   LIG d   1      -8.112  81.028 117.150  0.00  0.00    -0.241 OA
ENDBRANCH   3  22
TORSDOF 7
ENDMDL
MODEL 6
REMARK VINA RESULT:      -5.6     12.466     15.554
REMARK  7 active torsions:
REMARK  status: ('A' for Active; 'I' for Inactive)
REMARK    1  A    between atoms: C_2  and  C_3 
REMARK    2  A    between atoms: C_3  and  O_6 
REMARK    3  A    between atoms: C_3  and  C_4 
REMARK    4  A    between atoms: C_7  and  O_6 
REMARK    5  A    between atoms: C_9  and  C_10 
REMARK    6  A    between atoms: N_15  and  C_14 
REMARK    7  A    between atoms: N_20  and  C_19 
REMARK       I    between atoms: C_22  and  N_20 
ROOT
ATOM      1  C   LIG d   1       3.711  85.552 112.303  0.00  0.00     0.161 C 
ATOM      2  C   LIG d   1       3.564  86.841 112.843  0.00  0.00     0.016 C 
ATOM      3  C   LIG d   1       2.675  87.808 112.318  0.00  0.00     0.038 C 
ATOM      4  C   LIG d   1       1.758  87.498 111.303  0.00  0.00     0.028 C 
ATOM      5  C   LIG d   1       2.221  86.366 110.393  0.00  0.00    -0.047 C 
ATOM      6  C   LIG d   1       2.639  85.160 111.265  0.00  0.00     0.091 C 
ENDROOT
BRANCH   1   7
ATOM      7  O   LIG d   1       3.760  84.580 113.365  0.00  0.00    -0.368 OA
BRANCH   7   8
ATOM      8  C   LIG d   1       2.683  84.638 114.333  0.00  0.00     0.119 C 
BRANCH   8   9
ATOM      9  C   LIG d   1       3.321  84.639 115.736  0.00  0.00     0.028 C 
ATOM     10  C   LIG d   1       4.817  84.994 115.700  0.00  0.00     0.006 C 
ENDBRANCH   8   9
BRANCH   8  11
ATOM     11  C   LIG d   1       1.818  83.376 114.281  0.00  0.00     0.028 C 
ATOM     12  C   LIG d   1       2.122  82.398 115.428  0.00  0.00     0.006 C 
ENDBRANCH   8  11
ENDBRANCH   7   8
ENDBRANCH   1   7
BRANCH   6  13
ATOM     13  N   LIG d   1       3.184  84.038 110.457  0.00  0.00    -0.311 N 
ATOM     14  C   LIG d   1       2.573  82.862 110.329  0.00  0.00     0.210 C 
ATOM     15  C   LIG d   1       3.317  81.837 109.467  0.00  0.00     0.109 C 
ATOM     16  O   LIG d   1       1.469  82.581 110.820  0.00  0.00    -0.276 OA
ATOM     17  H   LIG d   1       4.061  84.191 109.998  0.00  0.00     0.149 HD
ENDBRANCH   6  13
BRANCH   5  18
ATOM     18  N   LIG d   1       1.114  86.055 109.469  0.00  0.00     0.381 N 
ATOM     19  H   LIG d   1       0.508  86.847 109.388  0.00  0.00    -0.090 HD
ATOM     20  H   LIG d   1       0.582  85.289 109.844  0.00  0.00    -0.090 HD
ATOM     21  H   LIG d   1       1.475  85.811 108.573  0.00  0.00    -0.090 HD
ENDBRANCH   5  18
BRANCH   3  22
ATOM     22  C   LIG d   1       2.727  89.113 112.784  0.00  0.00     0.382 C 
ATOM     23  O   LIG d   1       1.704  89.838 112.733  0.00  0.00    -0.241 OA
ATOM     24  O   LIG d   1       3.795  89.588 113.213  0.00  0.00    -0.241 OA
ENDBRANCH   3  22
TORSDOF 7
ENDMDL
MODEL 7
REMARK VINA RESULT:      -5.4      3.034      4.277
REMARK  7 active torsions:
REMARK  status: ('A' for Active; 'I' for Inactive)
REMARK    1  A    between atoms: C_2  and  C_3 
REMARK    2  A    between atoms: C_3  and  O_6 
REMARK    3  A    between atoms: C_3  and  C_4 
REMARK    4  A    between atoms: C_7  and  O_6 
REMARK    5  A    between atoms: C_9  and  C_10 
REMARK    6  A    between atoms: N_15  and  C_14 
REMARK    7  A    between atoms: N_20  and  C_19 
REMARK       I    between atoms: C_22  and  N_20 
ROOT
ATOM      1  C   LIG d   1      -6.861  77.743 117.006  0.00  0.00     0.161 C 
ATOM      2  C   LIG d   1      -6.689  76.879 115.911  0.00  0.00     0.016 C 
ATOM      3  C   LIG d   1      -5.430  76.603 115.329  0.00  0.00     0.038 C 
ATOM      4  C   LIG d   1      -4.233  77.056 115.902  0.00  0.00     0.028 C 
ATOM      5  C   LIG d   1      -4.395  78.341 116.708  0.00  0.00    -0.047 C 
ATOM      6  C   LIG d   1      -5.555  78.159 117.713  0.00  0.00     0.091 C 
ENDROOT
BRANCH   1   7
ATOM      7  O   LIG d   1      -7.778  77.156 117.951  0.00  0.00    -0.368 OA
BRANCH   7   8
ATOM      8  C   LIG d   1      -9.181  77.450 117.745  0.00  0.00     0.119 C 
BRANCH   8   9
ATOM      9  C   LIG d   1      -9.617  78.428 118.853  0.00  0.00     0.028 C 
ATOM     10  C   LIG d   1      -9.772  79.869 118.338  0.00  0.00     0.006 C 
ENDBRANCH   8   9
BRANCH   8  11
ATOM     11  C   LIG d   1     -10.047  76.202 117.941  0.00  0.00     0.028 C 
ATOM     12  C   LIG d   1      -9.881  75.177 116.808  0.00  0.00     0.006 C 
ENDBRANCH   8  11
ENDBRANCH   7   8
ENDBRANCH   1   7
BRANCH   6  13
ATOM     13  N   LIG d   1      -5.836  79.398 118.484  0.00  0.00    -0.311 N 
ATOM     14  C   LIG d   1      -6.175  80.554 117.916  0.00  0.00     0.210 C 
ATOM     15  C   LIG d   1      -6.402  81.712 118.893  0.00  0.00     0.109 C 
ATOM     16  O   LIG d   1      -6.341  80.722 116.699  0.00  0.00    -0.276 OA
ATOM     17  H   LIG d   1      -5.755  79.343 119.481  0.00  0.00     0.149 HD
ENDBRANCH   6  13
BRANCH   5  18
ATOM     18  N   LIG d   1      -3.103  78.624 117.360  0.00  0.00     0.381 N 
ATOM     19  H   LIG d   1      -3.163  78.412 118.337  0.00  0.00    -0.090 HD
ATOM     20  H   LIG d   1      -2.896  79.602 117.261  0.00  0.00    -0.090 HD
ATOM     21  H   LIG d   1      -2.382  78.080 116.939  0.00  0.00    -0.090 HD
ENDBRANCH   5  18
BRANCH   3  22
ATOM     22  C   LIG d   1      -5.364  75.897 114.137  0.00  0.00     0.382 C 
ATOM     23  O   LIG d   1      -4.699  74.836 114.073  0.00  0.00    -0.241 OA
ATOM     24  O   LIG d   1      -5.926  76.332 113.114  0.00  0.00    -0.241 OA
ENDBRANCH   3  22
TORSDOF 7
ENDMDL
MODEL 8
REMARK VINA RESULT:      -5.4      2.545      5.107
REMARK  7 active torsions:
REMARK  status: ('A' for Active; 'I' for Inactive)
REMARK    1  A    between atoms: C_2  and  C_3 
REMARK    2  A    between atoms: C_3  and  O_6 
REMARK    3  A    between atoms: C_3  and  C_4 
REMARK    4  A    between atoms: C_7  and  O_6 
REMARK    5  A    between atoms: C_9  and  C_10 
REMARK    6  A    between atoms: N_15  and  C_14 
REMARK    7  A    between atoms: N_20  and  C_19 
REMARK       I    between atoms: C_22  and  N_20 
ROOT
ATOM      1  C   LIG d   1      -6.588  77.068 117.507  0.00  0.00     0.161 C 
ATOM      2  C   LIG d   1      -7.953  76.969 117.825  0.00  0.00     0.016 C 
ATOM      3  C   LIG d   1      -8.804  78.089 117.962  0.00  0.00     0.038 C 
ATOM      4  C   LIG d   1      -8.378  79.387 117.640  0.00  0.00     0.028 C 
ATOM      5  C   LIG d   1      -6.876  79.590 117.804  0.00  0.00    -0.047 C 
ATOM      6  C   LIG d   1      -6.132  78.468 117.044  0.00  0.00     0.091 C 
ENDROOT
BRANCH   1   7
ATOM      7  O   LIG d   1      -6.242  76.077 116.520  0.00  0.00    -0.368 OA
BRANCH   7   8
ATOM      8  C   LIG d   1      -5.269  75.084 116.927  0.00  0.00     0.119 C 
BRANCH   8   9
ATOM      9  C   LIG d   1      -4.570  74.570 115.653  0.00  0.00     0.028 C 
ATOM     10  C   LIG d   1      -4.741  75.529 114.463  0.00  0.00     0.006 C 
ENDBRANCH   8   9
BRANCH   8  11
ATOM     11  C   LIG d   1      -5.949  73.856 117.540  0.00  0.00     0.028 C 
ATOM     12  C   LIG d   1      -6.297  72.784 116.495  0.00  0.00     0.006 C 
ENDBRANCH   8  11
ENDBRANCH   7   8
ENDBRANCH   1   7
BRANCH   6  13
ATOM     13  N   LIG d   1      -4.659  78.543 117.221  0.00  0.00    -0.311 N 
ATOM     14  C   LIG d   1      -3.821  78.903 116.251  0.00  0.00     0.210 C 
ATOM     15  C   LIG d   1      -2.339  78.895 116.640  0.00  0.00     0.109 C 
ATOM     16  O   LIG d   1      -4.166  79.260 115.114  0.00  0.00    -0.276 OA
ATOM     17  H   LIG d   1      -4.295  78.301 118.122  0.00  0.00     0.149 HD
ENDBRANCH   6  13
BRANCH   5  18
ATOM     18  N   LIG d   1      -6.552  80.940 117.305  0.00  0.00     0.381 N 
ATOM     19  H   LIG d   1      -7.306  81.284 116.744  0.00  0.00    -0.090 HD
ATOM     20  H   LIG d   1      -5.730  80.885 116.729  0.00  0.00    -0.090 HD
ATOM     21  H   LIG d   1      -6.389  81.556 118.070  0.00  0.00    -0.090 HD
ENDBRANCH   5  18
BRANCH   3  22
ATOM     22  C   LIG d   1     -10.085  77.921 118.464  0.00  0.00     0.382 C 
ATOM     23  O   LIG d   1     -10.751  76.904 118.156  0.00  0.00    -0.241 OA
ATOM     24  O   LIG d   1     -10.600  78.796 119.186  0.00  0.00    -0.241 OA
ENDBRANCH   3  22
TORSDOF 7
ENDMDL
MODEL 9
REMARK VINA RESULT:      -5.3     11.679     13.983
REMARK  7 active torsions:
REMARK  status: ('A' for Active; 'I' for Inactive)
REMARK    1  A    between atoms: C_2  and  C_3 
REMARK    2  A    between atoms: C_3  and  O_6 
REMARK    3  A    between atoms: C_3  and  C_4 
REMARK    4  A    between atoms: C_7  and  O_6 
REMARK    5  A    between atoms: C_9  and  C_10 
REMARK    6  A    between atoms: N_15  and  C_14 
REMARK    7  A    between atoms: N_20  and  C_19 
REMARK       I    between atoms: C_22  and  N_20 
ROOT
ATOM      1  C   LIG d   1       1.863  84.590 113.431  0.00  0.00     0.161 C 
ATOM      2  C   LIG d   1       0.974  83.568 113.058  0.00  0.00     0.016 C 
ATOM      3  C   LIG d   1       0.338  83.511 111.797  0.00  0.00     0.038 C 
ATOM      4  C   LIG d   1       0.667  84.398 110.760  0.00  0.00     0.028 C 
ATOM      5  C   LIG d   1       1.182  85.745 111.255  0.00  0.00    -0.047 C 
ATOM      6  C   LIG d   1       2.319  85.504 112.274  0.00  0.00     0.091 C 
ENDROOT
BRANCH   1   7
ATOM      7  O   LIG d   1       3.005  84.023 114.102  0.00  0.00    -0.368 OA
BRANCH   7   8
ATOM      8  C   LIG d   1       3.202  84.430 115.479  0.00  0.00     0.119 C 
BRANCH   8   9
ATOM      9  C   LIG d   1       4.561  85.153 115.558  0.00  0.00     0.028 C 
ATOM     10  C   LIG d   1       5.337  84.805 116.840  0.00  0.00     0.006 C 
ENDBRANCH   8   9
BRANCH   8  11
ATOM     11  C   LIG d   1       3.334  83.217 116.405  0.00  0.00     0.028 C 
ATOM     12  C   LIG d   1       2.127  82.269 116.319  0.00  0.00     0.006 C 
ENDBRANCH   8  11
ENDBRANCH   7   8
ENDBRANCH   1   7
BRANCH   6  13
ATOM     13  N   LIG d   1       2.823  86.768 112.871  0.00  0.00    -0.311 N 
ATOM     14  C   LIG d   1       3.862  87.446 112.386  0.00  0.00     0.210 C 
ATOM     15  C   LIG d   1       4.228  88.713 113.164  0.00  0.00     0.109 C 
ATOM     16  O   LIG d   1       4.495  87.134 111.366  0.00  0.00    -0.276 OA
ATOM     17  H   LIG d   1       2.347  87.110 113.684  0.00  0.00     0.149 HD
ENDBRANCH   6  13
BRANCH   5  18
ATOM     18  N   LIG d   1       1.616  86.517 110.076  0.00  0.00     0.381 N 
ATOM     19  H   LIG d   1       2.339  86.021 109.594  0.00  0.00    -0.090 HD
ATOM     20  H   LIG d   1       1.989  87.398 110.383  0.00  0.00    -0.090 HD
ATOM     21  H   LIG d   1       0.844  86.670 109.465  0.00  0.00    -0.090 HD
ENDBRANCH   5  18
BRANCH   3  22
ATOM     22  C   LIG d   1      -0.668  82.584 111.575  0.00  0.00     0.382 C 
ATOM     23  O   LIG d   1      -0.526  81.702 110.694  0.00  0.00    -0.241 OA
ATOM     24  O   LIG d   1      -1.735  82.645 112.215  0.00  0.00    -0.241 OA
ENDBRANCH   3  22
TORSDOF 7
ENDMDL
