MODEL 1
REMARK VINA RESULT:      -4.6      0.000      0.000
REMARK  7 active torsions:
REMARK  status: ('A' for Active; 'I' for Inactive)
REMARK    1  A    between atoms: C_2  and  C_3 
REMARK    2  A    between atoms: C_3  and  O_6 
REMARK    3  A    between atoms: C_3  and  C_4 
REMARK    4  A    between atoms: C_7  and  O_6 
REMARK    5  A    between atoms: C_9  and  C_10 
REMARK    6  A    between atoms: N_15  and  C_14 
REMARK    7  A    between atoms: N_20  and  C_19 
REMARK       I    between atoms: C_22  and  N_20 
ROOT
ATOM      1  C   LIG d   1      -9.841  81.305 120.732  0.00  0.00     0.161 C 
ATOM      2  C   LIG d   1      -9.705  80.010 120.206  0.00  0.00     0.016 C 
ATOM      3  C   LIG d   1      -9.445  79.748 118.841  0.00  0.00     0.038 C 
ATOM      4  C   LIG d   1      -9.151  80.775 117.932  0.00  0.00     0.028 C 
ATOM      5  C   LIG d   1      -9.773  82.115 118.310  0.00  0.00    -0.047 C 
ATOM      6  C   LIG d   1      -9.413  82.439 119.778  0.00  0.00     0.091 C 
ENDROOT
BRANCH   1   7
ATOM      7  O   LIG d   1      -9.125  81.403 121.979  0.00  0.00    -0.368 OA
BRANCH   7   8
ATOM      8  C   LIG d   1      -9.898  81.155 123.180  0.00  0.00     0.119 C 
BRANCH   8   9
ATOM      9  C   LIG d   1     -11.255  81.866 123.012  0.00  0.00     0.028 C 
ATOM     10  C   LIG d   1     -11.381  83.108 123.910  0.00  0.00     0.006 C 
ENDBRANCH   8   9
BRANCH   8  11
ATOM     11  C   LIG d   1      -9.249  81.804 124.405  0.00  0.00     0.028 C 
ATOM     12  C   LIG d   1      -7.784  82.203 124.162  0.00  0.00     0.006 C 
ENDBRANCH   8  11
ENDBRANCH   7   8
ENDBRANCH   1   7
BRANCH   6  13
ATOM     13  N   LIG d   1     -10.053  83.693 120.254  0.00  0.00    -0.311 N 
ATOM     14  C   LIG d   1      -9.443  84.572 121.048  0.00  0.00     0.210 C 
ATOM     15  C   LIG d   1     -10.289  85.788 121.438  0.00  0.00     0.109 C 
ATOM     16  O   LIG d   1      -8.270  84.475 121.441  0.00  0.00    -0.276 OA
ATOM     17  H   LIG d   1     -10.994  83.867 119.958  0.00  0.00     0.149 HD
ENDBRANCH   6  13
BRANCH   5  18
ATOM     18  N   LIG d   1      -9.274  83.123 117.356  0.00  0.00     0.381 N 
ATOM     19  H   LIG d   1      -9.935  83.871 117.277  0.00  0.00    -0.090 HD
ATOM     20  H   LIG d   1      -9.173  82.694 116.453  0.00  0.00    -0.090 HD
ATOM     21  H   LIG d   1      -8.395  83.478 117.663  0.00  0.00    -0.090 HD
ENDBRANCH   5  18
BRANCH   3  22
ATOM     22  C   LIG d   1      -9.517  78.448 118.365  0.00  0.00     0.382 C 
ATOM     23  O   LIG d   1     -10.564  77.777 118.529  0.00  0.00    -0.241 OA
ATOM     24  O   LIG d   1      -8.532  77.922 117.812  0.00  0.00    -0.241 OA
ENDBRANCH   3  22
TORSDOF 7
ENDMDL
MODEL 2
REMARK VINA RESULT:      -4.6      1.363      2.020
REMARK  7 active torsions:
REMARK  status: ('A' for Active; 'I' for Inactive)
REMARK    1  A    between atoms: C_2  and  C_3 
REMARK    2  A    between atoms: C_3  and  O_6 
REMARK    3  A    between atoms: C_3  and  C_4 
REMARK    4  A    between atoms: C_7  and  O_6 
REMARK    5  A    between atoms: C_9  and  C_10 
REMARK    6  A    between atoms: N_15  and  C_14 
REMARK    7  A    between atoms: N_20  and  C_19 
REMARK       I    between atoms: C_22  and  N_20 
ROOT
ATOM      1  C   LIG d   1      -9.846  81.301 120.771  0.00  0.00     0.161 C 
ATOM      2  C   LIG d   1      -9.702  80.007 120.242  0.00  0.00     0.016 C 
ATOM      3  C   LIG d   1      -9.443  79.750 118.876  0.00  0.00     0.038 C 
ATOM      4  C   LIG d   1      -9.158  80.781 117.968  0.00  0.00     0.028 C 
ATOM      5  C   LIG d   1      -9.789  82.115 118.350  0.00  0.00    -0.047 C 
ATOM      6  C   LIG d   1      -9.428  82.440 119.818  0.00  0.00     0.091 C 
ENDROOT
BRANCH   1   7
ATOM      7  O   LIG d   1      -9.128  81.402 122.017  0.00  0.00    -0.368 OA
BRANCH   7   8
ATOM      8  C   LIG d   1      -7.960  80.556 122.150  0.00  0.00     0.119 C 
BRANCH   8   9
ATOM      9  C   LIG d   1      -7.937  80.021 123.595  0.00  0.00     0.028 C 
ATOM     10  C   LIG d   1      -9.014  78.951 123.842  0.00  0.00     0.006 C 
ENDBRANCH   8   9
BRANCH   8  11
ATOM     11  C   LIG d   1      -6.667  81.362 121.995  0.00  0.00     0.028 C 
ATOM     12  C   LIG d   1      -6.003  81.166 120.623  0.00  0.00     0.006 C 
ENDBRANCH   8  11
ENDBRANCH   7   8
ENDBRANCH   1   7
BRANCH   6  13
ATOM     13  N   LIG d   1     -10.076  83.688 120.298  0.00  0.00    -0.311 N 
ATOM     14  C   LIG d   1      -9.459  84.587 121.062  0.00  0.00     0.210 C 
ATOM     15  C   LIG d   1     -10.314  85.793 121.462  0.00  0.00     0.109 C 
ATOM     16  O   LIG d   1      -8.273  84.516 121.421  0.00  0.00    -0.276 OA
ATOM     17  H   LIG d   1     -11.028  83.842 120.027  0.00  0.00     0.149 HD
ENDBRANCH   6  13
BRANCH   5  18
ATOM     18  N   LIG d   1      -9.299  83.129 117.396  0.00  0.00     0.381 N 
ATOM     19  H   LIG d   1      -8.749  82.688 116.686  0.00  0.00    -0.090 HD
ATOM     20  H   LIG d   1      -8.715  83.782 117.888  0.00  0.00    -0.090 HD
ATOM     21  H   LIG d   1     -10.069  83.607 116.982  0.00  0.00    -0.090 HD
ENDBRANCH   5  18
BRANCH   3  22
ATOM     22  C   LIG d   1      -9.506  78.450 118.398  0.00  0.00     0.382 C 
ATOM     23  O   LIG d   1      -8.512  77.945 117.822  0.00  0.00    -0.241 OA
ATOM     24  O   LIG d   1     -10.559  77.791 118.496  0.00  0.00    -0.241 OA
ENDBRANCH   3  22
TORSDOF 7
ENDMDL
MODEL 3
REMARK VINA RESULT:      -4.5      2.411      3.155
REMARK  7 active torsions:
REMARK  status: ('A' for Active; 'I' for Inactive)
REMARK    1  A    between atoms: C_2  and  C_3 
REMARK    2  A    between atoms: C_3  and  O_6 
REMARK    3  A    between atoms: C_3  and  C_4 
REMARK    4  A    between atoms: C_7  and  O_6 
REMARK    5  A    between atoms: C_9  and  C_10 
REMARK    6  A    between atoms: N_15  and  C_14 
REMARK    7  A    between atoms: N_20  and  C_19 
REMARK       I    between atoms: C_22  and  N_20 
ROOT
ATOM      1  C   LIG d   1      -7.823  81.825 119.982  0.00  0.00     0.161 C 
ATOM      2  C   LIG d   1      -7.951  80.464 119.661  0.00  0.00     0.016 C 
ATOM      3  C   LIG d   1      -8.882  79.970 118.719  0.00  0.00     0.038 C 
ATOM      4  C   LIG d   1      -9.651  80.827 117.917  0.00  0.00     0.028 C 
ATOM      5  C   LIG d   1      -9.918  82.183 118.563  0.00  0.00    -0.047 C 
ATOM      6  C   LIG d   1      -8.576  82.786 119.038  0.00  0.00     0.091 C 
ENDROOT
BRANCH   1   7
ATOM      7  O   LIG d   1      -6.429  82.182 120.053  0.00  0.00    -0.368 OA
BRANCH   7   8
ATOM      8  C   LIG d   1      -5.792  82.015 121.343  0.00  0.00     0.119 C 
BRANCH   8   9
ATOM      9  C   LIG d   1      -6.242  83.188 122.237  0.00  0.00     0.028 C 
ATOM     10  C   LIG d   1      -5.724  84.544 121.730  0.00  0.00     0.006 C 
ENDBRANCH   8   9
BRANCH   8  11
ATOM     11  C   LIG d   1      -4.270  82.148 121.236  0.00  0.00     0.028 C 
ATOM     12  C   LIG d   1      -3.753  81.936 119.804  0.00  0.00     0.006 C 
ENDBRANCH   8  11
ENDBRANCH   7   8
ENDBRANCH   1   7
BRANCH   6  13
ATOM     13  N   LIG d   1      -8.756  84.074 119.756  0.00  0.00    -0.311 N 
ATOM     14  C   LIG d   1      -9.532  84.213 120.830  0.00  0.00     0.210 C 
ATOM     15  C   LIG d   1      -9.592  85.631 121.405  0.00  0.00     0.109 C 
ATOM     16  O   LIG d   1     -10.150  83.289 121.379  0.00  0.00    -0.276 OA
ATOM     17  H   LIG d   1      -8.265  84.869 119.397  0.00  0.00     0.149 HD
ENDBRANCH   6  13
BRANCH   5  18
ATOM     18  N   LIG d   1     -10.608  83.023 117.566  0.00  0.00     0.381 N 
ATOM     19  H   LIG d   1     -10.851  83.903 117.975  0.00  0.00    -0.090 HD
ATOM     20  H   LIG d   1     -11.456  82.562 117.284  0.00  0.00    -0.090 HD
ATOM     21  H   LIG d   1     -10.020  83.167 116.775  0.00  0.00    -0.090 HD
ENDBRANCH   5  18
BRANCH   3  22
ATOM     22  C   LIG d   1      -9.080  78.603 118.599  0.00  0.00     0.382 C 
ATOM     23  O   LIG d   1      -8.095  77.833 118.498  0.00  0.00    -0.241 OA
ATOM     24  O   LIG d   1     -10.233  78.134 118.547  0.00  0.00    -0.241 OA
ENDBRANCH   3  22
TORSDOF 7
ENDMDL
MODEL 4
REMARK VINA RESULT:      -4.5     11.830     14.058
REMARK  7 active torsions:
REMARK  status: ('A' for Active; 'I' for Inactive)
REMARK    1  A    between atoms: C_2  and  C_3 
REMARK    2  A    between atoms: C_3  and  O_6 
REMARK    3  A    between atoms: C_3  and  C_4 
REMARK    4  A    between atoms: C_7  and  O_6 
REMARK    5  A    between atoms: C_9  and  C_10 
REMARK    6  A    between atoms: N_15  and  C_14 
REMARK    7  A    between atoms: N_20  and  C_19 
REMARK       I    between atoms: C_22  and  N_20 
ROOT
ATOM      1  C   LIG d   1      -5.240  94.671 119.301  0.00  0.00     0.161 C 
ATOM      2  C   LIG d   1      -4.077  93.962 118.959  0.00  0.00     0.016 C 
ATOM      3  C   LIG d   1      -4.093  92.722 118.279  0.00  0.00     0.038 C 
ATOM      4  C   LIG d   1      -5.276  92.178 117.759  0.00  0.00     0.028 C 
ATOM      5  C   LIG d   1      -6.527  92.607 118.519  0.00  0.00    -0.047 C 
ATOM      6  C   LIG d   1      -6.534  94.148 118.643  0.00  0.00     0.091 C 
ENDROOT
BRANCH   1   7
ATOM      7  O   LIG d   1      -5.062  96.072 119.010  0.00  0.00    -0.368 OA
BRANCH   7   8
ATOM      8  C   LIG d   1      -4.763  96.925 120.142  0.00  0.00     0.119 C 
BRANCH   8   9
ATOM      9  C   LIG d   1      -6.071  97.632 120.547  0.00  0.00     0.028 C 
ATOM     10  C   LIG d   1      -6.631  97.112 121.881  0.00  0.00     0.006 C 
ENDBRANCH   8   9
BRANCH   8  11
ATOM     11  C   LIG d   1      -3.798  98.049 119.754  0.00  0.00     0.028 C 
ATOM     12  C   LIG d   1      -4.084  98.624 118.358  0.00  0.00     0.006 C 
ENDBRANCH   8  11
ENDBRANCH   7   8
ENDBRANCH   1   7
BRANCH   6  13
ATOM     13  N   LIG d   1      -7.681  94.646 119.447  0.00  0.00    -0.311 N 
ATOM     14  C   LIG d   1      -8.869  94.942 118.924  0.00  0.00     0.210 C 
ATOM     15  C   LIG d   1      -9.906  95.459 119.926  0.00  0.00     0.109 C 
ATOM     16  O   LIG d   1      -9.172  94.796 117.730  0.00  0.00    -0.276 OA
ATOM     17  H   LIG d   1      -7.531  94.764 120.430  0.00  0.00     0.149 HD
ENDBRANCH   6  13
BRANCH   5  18
ATOM     18  N   LIG d   1      -7.695  92.080 117.789  0.00  0.00     0.381 N 
ATOM     19  H   LIG d   1      -7.394  91.425 117.096  0.00  0.00    -0.090 HD
ATOM     20  H   LIG d   1      -8.158  92.841 117.323  0.00  0.00    -0.090 HD
ATOM     21  H   LIG d   1      -8.323  91.638 118.424  0.00  0.00    -0.090 HD
ENDBRANCH   5  18
BRANCH   3  22
ATOM     22  C   LIG d   1      -2.920  91.994 118.150  0.00  0.00     0.382 C 
ATOM     23  O   LIG d   1      -2.969  90.770 117.881  0.00  0.00    -0.241 OA
ATOM     24  O   LIG d   1      -1.816  92.537 118.342  0.00  0.00    -0.241 OA
ENDBRANCH   3  22
TORSDOF 7
ENDMDL
MODEL 5
REMARK VINA RESULT:      -4.4      2.316      3.379
REMARK  7 active torsions:
REMARK  status: ('A' for Active; 'I' for Inactive)
REMARK    1  A    between atoms: C_2  and  C_3 
REMARK    2  A    between atoms: C_3  and  O_6 
REMARK    3  A    between atoms: C_3  and  C_4 
REMARK    4  A    between atoms: C_7  and  O_6 
REMARK    5  A    between atoms: C_9  and  C_10 
REMARK    6  A    between atoms: N_15  and  C_14 
REMARK    7  A    between atoms: N_20  and  C_19 
REMARK       I    between atoms: C_22  and  N_20 
ROOT
ATOM      1  C   LIG d   1      -8.241  81.799 120.489  0.00  0.00     0.161 C 
ATOM      2  C   LIG d   1      -8.345  80.439 120.155  0.00  0.00     0.016 C 
ATOM      3  C   LIG d   1      -8.883  79.977 118.932  0.00  0.00     0.038 C 
ATOM      4  C   LIG d   1      -9.216  80.855 117.890  0.00  0.00     0.028 C 
ATOM      5  C   LIG d   1      -9.599  82.250 118.372  0.00  0.00    -0.047 C 
ATOM      6  C   LIG d   1      -8.496  82.774 119.320  0.00  0.00     0.091 C 
ENDROOT
BRANCH   1   7
ATOM      7  O   LIG d   1      -6.954  82.058 121.086  0.00  0.00    -0.368 OA
BRANCH   7   8
ATOM      8  C   LIG d   1      -5.907  82.487 120.181  0.00  0.00     0.119 C 
BRANCH   8   9
ATOM      9  C   LIG d   1      -4.840  81.376 120.148  0.00  0.00     0.028 C 
ATOM     10  C   LIG d   1      -4.844  80.598 118.821  0.00  0.00     0.006 C 
ENDBRANCH   8   9
BRANCH   8  11
ATOM     11  C   LIG d   1      -5.184  83.728 120.714  0.00  0.00     0.028 C 
ATOM     12  C   LIG d   1      -5.806  84.269 122.011  0.00  0.00     0.006 C 
ENDBRANCH   8  11
ENDBRANCH   7   8
ENDBRANCH   1   7
BRANCH   6  13
ATOM     13  N   LIG d   1      -8.832  84.098 119.904  0.00  0.00    -0.311 N 
ATOM     14  C   LIG d   1      -9.738  84.267 120.866  0.00  0.00     0.210 C 
ATOM     15  C   LIG d   1      -9.945  85.718 121.311  0.00  0.00     0.109 C 
ATOM     16  O   LIG d   1     -10.366  83.350 121.415  0.00  0.00    -0.276 OA
ATOM     17  H   LIG d   1      -8.346  84.894 119.539  0.00  0.00     0.149 HD
ENDBRANCH   6  13
BRANCH   5  18
ATOM     18  N   LIG d   1      -9.787  83.098 117.180  0.00  0.00     0.381 N 
ATOM     19  H   LIG d   1      -8.969  83.062 116.606  0.00  0.00    -0.090 HD
ATOM     20  H   LIG d   1      -9.923  84.049 117.476  0.00  0.00    -0.090 HD
ATOM     21  H   LIG d   1     -10.579  82.787 116.662  0.00  0.00    -0.090 HD
ENDBRANCH   5  18
BRANCH   3  22
ATOM     22  C   LIG d   1      -9.130  78.624 118.757  0.00  0.00     0.382 C 
ATOM     23  O   LIG d   1      -8.174  77.813 118.706  0.00  0.00    -0.241 OA
ATOM     24  O   LIG d   1     -10.295  78.209 118.605  0.00  0.00    -0.241 OA
ENDBRANCH   3  22
TORSDOF 7
ENDMDL
MODEL 6
REMARK VINA RESULT:      -4.4     13.463     15.987
REMARK  7 active torsions:
REMARK  status: ('A' for Active; 'I' for Inactive)
REMARK    1  A    between atoms: C_2  and  C_3 
REMARK    2  A    between atoms: C_3  and  O_6 
REMARK    3  A    between atoms: C_3  and  C_4 
REMARK    4  A    between atoms: C_7  and  O_6 
REMARK    5  A    between atoms: C_9  and  C_10 
REMARK    6  A    between atoms: N_15  and  C_14 
REMARK    7  A    between atoms: N_20  and  C_19 
REMARK       I    between atoms: C_22  and  N_20 
ROOT
ATOM      1  C   LIG d   1     -11.888  66.626 121.663  0.00  0.00     0.161 C 
ATOM      2  C   LIG d   1     -10.769  66.233 122.416  0.00  0.00     0.016 C 
ATOM      3  C   LIG d   1     -10.159  64.962 122.299  0.00  0.00     0.038 C 
ATOM      4  C   LIG d   1     -10.538  64.047 121.306  0.00  0.00     0.028 C 
ATOM      5  C   LIG d   1     -11.988  64.202 120.861  0.00  0.00    -0.047 C 
ATOM      6  C   LIG d   1     -12.246  65.681 120.497  0.00  0.00     0.091 C 
ENDROOT
BRANCH   1   7
ATOM      7  O   LIG d   1     -11.704  67.971 121.181  0.00  0.00    -0.368 OA
BRANCH   7   8
ATOM      8  C   LIG d   1     -12.507  68.993 121.822  0.00  0.00     0.119 C 
BRANCH   8   9
ATOM      9  C   LIG d   1     -11.585  69.774 122.778  0.00  0.00     0.028 C 
ATOM     10  C   LIG d   1     -11.917  71.275 122.818  0.00  0.00     0.006 C 
ENDBRANCH   8   9
BRANCH   8  11
ATOM     11  C   LIG d   1     -13.587  68.375 122.714  0.00  0.00     0.028 C 
ATOM     12  C   LIG d   1     -15.011  68.668 122.216  0.00  0.00     0.006 C 
ENDBRANCH   8  11
ENDBRANCH   7   8
ENDBRANCH   1   7
BRANCH   6  13
ATOM     13  N   LIG d   1     -13.664  65.936 120.131  0.00  0.00    -0.311 N 
ATOM     14  C   LIG d   1     -14.034  66.516 118.990  0.00  0.00     0.210 C 
ATOM     15  C   LIG d   1     -15.545  66.702 118.820  0.00  0.00     0.109 C 
ATOM     16  O   LIG d   1     -13.256  66.864 118.089  0.00  0.00    -0.276 OA
ATOM     17  H   LIG d   1     -14.363  65.657 120.791  0.00  0.00     0.149 HD
ENDBRANCH   6  13
BRANCH   5  18
ATOM     18  N   LIG d   1     -12.208  63.281 119.730  0.00  0.00     0.381 N 
ATOM     19  H   LIG d   1     -11.440  62.644 119.658  0.00  0.00    -0.090 HD
ATOM     20  H   LIG d   1     -12.255  63.815 118.880  0.00  0.00    -0.090 HD
ATOM     21  H   LIG d   1     -13.057  62.776 119.861  0.00  0.00    -0.090 HD
ENDBRANCH   5  18
BRANCH   3  22
ATOM     22  C   LIG d   1      -9.184  64.582 123.209  0.00  0.00     0.382 C 
ATOM     23  O   LIG d   1      -8.424  65.444 123.711  0.00  0.00    -0.241 OA
ATOM     24  O   LIG d   1      -9.027  63.381 123.501  0.00  0.00    -0.241 OA
ENDBRANCH   3  22
TORSDOF 7
ENDMDL
MODEL 7
REMARK VINA RESULT:      -4.3     23.323     25.009
REMARK  7 active torsions:
REMARK  status: ('A' for Active; 'I' for Inactive)
REMARK    1  A    between atoms: C_2  and  C_3 
REMARK    2  A    between atoms: C_3  and  O_6 
REMARK    3  A    between atoms: C_3  and  C_4 
REMARK    4  A    between atoms: C_7  and  O_6 
REMARK    5  A    between atoms: C_9  and  C_10 
REMARK    6  A    between atoms: N_15  and  C_14 
REMARK    7  A    between atoms: N_20  and  C_19 
REMARK       I    between atoms: C_22  and  N_20 
ROOT
ATOM      1  C   LIG d   1      -1.397  57.594 120.552  0.00  0.00     0.161 C 
ATOM      2  C   LIG d   1      -2.635  57.115 121.015  0.00  0.00     0.016 C 
ATOM      3  C   LIG d   1      -3.224  57.530 122.231  0.00  0.00     0.038 C 
ATOM      4  C   LIG d   1      -2.683  58.571 123.000  0.00  0.00     0.028 C 
ATOM      5  C   LIG d   1      -1.176  58.730 122.831  0.00  0.00    -0.047 C 
ATOM      6  C   LIG d   1      -0.847  58.812 121.323  0.00  0.00     0.091 C 
ENDROOT
BRANCH   1   7
ATOM      7  O   LIG d   1      -1.483  57.889 119.144  0.00  0.00    -0.368 OA
BRANCH   7   8
ATOM      8  C   LIG d   1      -2.778  58.322 118.661  0.00  0.00     0.119 C 
BRANCH   8   9
ATOM      9  C   LIG d   1      -3.021  57.631 117.305  0.00  0.00     0.028 C 
ATOM     10  C   LIG d   1      -3.424  56.155 117.463  0.00  0.00     0.006 C 
ENDBRANCH   8   9
BRANCH   8  11
ATOM     11  C   LIG d   1      -2.786  59.823 118.358  0.00  0.00     0.028 C 
ATOM     12  C   LIG d   1      -1.382  60.383 118.082  0.00  0.00     0.006 C 
ENDBRANCH   8  11
ENDBRANCH   7   8
ENDBRANCH   1   7
BRANCH   6  13
ATOM     13  N   LIG d   1       0.615  58.884 121.065  0.00  0.00    -0.311 N 
ATOM     14  C   LIG d   1       1.278  60.029 120.913  0.00  0.00     0.210 C 
ATOM     15  C   LIG d   1       2.777  59.878 120.635  0.00  0.00     0.109 C 
ATOM     16  O   LIG d   1       0.772  61.157 121.015  0.00  0.00    -0.276 OA
ATOM     17  H   LIG d   1       1.110  58.016 120.999  0.00  0.00     0.149 HD
ENDBRANCH   6  13
BRANCH   5  18
ATOM     18  N   LIG d   1      -0.768  59.934 123.579  0.00  0.00     0.381 N 
ATOM     19  H   LIG d   1      -0.484  59.678 124.503  0.00  0.00    -0.090 HD
ATOM     20  H   LIG d   1      -1.555  60.554 123.650  0.00  0.00    -0.090 HD
ATOM     21  H   LIG d   1      -0.018  60.390 123.107  0.00  0.00    -0.090 HD
ENDBRANCH   5  18
BRANCH   3  22
ATOM     22  C   LIG d   1      -4.346  56.871 122.710  0.00  0.00     0.382 C 
ATOM     23  O   LIG d   1      -4.998  57.358 123.665  0.00  0.00    -0.241 OA
ATOM     24  O   LIG d   1      -4.690  55.775 122.228  0.00  0.00    -0.241 OA
ENDBRANCH   3  22
TORSDOF 7
ENDMDL
MODEL 8
REMARK VINA RESULT:      -4.3      2.008      5.268
REMARK  7 active torsions:
REMARK  status: ('A' for Active; 'I' for Inactive)
REMARK    1  A    between atoms: C_2  and  C_3 
REMARK    2  A    between atoms: C_3  and  O_6 
REMARK    3  A    between atoms: C_3  and  C_4 
REMARK    4  A    between atoms: C_7  and  O_6 
REMARK    5  A    between atoms: C_9  and  C_10 
REMARK    6  A    between atoms: N_15  and  C_14 
REMARK    7  A    between atoms: N_20  and  C_19 
REMARK       I    between atoms: C_22  and  N_20 
ROOT
ATOM      1  C   LIG d   1      -8.799  81.963 120.987  0.00  0.00     0.161 C 
ATOM      2  C   LIG d   1      -9.109  83.202 121.571  0.00  0.00     0.016 C 
ATOM      3  C   LIG d   1      -9.765  84.247 120.880  0.00  0.00     0.038 C 
ATOM      4  C   LIG d   1     -10.295  84.066 119.594  0.00  0.00     0.028 C 
ATOM      5  C   LIG d   1      -9.564  83.002 118.781  0.00  0.00    -0.047 C 
ATOM      6  C   LIG d   1      -9.468  81.707 119.620  0.00  0.00     0.091 C 
ENDROOT
BRANCH   1   7
ATOM      7  O   LIG d   1      -9.114  80.898 121.906  0.00  0.00    -0.368 OA
BRANCH   7   8
ATOM      8  C   LIG d   1      -7.989  80.294 122.591  0.00  0.00     0.119 C 
BRANCH   8   9
ATOM      9  C   LIG d   1      -6.717  80.652 121.797  0.00  0.00     0.028 C 
ATOM     10  C   LIG d   1      -6.080  79.425 121.124  0.00  0.00     0.006 C 
ENDBRANCH   8   9
BRANCH   8  11
ATOM     11  C   LIG d   1      -8.071  78.765 122.556  0.00  0.00     0.028 C 
ATOM     12  C   LIG d   1      -9.435  78.252 122.069  0.00  0.00     0.006 C 
ENDBRANCH   8  11
ENDBRANCH   7   8
ENDBRANCH   1   7
BRANCH   6  13
ATOM     13  N   LIG d   1      -8.693  80.642 118.932  0.00  0.00    -0.311 N 
ATOM     14  C   LIG d   1      -9.213  79.467 118.581  0.00  0.00     0.210 C 
ATOM     15  C   LIG d   1      -8.235  78.505 117.901  0.00  0.00     0.109 C 
ATOM     16  O   LIG d   1     -10.400  79.144 118.740  0.00  0.00    -0.276 OA
ATOM     17  H   LIG d   1      -7.730  80.833 118.737  0.00  0.00     0.149 HD
ENDBRANCH   6  13
BRANCH   5  18
ATOM     18  N   LIG d   1     -10.303  82.820 117.518  0.00  0.00     0.381 N 
ATOM     19  H   LIG d   1     -11.267  82.636 117.713  0.00  0.00    -0.090 HD
ATOM     20  H   LIG d   1      -9.923  82.027 117.031  0.00  0.00    -0.090 HD
ATOM     21  H   LIG d   1     -10.220  83.636 116.954  0.00  0.00    -0.090 HD
ENDBRANCH   5  18
BRANCH   3  22
ATOM     22  C   LIG d   1      -9.862  85.502 121.461  0.00  0.00     0.382 C 
ATOM     23  O   LIG d   1      -8.829  86.084 121.871  0.00  0.00    -0.241 OA
ATOM     24  O   LIG d   1     -10.974  86.040 121.621  0.00  0.00    -0.241 OA
ENDBRANCH   3  22
TORSDOF 7
ENDMDL
MODEL 9
REMARK VINA RESULT:      -4.3      1.691      4.922
REMARK  7 active torsions:
REMARK  status: ('A' for Active; 'I' for Inactive)
REMARK    1  A    between atoms: C_2  and  C_3 
REMARK    2  A    between atoms: C_3  and  O_6 
REMARK    3  A    between atoms: C_3  and  C_4 
REMARK    4  A    between atoms: C_7  and  O_6 
REMARK    5  A    between atoms: C_9  and  C_10 
REMARK    6  A    between atoms: N_15  and  C_14 
REMARK    7  A    between atoms: N_20  and  C_19 
REMARK       I    between atoms: C_22  and  N_20 
ROOT
ATOM      1  C   LIG d   1      -8.753  82.022 121.154  0.00  0.00     0.161 C 
ATOM      2  C   LIG d   1      -9.059  83.271 121.721  0.00  0.00     0.016 C 
ATOM      3  C   LIG d   1      -9.729  84.300 121.020  0.00  0.00     0.038 C 
ATOM      4  C   LIG d   1     -10.276  84.094 119.744  0.00  0.00     0.028 C 
ATOM      5  C   LIG d   1      -9.551  83.020 118.941  0.00  0.00    -0.047 C 
ATOM      6  C   LIG d   1      -9.439  81.740 119.801  0.00  0.00     0.091 C 
ENDROOT
BRANCH   1   7
ATOM      7  O   LIG d   1      -9.050  80.972 122.095  0.00  0.00    -0.368 OA
BRANCH   7   8
ATOM      8  C   LIG d   1     -10.426  80.520 122.132  0.00  0.00     0.119 C 
BRANCH   8   9
ATOM      9  C   LIG d   1     -11.025  80.970 123.479  0.00  0.00     0.028 C 
ATOM     10  C   LIG d   1     -12.269  80.154 123.870  0.00  0.00     0.006 C 
ENDBRANCH   8   9
BRANCH   8  11
ATOM     11  C   LIG d   1     -10.510  78.991 122.141  0.00  0.00     0.028 C 
ATOM     12  C   LIG d   1      -9.129  78.318 122.121  0.00  0.00     0.006 C 
ENDBRANCH   8  11
ENDBRANCH   7   8
ENDBRANCH   1   7
BRANCH   6  13
ATOM     13  N   LIG d   1      -8.669  80.666 119.121  0.00  0.00    -0.311 N 
ATOM     14  C   LIG d   1      -9.227  79.557 118.638  0.00  0.00     0.210 C 
ATOM     15  C   LIG d   1      -8.250  78.570 117.993  0.00  0.00     0.109 C 
ATOM     16  O   LIG d   1     -10.443  79.313 118.654  0.00  0.00    -0.276 OA
ATOM     17  H   LIG d   1      -7.680  80.797 119.037  0.00  0.00     0.149 HD
ENDBRANCH   6  13
BRANCH   5  18
ATOM     18  N   LIG d   1     -10.307  82.812 117.691  0.00  0.00     0.381 N 
ATOM     19  H   LIG d   1     -11.205  83.248 117.762  0.00  0.00    -0.090 HD
ATOM     20  H   LIG d   1     -10.445  81.826 117.555  0.00  0.00    -0.090 HD
ATOM     21  H   LIG d   1      -9.804  83.194 116.921  0.00  0.00    -0.090 HD
ENDBRANCH   5  18
BRANCH   3  22
ATOM     22  C   LIG d   1      -9.823  85.564 121.581  0.00  0.00     0.382 C 
ATOM     23  O   LIG d   1     -10.933  86.148 121.630  0.00  0.00    -0.241 OA
ATOM     24  O   LIG d   1      -8.805  86.148 121.998  0.00  0.00    -0.241 OA
ENDBRANCH   3  22
TORSDOF 7
ENDMDL
