MODEL 1
REMARK VINA RESULT:      -5.7      0.000      0.000
REMARK  7 active torsions:
REMARK  status: ('A' for Active; 'I' for Inactive)
REMARK    1  A    between atoms: C_2  and  C_3 
REMARK    2  A    between atoms: C_3  and  O_6 
REMARK    3  A    between atoms: C_3  and  C_4 
REMARK    4  A    between atoms: C_7  and  O_6 
REMARK    5  A    between atoms: C_9  and  C_10 
REMARK    6  A    between atoms: N_15  and  C_14 
REMARK    7  A    between atoms: N_20  and  C_19 
REMARK       I    between atoms: C_22  and  N_20 
ROOT
ATOM      1  C   LIG d   1      -7.632  75.203 117.470  0.00  0.00     0.161 C 
ATOM      2  C   LIG d   1      -8.856  75.881 117.595  0.00  0.00     0.016 C 
ATOM      3  C   LIG d   1      -8.957  77.281 117.761  0.00  0.00     0.038 C 
ATOM      4  C   LIG d   1      -7.839  78.122 117.661  0.00  0.00     0.028 C 
ATOM      5  C   LIG d   1      -6.530  77.437 118.039  0.00  0.00    -0.047 C 
ATOM      6  C   LIG d   1      -6.408  76.115 117.247  0.00  0.00     0.091 C 
ENDROOT
BRANCH   1   7
ATOM      7  O   LIG d   1      -7.723  74.221 116.419  0.00  0.00    -0.368 OA
BRANCH   7   8
ATOM      8  C   LIG d   1      -7.810  72.839 116.845  0.00  0.00     0.119 C 
BRANCH   8   9
ATOM      9  C   LIG d   1      -6.625  72.084 116.210  0.00  0.00     0.028 C 
ATOM     10  C   LIG d   1      -6.003  72.853 115.033  0.00  0.00     0.006 C 
ENDBRANCH   8   9
BRANCH   8  11
ATOM     11  C   LIG d   1      -9.066  72.162 116.289  0.00  0.00     0.028 C 
ATOM     12  C   LIG d   1      -9.432  70.874 117.043  0.00  0.00     0.006 C 
ENDBRANCH   8  11
ENDBRANCH   7   8
ENDBRANCH   1   7
BRANCH   6  13
ATOM     13  N   LIG d   1      -5.196  75.341 117.620  0.00  0.00    -0.311 N 
ATOM     14  C   LIG d   1      -4.045  75.414 116.953  0.00  0.00     0.210 C 
ATOM     15  C   LIG d   1      -2.927  74.517 117.493  0.00  0.00     0.109 C 
ATOM     16  O   LIG d   1      -3.834  76.161 115.986  0.00  0.00    -0.276 OA
ATOM     17  H   LIG d   1      -5.269  74.732 118.412  0.00  0.00     0.149 HD
ENDBRANCH   6  13
BRANCH   5  18
ATOM     18  N   LIG d   1      -5.434  78.383 117.758  0.00  0.00     0.381 N 
ATOM     19  H   LIG d   1      -5.004  78.154 116.884  0.00  0.00    -0.090 HD
ATOM     20  H   LIG d   1      -4.741  78.302 118.481  0.00  0.00    -0.090 HD
ATOM     21  H   LIG d   1      -5.786  79.315 117.728  0.00  0.00    -0.090 HD
ENDBRANCH   5  18
BRANCH   3  22
ATOM     22  C   LIG d   1     -10.183  77.851 118.070  0.00  0.00     0.382 C 
ATOM     23  O   LIG d   1     -10.332  79.094 118.002  0.00  0.00    -0.241 OA
ATOM     24  O   LIG d   1     -11.129  77.140 118.459  0.00  0.00    -0.241 OA
ENDBRANCH   3  22
TORSDOF 7
ENDMDL
MODEL 2
REMARK VINA RESULT:      -5.4     17.631     19.243
REMARK  7 active torsions:
REMARK  status: ('A' for Active; 'I' for Inactive)
REMARK    1  A    between atoms: C_2  and  C_3 
REMARK    2  A    between atoms: C_3  and  O_6 
REMARK    3  A    between atoms: C_3  and  C_4 
REMARK    4  A    between atoms: C_7  and  O_6 
REMARK    5  A    between atoms: C_9  and  C_10 
REMARK    6  A    between atoms: N_15  and  C_14 
REMARK    7  A    between atoms: N_20  and  C_19 
REMARK       I    between atoms: C_22  and  N_20 
ROOT
ATOM      1  C   LIG d   1       0.044  57.224 119.227  0.00  0.00     0.161 C 
ATOM      2  C   LIG d   1      -1.193  56.884 118.654  0.00  0.00     0.016 C 
ATOM      3  C   LIG d   1      -2.358  57.672 118.795  0.00  0.00     0.038 C 
ATOM      4  C   LIG d   1      -2.328  58.940 119.396  0.00  0.00     0.028 C 
ATOM      5  C   LIG d   1      -1.216  59.094 120.428  0.00  0.00    -0.047 C 
ATOM      6  C   LIG d   1       0.124  58.657 119.792  0.00  0.00     0.091 C 
ENDROOT
BRANCH   1   7
ATOM      7  O   LIG d   1       1.102  57.002 118.273  0.00  0.00    -0.368 OA
BRANCH   7   8
ATOM      8  C   LIG d   1       0.692  56.854 116.891  0.00  0.00     0.119 C 
BRANCH   8   9
ATOM      9  C   LIG d   1       1.481  55.669 116.299  0.00  0.00     0.028 C 
ATOM     10  C   LIG d   1       2.491  55.079 117.298  0.00  0.00     0.006 C 
ENDBRANCH   8   9
BRANCH   8  11
ATOM     11  C   LIG d   1       1.100  58.071 116.055  0.00  0.00     0.028 C 
ATOM     12  C   LIG d   1      -0.060  59.051 115.825  0.00  0.00     0.006 C 
ENDBRANCH   8  11
ENDBRANCH   7   8
ENDBRANCH   1   7
BRANCH   6  13
ATOM     13  N   LIG d   1       1.251  58.697 120.760  0.00  0.00    -0.311 N 
ATOM     14  C   LIG d   1       2.459  59.171 120.459  0.00  0.00     0.210 C 
ATOM     15  C   LIG d   1       3.482  59.102 121.597  0.00  0.00     0.109 C 
ATOM     16  O   LIG d   1       2.771  59.672 119.368  0.00  0.00    -0.276 OA
ATOM     17  H   LIG d   1       1.076  58.340 121.679  0.00  0.00     0.149 HD
ENDBRANCH   6  13
BRANCH   5  18
ATOM     18  N   LIG d   1      -1.213  60.500 120.874  0.00  0.00     0.381 N 
ATOM     19  H   LIG d   1      -1.182  60.539 121.873  0.00  0.00    -0.090 HD
ATOM     20  H   LIG d   1      -2.063  60.940 120.567  0.00  0.00    -0.090 HD
ATOM     21  H   LIG d   1      -0.426  60.978 120.491  0.00  0.00    -0.090 HD
ENDBRANCH   5  18
BRANCH   3  22
ATOM     22  C   LIG d   1      -3.580  57.176 118.367  0.00  0.00     0.382 C 
ATOM     23  O   LIG d   1      -3.753  55.937 118.270  0.00  0.00    -0.241 OA
ATOM     24  O   LIG d   1      -4.495  57.952 118.034  0.00  0.00    -0.241 OA
ENDBRANCH   3  22
TORSDOF 7
ENDMDL
MODEL 3
REMARK VINA RESULT:      -5.4     15.357     17.796
REMARK  7 active torsions:
REMARK  status: ('A' for Active; 'I' for Inactive)
REMARK    1  A    between atoms: C_2  and  C_3 
REMARK    2  A    between atoms: C_3  and  O_6 
REMARK    3  A    between atoms: C_3  and  C_4 
REMARK    4  A    between atoms: C_7  and  O_6 
REMARK    5  A    between atoms: C_9  and  C_10 
REMARK    6  A    between atoms: N_15  and  C_14 
REMARK    7  A    between atoms: N_20  and  C_19 
REMARK       I    between atoms: C_22  and  N_20 
ROOT
ATOM      1  C   LIG d   1      -6.585  92.140 119.246  0.00  0.00     0.161 C 
ATOM      2  C   LIG d   1      -6.410  91.377 118.080  0.00  0.00     0.016 C 
ATOM      3  C   LIG d   1      -6.815  91.813 116.797  0.00  0.00     0.038 C 
ATOM      4  C   LIG d   1      -7.288  93.114 116.571  0.00  0.00     0.028 C 
ATOM      5  C   LIG d   1      -7.952  93.738 117.795  0.00  0.00    -0.047 C 
ATOM      6  C   LIG d   1      -6.999  93.606 119.004  0.00  0.00     0.091 C 
ENDROOT
BRANCH   1   7
ATOM      7  O   LIG d   1      -5.391  92.082 120.052  0.00  0.00    -0.368 OA
BRANCH   7   8
ATOM      8  C   LIG d   1      -4.195  91.608 119.385  0.00  0.00     0.119 C 
BRANCH   8   9
ATOM      9  C   LIG d   1      -3.584  90.500 120.265  0.00  0.00     0.028 C 
ATOM     10  C   LIG d   1      -3.149  89.273 119.445  0.00  0.00     0.006 C 
ENDBRANCH   8   9
BRANCH   8  11
ATOM     11  C   LIG d   1      -3.128  92.703 119.311  0.00  0.00     0.028 C 
ATOM     12  C   LIG d   1      -2.329  92.669 117.999  0.00  0.00     0.006 C 
ENDBRANCH   8  11
ENDBRANCH   7   8
ENDBRANCH   1   7
BRANCH   6  13
ATOM     13  N   LIG d   1      -7.605  94.116 120.262  0.00  0.00    -0.311 N 
ATOM     14  C   LIG d   1      -8.912  94.078 120.514  0.00  0.00     0.210 C 
ATOM     15  C   LIG d   1      -9.329  94.674 121.862  0.00  0.00     0.109 C 
ATOM     16  O   LIG d   1      -9.763  93.577 119.762  0.00  0.00    -0.276 OA
ATOM     17  H   LIG d   1      -6.984  94.511 120.941  0.00  0.00     0.149 HD
ENDBRANCH   6  13
BRANCH   5  18
ATOM     18  N   LIG d   1      -8.274  95.138 117.462  0.00  0.00     0.381 N 
ATOM     19  H   LIG d   1      -9.246  95.310 117.624  0.00  0.00    -0.090 HD
ATOM     20  H   LIG d   1      -8.085  95.292 116.487  0.00  0.00    -0.090 HD
ATOM     21  H   LIG d   1      -7.723  95.756 118.016  0.00  0.00    -0.090 HD
ENDBRANCH   5  18
BRANCH   3  22
ATOM     22  C   LIG d   1      -6.784  90.929 115.729  0.00  0.00     0.382 C 
ATOM     23  O   LIG d   1      -7.117  89.731 115.898  0.00  0.00    -0.241 OA
ATOM     24  O   LIG d   1      -6.386  91.304 114.610  0.00  0.00    -0.241 OA
ENDBRANCH   3  22
TORSDOF 7
ENDMDL
MODEL 4
REMARK VINA RESULT:      -5.4      3.584      5.081
REMARK  7 active torsions:
REMARK  status: ('A' for Active; 'I' for Inactive)
REMARK    1  A    between atoms: C_2  and  C_3 
REMARK    2  A    between atoms: C_3  and  O_6 
REMARK    3  A    between atoms: C_3  and  C_4 
REMARK    4  A    between atoms: C_7  and  O_6 
REMARK    5  A    between atoms: C_9  and  C_10 
REMARK    6  A    between atoms: N_15  and  C_14 
REMARK    7  A    between atoms: N_20  and  C_19 
REMARK       I    between atoms: C_22  and  N_20 
ROOT
ATOM      1  C   LIG d   1      -4.123  75.133 116.968  0.00  0.00     0.161 C 
ATOM      2  C   LIG d   1      -4.662  75.518 115.729  0.00  0.00     0.016 C 
ATOM      3  C   LIG d   1      -3.870  75.832 114.601  0.00  0.00     0.038 C 
ATOM      4  C   LIG d   1      -2.481  75.636 114.591  0.00  0.00     0.028 C 
ATOM      5  C   LIG d   1      -1.847  75.731 115.974  0.00  0.00    -0.047 C 
ATOM      6  C   LIG d   1      -2.616  74.805 116.944  0.00  0.00     0.091 C 
ENDROOT
BRANCH   1   7
ATOM      7  O   LIG d   1      -4.869  74.020 117.500  0.00  0.00    -0.368 OA
BRANCH   7   8
ATOM      8  C   LIG d   1      -6.182  73.801 116.929  0.00  0.00     0.119 C 
BRANCH   8   9
ATOM      9  C   LIG d   1      -7.212  73.939 118.067  0.00  0.00     0.028 C 
ATOM     10  C   LIG d   1      -7.632  72.578 118.647  0.00  0.00     0.006 C 
ENDBRANCH   8   9
BRANCH   8  11
ATOM     11  C   LIG d   1      -6.335  72.366 116.416  0.00  0.00     0.028 C 
ATOM     12  C   LIG d   1      -6.149  72.254 114.895  0.00  0.00     0.006 C 
ENDBRANCH   8  11
ENDBRANCH   7   8
ENDBRANCH   1   7
BRANCH   6  13
ATOM     13  N   LIG d   1      -2.112  74.902 118.339  0.00  0.00    -0.311 N 
ATOM     14  C   LIG d   1      -1.194  74.081 118.846  0.00  0.00     0.210 C 
ATOM     15  C   LIG d   1      -0.831  74.342 120.311  0.00  0.00     0.109 C 
ATOM     16  O   LIG d   1      -0.623  73.181 118.212  0.00  0.00    -0.276 OA
ATOM     17  H   LIG d   1      -2.499  75.624 118.915  0.00  0.00     0.149 HD
ENDBRANCH   6  13
BRANCH   5  18
ATOM     18  N   LIG d   1      -0.423  75.370 115.837  0.00  0.00     0.381 N 
ATOM     19  H   LIG d   1       0.073  75.626 116.668  0.00  0.00    -0.090 HD
ATOM     20  H   LIG d   1      -0.031  75.881 115.066  0.00  0.00    -0.090 HD
ATOM     21  H   LIG d   1      -0.333  74.391 115.677  0.00  0.00    -0.090 HD
ENDBRANCH   5  18
BRANCH   3  22
ATOM     22  C   LIG d   1      -4.465  76.388 113.478  0.00  0.00     0.382 C 
ATOM     23  O   LIG d   1      -5.674  76.162 113.232  0.00  0.00    -0.241 OA
ATOM     24  O   LIG d   1      -3.795  77.076 112.684  0.00  0.00    -0.241 OA
ENDBRANCH   3  22
TORSDOF 7
ENDMDL
MODEL 5
REMARK VINA RESULT:      -5.3      2.550      5.624
REMARK  7 active torsions:
REMARK  status: ('A' for Active; 'I' for Inactive)
REMARK    1  A    between atoms: C_2  and  C_3 
REMARK    2  A    between atoms: C_3  and  O_6 
REMARK    3  A    between atoms: C_3  and  C_4 
REMARK    4  A    between atoms: C_7  and  O_6 
REMARK    5  A    between atoms: C_9  and  C_10 
REMARK    6  A    between atoms: N_15  and  C_14 
REMARK    7  A    between atoms: N_20  and  C_19 
REMARK       I    between atoms: C_22  and  N_20 
ROOT
ATOM      1  C   LIG d   1      -6.784  74.312 117.733  0.00  0.00     0.161 C 
ATOM      2  C   LIG d   1      -5.857  75.292 117.342  0.00  0.00     0.016 C 
ATOM      3  C   LIG d   1      -5.102  75.218 116.150  0.00  0.00     0.038 C 
ATOM      4  C   LIG d   1      -5.335  74.226 115.185  0.00  0.00     0.028 C 
ATOM      5  C   LIG d   1      -5.904  72.936 115.768  0.00  0.00    -0.047 C 
ATOM      6  C   LIG d   1      -7.133  73.279 116.641  0.00  0.00     0.091 C 
ENDROOT
BRANCH   1   7
ATOM      7  O   LIG d   1      -7.983  74.942 118.227  0.00  0.00    -0.368 OA
BRANCH   7   8
ATOM      8  C   LIG d   1      -8.101  76.366 117.984  0.00  0.00     0.119 C 
BRANCH   8   9
ATOM      9  C   LIG d   1      -8.039  77.075 119.350  0.00  0.00     0.028 C 
ATOM     10  C   LIG d   1      -9.233  78.019 119.576  0.00  0.00     0.006 C 
ENDBRANCH   8   9
BRANCH   8  11
ATOM     11  C   LIG d   1      -9.473  76.720 117.404  0.00  0.00     0.028 C 
ATOM     12  C   LIG d   1     -10.227  75.494 116.866  0.00  0.00     0.006 C 
ENDBRANCH   8  11
ENDBRANCH   7   8
ENDBRANCH   1   7
BRANCH   6  13
ATOM     13  N   LIG d   1      -7.700  72.083 117.316  0.00  0.00    -0.311 N 
ATOM     14  C   LIG d   1      -8.864  71.533 116.978  0.00  0.00     0.210 C 
ATOM     15  C   LIG d   1      -9.273  70.318 117.816  0.00  0.00     0.109 C 
ATOM     16  O   LIG d   1      -9.582  71.916 116.041  0.00  0.00    -0.276 OA
ATOM     17  H   LIG d   1      -7.167  71.689 118.067  0.00  0.00     0.149 HD
ENDBRANCH   6  13
BRANCH   5  18
ATOM     18  N   LIG d   1      -6.227  72.042 114.640  0.00  0.00     0.381 N 
ATOM     19  H   LIG d   1      -6.413  72.585 113.820  0.00  0.00    -0.090 HD
ATOM     20  H   LIG d   1      -7.054  71.519 114.867  0.00  0.00    -0.090 HD
ATOM     21  H   LIG d   1      -5.467  71.420 114.470  0.00  0.00    -0.090 HD
ENDBRANCH   5  18
BRANCH   3  22
ATOM     22  C   LIG d   1      -4.073  76.121 115.930  0.00  0.00     0.382 C 
ATOM     23  O   LIG d   1      -4.218  77.046 115.095  0.00  0.00    -0.241 OA
ATOM     24  O   LIG d   1      -2.985  75.996 116.524  0.00  0.00    -0.241 OA
ENDBRANCH   3  22
TORSDOF 7
ENDMDL
MODEL 6
REMARK VINA RESULT:      -5.3     15.476     17.506
REMARK  7 active torsions:
REMARK  status: ('A' for Active; 'I' for Inactive)
REMARK    1  A    between atoms: C_2  and  C_3 
REMARK    2  A    between atoms: C_3  and  O_6 
REMARK    3  A    between atoms: C_3  and  C_4 
REMARK    4  A    between atoms: C_7  and  O_6 
REMARK    5  A    between atoms: C_9  and  C_10 
REMARK    6  A    between atoms: N_15  and  C_14 
REMARK    7  A    between atoms: N_20  and  C_19 
REMARK       I    between atoms: C_22  and  N_20 
ROOT
ATOM      1  C   LIG d   1      -5.672  91.825 119.334  0.00  0.00     0.161 C 
ATOM      2  C   LIG d   1      -6.953  92.385 119.470  0.00  0.00     0.016 C 
ATOM      3  C   LIG d   1      -7.185  93.773 119.597  0.00  0.00     0.038 C 
ATOM      4  C   LIG d   1      -6.156  94.715 119.445  0.00  0.00     0.028 C 
ATOM      5  C   LIG d   1      -4.779  94.171 119.811  0.00  0.00    -0.047 C 
ATOM      6  C   LIG d   1      -4.547  92.843 119.054  0.00  0.00     0.091 C 
ENDROOT
BRANCH   1   7
ATOM      7  O   LIG d   1      -5.689  90.805 118.315  0.00  0.00    -0.368 OA
BRANCH   7   8
ATOM      8  C   LIG d   1      -5.511  91.263 116.952  0.00  0.00     0.119 C 
BRANCH   8   9
ATOM      9  C   LIG d   1      -6.906  91.338 116.302  0.00  0.00     0.028 C 
ATOM     10  C   LIG d   1      -7.340  92.784 116.008  0.00  0.00     0.006 C 
ENDBRANCH   8   9
BRANCH   8  11
ATOM     11  C   LIG d   1      -4.729  90.243 116.119  0.00  0.00     0.028 C 
ATOM     12  C   LIG d   1      -3.476  89.721 116.839  0.00  0.00     0.006 C 
ENDBRANCH   8  11
ENDBRANCH   7   8
ENDBRANCH   1   7
BRANCH   6  13
ATOM     13  N   LIG d   1      -3.257  92.201 119.420  0.00  0.00    -0.311 N 
ATOM     14  C   LIG d   1      -2.125  92.395 118.746  0.00  0.00     0.210 C 
ATOM     15  C   LIG d   1      -0.915  91.621 119.279  0.00  0.00     0.109 C 
ATOM     16  O   LIG d   1      -2.000  93.159 117.778  0.00  0.00    -0.276 OA
ATOM     17  H   LIG d   1      -3.261  91.589 120.212  0.00  0.00     0.149 HD
ENDBRANCH   6  13
BRANCH   5  18
ATOM     18  N   LIG d   1      -3.787  95.209 119.475  0.00  0.00     0.381 N 
ATOM     19  H   LIG d   1      -2.863  94.842 119.583  0.00  0.00    -0.090 HD
ATOM     20  H   LIG d   1      -3.895  95.980 120.110  0.00  0.00    -0.090 HD
ATOM     21  H   LIG d   1      -3.921  95.519 118.538  0.00  0.00    -0.090 HD
ENDBRANCH   5  18
BRANCH   3  22
ATOM     22  C   LIG d   1      -8.454  94.231 119.919  0.00  0.00     0.382 C 
ATOM     23  O   LIG d   1      -9.452  93.809 119.287  0.00  0.00    -0.241 OA
ATOM     24  O   LIG d   1      -8.608  95.094 120.805  0.00  0.00    -0.241 OA
ENDBRANCH   3  22
TORSDOF 7
ENDMDL
MODEL 7
REMARK VINA RESULT:      -5.3     14.972     17.590
REMARK  7 active torsions:
REMARK  status: ('A' for Active; 'I' for Inactive)
REMARK    1  A    between atoms: C_2  and  C_3 
REMARK    2  A    between atoms: C_3  and  O_6 
REMARK    3  A    between atoms: C_3  and  C_4 
REMARK    4  A    between atoms: C_7  and  O_6 
REMARK    5  A    between atoms: C_9  and  C_10 
REMARK    6  A    between atoms: N_15  and  C_14 
REMARK    7  A    between atoms: N_20  and  C_19 
REMARK       I    between atoms: C_22  and  N_20 
ROOT
ATOM      1  C   LIG d   1      -5.636  92.671 118.726  0.00  0.00     0.161 C 
ATOM      2  C   LIG d   1      -6.050  93.734 119.547  0.00  0.00     0.016 C 
ATOM      3  C   LIG d   1      -7.153  94.565 119.246  0.00  0.00     0.038 C 
ATOM      4  C   LIG d   1      -8.016  94.293 118.174  0.00  0.00     0.028 C 
ATOM      5  C   LIG d   1      -7.346  93.534 117.034  0.00  0.00    -0.047 C 
ATOM      6  C   LIG d   1      -6.632  92.290 117.611  0.00  0.00     0.091 C 
ENDROOT
BRANCH   1   7
ATOM      7  O   LIG d   1      -5.328  91.520 119.537  0.00  0.00    -0.368 OA
BRANCH   7   8
ATOM      8  C   LIG d   1      -3.921  91.261 119.767  0.00  0.00     0.119 C 
BRANCH   8   9
ATOM      9  C   LIG d   1      -3.126  92.050 118.707  0.00  0.00     0.028 C 
ATOM     10  C   LIG d   1      -2.035  92.936 119.331  0.00  0.00     0.006 C 
ENDBRANCH   8   9
BRANCH   8  11
ATOM     11  C   LIG d   1      -3.577  89.790 119.519  0.00  0.00     0.028 C 
ATOM     12  C   LIG d   1      -3.037  89.534 118.103  0.00  0.00     0.006 C 
ENDBRANCH   8  11
ENDBRANCH   7   8
ENDBRANCH   1   7
BRANCH   6  13
ATOM     13  N   LIG d   1      -5.880  91.537 116.574  0.00  0.00    -0.311 N 
ATOM     14  C   LIG d   1      -6.258  90.345 116.115  0.00  0.00     0.210 C 
ATOM     15  C   LIG d   1      -5.328  89.734 115.062  0.00  0.00     0.109 C 
ATOM     16  O   LIG d   1      -7.292  89.751 116.455  0.00  0.00    -0.276 OA
ATOM     17  H   LIG d   1      -5.044  91.960 116.219  0.00  0.00     0.149 HD
ENDBRANCH   6  13
BRANCH   5  18
ATOM     18  N   LIG d   1      -8.390  93.197 116.048  0.00  0.00     0.381 N 
ATOM     19  H   LIG d   1      -7.997  92.639 115.317  0.00  0.00    -0.090 HD
ATOM     20  H   LIG d   1      -8.740  94.047 115.643  0.00  0.00    -0.090 HD
ATOM     21  H   LIG d   1      -9.131  92.702 116.493  0.00  0.00    -0.090 HD
ENDBRANCH   5  18
BRANCH   3  22
ATOM     22  C   LIG d   1      -7.379  95.707 120.001  0.00  0.00     0.382 C 
ATOM     23  O   LIG d   1      -8.077  96.639 119.534  0.00  0.00    -0.241 OA
ATOM     24  O   LIG d   1      -6.857  95.835 121.124  0.00  0.00    -0.241 OA
ENDBRANCH   3  22
TORSDOF 7
ENDMDL
MODEL 8
REMARK VINA RESULT:      -5.3     15.295     17.344
REMARK  7 active torsions:
REMARK  status: ('A' for Active; 'I' for Inactive)
REMARK    1  A    between atoms: C_2  and  C_3 
REMARK    2  A    between atoms: C_3  and  O_6 
REMARK    3  A    between atoms: C_3  and  C_4 
REMARK    4  A    between atoms: C_7  and  O_6 
REMARK    5  A    between atoms: C_9  and  C_10 
REMARK    6  A    between atoms: N_15  and  C_14 
REMARK    7  A    between atoms: N_20  and  C_19 
REMARK       I    between atoms: C_22  and  N_20 
ROOT
ATOM      1  C   LIG d   1      -5.010  92.322 118.164  0.00  0.00     0.161 C 
ATOM      2  C   LIG d   1      -6.218  93.039 118.161  0.00  0.00     0.016 C 
ATOM      3  C   LIG d   1      -7.198  92.908 117.150  0.00  0.00     0.038 C 
ATOM      4  C   LIG d   1      -7.102  91.933 116.147  0.00  0.00     0.028 C 
ATOM      5  C   LIG d   1      -5.666  91.535 115.823  0.00  0.00    -0.047 C 
ATOM      6  C   LIG d   1      -4.937  91.173 117.137  0.00  0.00     0.091 C 
ENDROOT
BRANCH   1   7
ATOM      7  O   LIG d   1      -4.738  91.827 119.490  0.00  0.00    -0.368 OA
BRANCH   7   8
ATOM      8  C   LIG d   1      -3.488  92.253 120.086  0.00  0.00     0.119 C 
BRANCH   8   9
ATOM      9  C   LIG d   1      -3.786  92.670 121.539  0.00  0.00     0.028 C 
ATOM     10  C   LIG d   1      -5.026  93.573 121.647  0.00  0.00     0.006 C 
ENDBRANCH   8   9
BRANCH   8  11
ATOM     11  C   LIG d   1      -2.947  93.513 119.405  0.00  0.00     0.028 C 
ATOM     12  C   LIG d   1      -1.539  93.317 118.820  0.00  0.00     0.006 C 
ENDBRANCH   8  11
ENDBRANCH   7   8
ENDBRANCH   1   7
BRANCH   6  13
ATOM     13  N   LIG d   1      -3.502  90.853 116.920  0.00  0.00    -0.311 N 
ATOM     14  C   LIG d   1      -2.882  89.831 117.507  0.00  0.00     0.210 C 
ATOM     15  C   LIG d   1      -1.396  89.692 117.161  0.00  0.00     0.109 C 
ATOM     16  O   LIG d   1      -3.428  89.008 118.256  0.00  0.00    -0.276 OA
ATOM     17  H   LIG d   1      -2.990  91.452 116.302  0.00  0.00     0.149 HD
ENDBRANCH   6  13
BRANCH   5  18
ATOM     18  N   LIG d   1      -5.719  90.417 114.863  0.00  0.00     0.381 N 
ATOM     19  H   LIG d   1      -5.146  89.664 115.189  0.00  0.00    -0.090 HD
ATOM     20  H   LIG d   1      -5.356  90.729 113.979  0.00  0.00    -0.090 HD
ATOM     21  H   LIG d   1      -6.659  90.105 114.754  0.00  0.00    -0.090 HD
ENDBRANCH   5  18
BRANCH   3  22
ATOM     22  C   LIG d   1      -8.270  93.787 117.115  0.00  0.00     0.382 C 
ATOM     23  O   LIG d   1      -8.685  94.312 118.176  0.00  0.00    -0.241 OA
ATOM     24  O   LIG d   1      -8.855  94.026 116.042  0.00  0.00    -0.241 OA
ENDBRANCH   3  22
TORSDOF 7
ENDMDL
MODEL 9
REMARK VINA RESULT:      -5.3      2.248      4.514
REMARK  7 active torsions:
REMARK  status: ('A' for Active; 'I' for Inactive)
REMARK    1  A    between atoms: C_2  and  C_3 
REMARK    2  A    between atoms: C_3  and  O_6 
REMARK    3  A    between atoms: C_3  and  C_4 
REMARK    4  A    between atoms: C_7  and  O_6 
REMARK    5  A    between atoms: C_9  and  C_10 
REMARK    6  A    between atoms: N_15  and  C_14 
REMARK    7  A    between atoms: N_20  and  C_19 
REMARK       I    between atoms: C_22  and  N_20 
ROOT
ATOM      1  C   LIG d   1      -7.470  75.896 116.636  0.00  0.00     0.161 C 
ATOM      2  C   LIG d   1      -6.858  75.442 115.456  0.00  0.00     0.016 C 
ATOM      3  C   LIG d   1      -5.570  75.851 115.041  0.00  0.00     0.038 C 
ATOM      4  C   LIG d   1      -4.739  76.630 115.860  0.00  0.00     0.028 C 
ATOM      5  C   LIG d   1      -5.509  77.522 116.829  0.00  0.00    -0.047 C 
ATOM      6  C   LIG d   1      -6.536  76.659 117.598  0.00  0.00     0.091 C 
ENDROOT
BRANCH   1   7
ATOM      7  O   LIG d   1      -8.096  74.791 117.318  0.00  0.00    -0.368 OA
BRANCH   7   8
ATOM      8  C   LIG d   1      -8.028  73.508 116.649  0.00  0.00     0.119 C 
BRANCH   8   9
ATOM      9  C   LIG d   1      -9.433  72.879 116.708  0.00  0.00     0.028 C 
ATOM     10  C   LIG d   1      -9.388  71.342 116.752  0.00  0.00     0.006 C 
ENDBRANCH   8   9
BRANCH   8  11
ATOM     11  C   LIG d   1      -7.116  72.534 117.402  0.00  0.00     0.028 C 
ATOM     12  C   LIG d   1      -5.873  72.134 116.592  0.00  0.00     0.006 C 
ENDBRANCH   8  11
ENDBRANCH   7   8
ENDBRANCH   1   7
BRANCH   6  13
ATOM     13  N   LIG d   1      -7.389  77.468 118.506  0.00  0.00    -0.311 N 
ATOM     14  C   LIG d   1      -7.740  77.072 119.728  0.00  0.00     0.210 C 
ATOM     15  C   LIG d   1      -8.641  78.049 120.491  0.00  0.00     0.109 C 
ATOM     16  O   LIG d   1      -7.365  76.019 120.266  0.00  0.00    -0.276 OA
ATOM     17  H   LIG d   1      -7.712  78.351 118.162  0.00  0.00     0.149 HD
ENDBRANCH   6  13
BRANCH   5  18
ATOM     18  N   LIG d   1      -4.524  78.174 117.713  0.00  0.00     0.381 N 
ATOM     19  H   LIG d   1      -4.999  78.690 118.426  0.00  0.00    -0.090 HD
ATOM     20  H   LIG d   1      -3.975  78.817 117.170  0.00  0.00    -0.090 HD
ATOM     21  H   LIG d   1      -3.932  77.488 118.128  0.00  0.00    -0.090 HD
ENDBRANCH   5  18
BRANCH   3  22
ATOM     22  C   LIG d   1      -5.115  75.512 113.776  0.00  0.00     0.382 C 
ATOM     23  O   LIG d   1      -4.540  74.412 113.589  0.00  0.00    -0.241 OA
ATOM     24  O   LIG d   1      -5.234  76.311 112.827  0.00  0.00    -0.241 OA
ENDBRANCH   3  22
TORSDOF 7
ENDMDL
