MODEL 1
REMARK VINA RESULT:      -5.9      0.000      0.000
REMARK  7 active torsions:
REMARK  status: ('A' for Active; 'I' for Inactive)
REMARK    1  A    between atoms: C_2  and  C_3 
REMARK    2  A    between atoms: C_3  and  O_6 
REMARK    3  A    between atoms: C_3  and  C_4 
REMARK    4  A    between atoms: C_7  and  O_6 
REMARK    5  A    between atoms: C_9  and  C_10 
REMARK    6  A    between atoms: N_15  and  C_14 
REMARK    7  A    between atoms: N_20  and  C_19 
REMARK       I    between atoms: C_22  and  N_20 
ROOT
ATOM      1  C   LIG d   1      -7.376  74.482 117.648  0.00  0.00     0.161 C 
ATOM      2  C   LIG d   1      -8.553  75.205 117.901  0.00  0.00     0.016 C 
ATOM      3  C   LIG d   1      -8.621  76.617 117.870  0.00  0.00     0.038 C 
ATOM      4  C   LIG d   1      -7.544  77.402 117.432  0.00  0.00     0.028 C 
ATOM      5  C   LIG d   1      -6.186  76.743 117.652  0.00  0.00    -0.047 C 
ATOM      6  C   LIG d   1      -6.219  75.316 117.059  0.00  0.00     0.091 C 
ENDROOT
BRANCH   1   7
ATOM      7  O   LIG d   1      -7.668  73.358 116.794  0.00  0.00    -0.368 OA
BRANCH   7   8
ATOM      8  C   LIG d   1      -7.878  72.089 117.461  0.00  0.00     0.119 C 
BRANCH   8   9
ATOM      9  C   LIG d   1      -6.973  71.049 116.772  0.00  0.00     0.028 C 
ATOM     10  C   LIG d   1      -6.204  71.639 115.578  0.00  0.00     0.006 C 
ENDBRANCH   8   9
BRANCH   8  11
ATOM     11  C   LIG d   1      -9.308  71.581 117.256  0.00  0.00     0.028 C 
ATOM     12  C   LIG d   1      -9.399  70.047 117.235  0.00  0.00     0.006 C 
ENDBRANCH   8  11
ENDBRANCH   7   8
ENDBRANCH   1   7
BRANCH   6  13
ATOM     13  N   LIG d   1      -4.957  74.571 117.306  0.00  0.00    -0.311 N 
ATOM     14  C   LIG d   1      -3.973  74.479 116.413  0.00  0.00     0.210 C 
ATOM     15  C   LIG d   1      -2.768  73.646 116.862  0.00  0.00     0.109 C 
ATOM     16  O   LIG d   1      -3.971  75.034 115.304  0.00  0.00    -0.276 OA
ATOM     17  H   LIG d   1      -4.862  74.115 118.193  0.00  0.00     0.149 HD
ENDBRANCH   6  13
BRANCH   5  18
ATOM     18  N   LIG d   1      -5.166  77.606 117.027  0.00  0.00     0.381 N 
ATOM     19  H   LIG d   1      -4.952  77.267 116.110  0.00  0.00    -0.090 HD
ATOM     20  H   LIG d   1      -4.327  77.571 117.579  0.00  0.00    -0.090 HD
ATOM     21  H   LIG d   1      -5.498  78.543 116.973  0.00  0.00    -0.090 HD
ENDBRANCH   5  18
BRANCH   3  22
ATOM     22  C   LIG d   1      -9.765  77.260 118.319  0.00  0.00     0.382 C 
ATOM     23  O   LIG d   1      -9.688  78.423 118.784  0.00  0.00    -0.241 OA
ATOM     24  O   LIG d   1     -10.865  76.676 118.306  0.00  0.00    -0.241 OA
ENDBRANCH   3  22
TORSDOF 7
ENDMDL
MODEL 2
REMARK VINA RESULT:      -5.6      1.839      5.045
REMARK  7 active torsions:
REMARK  status: ('A' for Active; 'I' for Inactive)
REMARK    1  A    between atoms: C_2  and  C_3 
REMARK    2  A    between atoms: C_3  and  O_6 
REMARK    3  A    between atoms: C_3  and  C_4 
REMARK    4  A    between atoms: C_7  and  O_6 
REMARK    5  A    between atoms: C_9  and  C_10 
REMARK    6  A    between atoms: N_15  and  C_14 
REMARK    7  A    between atoms: N_20  and  C_19 
REMARK       I    between atoms: C_22  and  N_20 
ROOT
ATOM      1  C   LIG d   1      -6.119  74.342 117.284  0.00  0.00     0.161 C 
ATOM      2  C   LIG d   1      -4.903  73.744 116.912  0.00  0.00     0.016 C 
ATOM      3  C   LIG d   1      -3.638  74.288 117.234  0.00  0.00     0.038 C 
ATOM      4  C   LIG d   1      -3.502  75.395 118.085  0.00  0.00     0.028 C 
ATOM      5  C   LIG d   1      -4.710  76.325 118.068  0.00  0.00    -0.047 C 
ATOM      6  C   LIG d   1      -5.989  75.490 118.307  0.00  0.00     0.091 C 
ENDROOT
BRANCH   1   7
ATOM      7  O   LIG d   1      -7.029  73.337 117.772  0.00  0.00    -0.368 OA
BRANCH   7   8
ATOM      8  C   LIG d   1      -7.802  72.635 116.767  0.00  0.00     0.119 C 
BRANCH   8   9
ATOM      9  C   LIG d   1      -9.288  72.754 117.160  0.00  0.00     0.028 C 
ATOM     10  C   LIG d   1      -9.801  74.201 117.084  0.00  0.00     0.006 C 
ENDBRANCH   8   9
BRANCH   8  11
ATOM     11  C   LIG d   1      -7.498  71.134 116.777  0.00  0.00     0.028 C 
ATOM     12  C   LIG d   1      -8.723  70.281 117.142  0.00  0.00     0.006 C 
ENDBRANCH   8  11
ENDBRANCH   7   8
ENDBRANCH   1   7
BRANCH   6  13
ATOM     13  N   LIG d   1      -7.226  76.310 118.222  0.00  0.00    -0.311 N 
ATOM     14  C   LIG d   1      -8.005  76.572 119.270  0.00  0.00     0.210 C 
ATOM     15  C   LIG d   1      -9.242  77.420 118.960  0.00  0.00     0.109 C 
ATOM     16  O   LIG d   1      -7.772  76.210 120.433  0.00  0.00    -0.276 OA
ATOM     17  H   LIG d   1      -7.473  76.670 117.321  0.00  0.00     0.149 HD
ENDBRANCH   6  13
BRANCH   5  18
ATOM     18  N   LIG d   1      -4.493  77.357 119.098  0.00  0.00     0.381 N 
ATOM     19  H   LIG d   1      -3.854  78.048 118.757  0.00  0.00    -0.090 HD
ATOM     20  H   LIG d   1      -4.087  76.926 119.910  0.00  0.00    -0.090 HD
ATOM     21  H   LIG d   1      -5.359  77.786 119.339  0.00  0.00    -0.090 HD
ENDBRANCH   5  18
BRANCH   3  22
ATOM     22  C   LIG d   1      -2.494  73.746 116.669  0.00  0.00     0.382 C 
ATOM     23  O   LIG d   1      -1.819  72.903 117.307  0.00  0.00    -0.241 OA
ATOM     24  O   LIG d   1      -2.103  74.123 115.548  0.00  0.00    -0.241 OA
ENDBRANCH   3  22
TORSDOF 7
ENDMDL
MODEL 3
REMARK VINA RESULT:      -5.1      2.509      5.566
REMARK  7 active torsions:
REMARK  status: ('A' for Active; 'I' for Inactive)
REMARK    1  A    between atoms: C_2  and  C_3 
REMARK    2  A    between atoms: C_3  and  O_6 
REMARK    3  A    between atoms: C_3  and  C_4 
REMARK    4  A    between atoms: C_7  and  O_6 
REMARK    5  A    between atoms: C_9  and  C_10 
REMARK    6  A    between atoms: N_15  and  C_14 
REMARK    7  A    between atoms: N_20  and  C_19 
REMARK       I    between atoms: C_22  and  N_20 
ROOT
ATOM      1  C   LIG d   1      -6.412  73.644 118.268  0.00  0.00     0.161 C 
ATOM      2  C   LIG d   1      -5.337  74.496 117.966  0.00  0.00     0.016 C 
ATOM      3  C   LIG d   1      -4.570  74.393 116.783  0.00  0.00     0.038 C 
ATOM      4  C   LIG d   1      -4.925  73.520 115.743  0.00  0.00     0.028 C 
ATOM      5  C   LIG d   1      -5.698  72.295 116.218  0.00  0.00    -0.047 C 
ATOM      6  C   LIG d   1      -6.884  72.759 117.095  0.00  0.00     0.091 C 
ENDROOT
BRANCH   1   7
ATOM      7  O   LIG d   1      -7.514  74.413 118.789  0.00  0.00    -0.368 OA
BRANCH   7   8
ATOM      8  C   LIG d   1      -7.497  75.831 118.493  0.00  0.00     0.119 C 
BRANCH   8   9
ATOM      9  C   LIG d   1      -7.770  76.583 119.810  0.00  0.00     0.028 C 
ATOM     10  C   LIG d   1      -6.952  76.021 120.986  0.00  0.00     0.006 C 
ENDBRANCH   8   9
BRANCH   8  11
ATOM     11  C   LIG d   1      -8.648  76.219 117.560  0.00  0.00     0.028 C 
ATOM     12  C   LIG d   1      -9.690  75.100 117.401  0.00  0.00     0.006 C 
ENDBRANCH   8  11
ENDBRANCH   7   8
ENDBRANCH   1   7
BRANCH   6  13
ATOM     13  N   LIG d   1      -7.643  71.618 117.670  0.00  0.00    -0.311 N 
ATOM     14  C   LIG d   1      -8.798  71.179 117.171  0.00  0.00     0.210 C 
ATOM     15  C   LIG d   1      -9.425  70.004 117.928  0.00  0.00     0.109 C 
ATOM     16  O   LIG d   1      -9.345  71.631 116.154  0.00  0.00    -0.276 OA
ATOM     17  H   LIG d   1      -7.255  71.173 118.479  0.00  0.00     0.149 HD
ENDBRANCH   6  13
BRANCH   5  18
ATOM     18  N   LIG d   1      -6.123  71.544 115.022  0.00  0.00     0.381 N 
ATOM     19  H   LIG d   1      -5.398  71.566 114.333  0.00  0.00    -0.090 HD
ATOM     20  H   LIG d   1      -6.939  71.985 114.634  0.00  0.00    -0.090 HD
ATOM     21  H   LIG d   1      -6.330  70.601 115.266  0.00  0.00    -0.090 HD
ENDBRANCH   5  18
BRANCH   3  22
ATOM     22  C   LIG d   1      -3.410  75.141 116.648  0.00  0.00     0.382 C 
ATOM     23  O   LIG d   1      -2.722  75.047 115.603  0.00  0.00    -0.241 OA
ATOM     24  O   LIG d   1      -3.020  75.874 117.575  0.00  0.00    -0.241 OA
ENDBRANCH   3  22
TORSDOF 7
ENDMDL
MODEL 4
REMARK VINA RESULT:      -5.1      1.961      5.175
REMARK  7 active torsions:
REMARK  status: ('A' for Active; 'I' for Inactive)
REMARK    1  A    between atoms: C_2  and  C_3 
REMARK    2  A    between atoms: C_3  and  O_6 
REMARK    3  A    between atoms: C_3  and  C_4 
REMARK    4  A    between atoms: C_7  and  O_6 
REMARK    5  A    between atoms: C_9  and  C_10 
REMARK    6  A    between atoms: N_15  and  C_14 
REMARK    7  A    between atoms: N_20  and  C_19 
REMARK       I    between atoms: C_22  and  N_20 
ROOT
ATOM      1  C   LIG d   1      -7.858  75.228 117.521  0.00  0.00     0.161 C 
ATOM      2  C   LIG d   1      -8.478  73.967 117.523  0.00  0.00     0.016 C 
ATOM      3  C   LIG d   1      -7.783  72.759 117.287  0.00  0.00     0.038 C 
ATOM      4  C   LIG d   1      -6.385  72.715 117.180  0.00  0.00     0.028 C 
ATOM      5  C   LIG d   1      -5.776  74.016 116.669  0.00  0.00    -0.047 C 
ATOM      6  C   LIG d   1      -6.315  75.190 117.517  0.00  0.00     0.091 C 
ENDROOT
BRANCH   1   7
ATOM      7  O   LIG d   1      -8.337  76.010 118.633  0.00  0.00    -0.368 OA
BRANCH   7   8
ATOM      8  C   LIG d   1      -9.240  77.095 118.307  0.00  0.00     0.119 C 
BRANCH   8   9
ATOM      9  C   LIG d   1      -8.994  78.225 119.325  0.00  0.00     0.028 C 
ATOM     10  C   LIG d   1      -8.291  79.439 118.696  0.00  0.00     0.006 C 
ENDBRANCH   8   9
BRANCH   8  11
ATOM     11  C   LIG d   1     -10.702  76.682 118.505  0.00  0.00     0.028 C 
ATOM     12  C   LIG d   1     -11.364  77.389 119.699  0.00  0.00     0.006 C 
ENDBRANCH   8  11
ENDBRANCH   7   8
ENDBRANCH   1   7
BRANCH   6  13
ATOM     13  N   LIG d   1      -5.834  76.509 117.030  0.00  0.00    -0.311 N 
ATOM     14  C   LIG d   1      -5.309  77.438 117.827  0.00  0.00     0.210 C 
ATOM     15  C   LIG d   1      -4.895  78.735 117.124  0.00  0.00     0.109 C 
ATOM     16  O   LIG d   1      -5.116  77.299 119.045  0.00  0.00    -0.276 OA
ATOM     17  H   LIG d   1      -5.924  76.694 116.050  0.00  0.00     0.149 HD
ENDBRANCH   6  13
BRANCH   5  18
ATOM     18  N   LIG d   1      -4.309  73.879 116.739  0.00  0.00     0.381 N 
ATOM     19  H   LIG d   1      -3.910  74.046 115.837  0.00  0.00    -0.090 HD
ATOM     20  H   LIG d   1      -4.083  72.939 117.014  0.00  0.00    -0.090 HD
ATOM     21  H   LIG d   1      -3.937  74.525 117.399  0.00  0.00    -0.090 HD
ENDBRANCH   5  18
BRANCH   3  22
ATOM     22  C   LIG d   1      -8.494  71.580 117.114  0.00  0.00     0.382 C 
ATOM     23  O   LIG d   1      -7.997  70.641 116.448  0.00  0.00    -0.241 OA
ATOM     24  O   LIG d   1      -9.644  71.462 117.578  0.00  0.00    -0.241 OA
ENDBRANCH   3  22
TORSDOF 7
ENDMDL
MODEL 5
REMARK VINA RESULT:      -5.1      2.217      4.821
REMARK  7 active torsions:
REMARK  status: ('A' for Active; 'I' for Inactive)
REMARK    1  A    between atoms: C_2  and  C_3 
REMARK    2  A    between atoms: C_3  and  O_6 
REMARK    3  A    between atoms: C_3  and  C_4 
REMARK    4  A    between atoms: C_7  and  O_6 
REMARK    5  A    between atoms: C_9  and  C_10 
REMARK    6  A    between atoms: N_15  and  C_14 
REMARK    7  A    between atoms: N_20  and  C_19 
REMARK       I    between atoms: C_22  and  N_20 
ROOT
ATOM      1  C   LIG d   1      -6.376  74.478 118.039  0.00  0.00     0.161 C 
ATOM      2  C   LIG d   1      -6.795  73.199 117.638  0.00  0.00     0.016 C 
ATOM      3  C   LIG d   1      -8.129  72.893 117.284  0.00  0.00     0.038 C 
ATOM      4  C   LIG d   1      -9.111  73.888 117.161  0.00  0.00     0.028 C 
ATOM      5  C   LIG d   1      -8.853  75.105 118.043  0.00  0.00    -0.047 C 
ATOM      6  C   LIG d   1      -7.409  75.601 117.804  0.00  0.00     0.091 C 
ENDROOT
BRANCH   1   7
ATOM      7  O   LIG d   1      -5.126  74.806 117.400  0.00  0.00    -0.368 OA
BRANCH   7   8
ATOM      8  C   LIG d   1      -4.700  73.915 116.340  0.00  0.00     0.119 C 
BRANCH   8   9
ATOM      9  C   LIG d   1      -3.183  74.109 116.154  0.00  0.00     0.028 C 
ATOM     10  C   LIG d   1      -2.418  74.063 117.487  0.00  0.00     0.006 C 
ENDBRANCH   8   9
BRANCH   8  11
ATOM     11  C   LIG d   1      -5.326  74.307 114.998  0.00  0.00     0.028 C 
ATOM     12  C   LIG d   1      -5.217  75.812 114.706  0.00  0.00     0.006 C 
ENDBRANCH   8  11
ENDBRANCH   7   8
ENDBRANCH   1   7
BRANCH   6  13
ATOM     13  N   LIG d   1      -7.046  76.738 118.690  0.00  0.00    -0.311 N 
ATOM     14  C   LIG d   1      -6.568  77.896 118.237  0.00  0.00     0.210 C 
ATOM     15  C   LIG d   1      -6.240  78.928 119.321  0.00  0.00     0.109 C 
ATOM     16  O   LIG d   1      -6.415  78.178 117.039  0.00  0.00    -0.276 OA
ATOM     17  H   LIG d   1      -7.169  76.606 119.674  0.00  0.00     0.149 HD
ENDBRANCH   6  13
BRANCH   5  18
ATOM     18  N   LIG d   1      -9.874  76.118 117.713  0.00  0.00     0.381 N 
ATOM     19  H   LIG d   1      -9.935  76.790 118.452  0.00  0.00    -0.090 HD
ATOM     20  H   LIG d   1     -10.766  75.664 117.625  0.00  0.00    -0.090 HD
ATOM     21  H   LIG d   1      -9.639  76.573 116.859  0.00  0.00    -0.090 HD
ENDBRANCH   5  18
BRANCH   3  22
ATOM     22  C   LIG d   1      -8.502  71.572 117.087  0.00  0.00     0.382 C 
ATOM     23  O   LIG d   1      -7.783  70.814 116.392  0.00  0.00    -0.241 OA
ATOM     24  O   LIG d   1      -9.571  71.140 117.559  0.00  0.00    -0.241 OA
ENDBRANCH   3  22
TORSDOF 7
ENDMDL
MODEL 6
REMARK VINA RESULT:      -4.9      2.265      4.885
REMARK  7 active torsions:
REMARK  status: ('A' for Active; 'I' for Inactive)
REMARK    1  A    between atoms: C_2  and  C_3 
REMARK    2  A    between atoms: C_3  and  O_6 
REMARK    3  A    between atoms: C_3  and  C_4 
REMARK    4  A    between atoms: C_7  and  O_6 
REMARK    5  A    between atoms: C_9  and  C_10 
REMARK    6  A    between atoms: N_15  and  C_14 
REMARK    7  A    between atoms: N_20  and  C_19 
REMARK       I    between atoms: C_22  and  N_20 
ROOT
ATOM      1  C   LIG d   1      -6.298  75.589 116.612  0.00  0.00     0.161 C 
ATOM      2  C   LIG d   1      -6.806  74.288 116.761  0.00  0.00     0.016 C 
ATOM      3  C   LIG d   1      -5.997  73.129 116.736  0.00  0.00     0.038 C 
ATOM      4  C   LIG d   1      -4.597  73.202 116.712  0.00  0.00     0.028 C 
ATOM      5  C   LIG d   1      -4.068  74.473 116.054  0.00  0.00    -0.047 C 
ATOM      6  C   LIG d   1      -4.761  75.696 116.697  0.00  0.00     0.091 C 
ENDROOT
BRANCH   1   7
ATOM      7  O   LIG d   1      -6.915  76.467 117.574  0.00  0.00    -0.368 OA
BRANCH   7   8
ATOM      8  C   LIG d   1      -7.814  75.842 118.523  0.00  0.00     0.119 C 
BRANCH   8   9
ATOM      9  C   LIG d   1      -9.145  76.616 118.479  0.00  0.00     0.028 C 
ATOM     10  C   LIG d   1     -10.204  75.914 117.613  0.00  0.00     0.006 C 
ENDBRANCH   8   9
BRANCH   8  11
ATOM     11  C   LIG d   1      -7.303  75.996 119.959  0.00  0.00     0.028 C 
ATOM     12  C   LIG d   1      -6.603  74.732 120.481  0.00  0.00     0.006 C 
ENDBRANCH   8  11
ENDBRANCH   7   8
ENDBRANCH   1   7
BRANCH   6  13
ATOM     13  N   LIG d   1      -4.363  76.975 116.053  0.00  0.00    -0.311 N 
ATOM     14  C   LIG d   1      -3.366  77.739 116.496  0.00  0.00     0.210 C 
ATOM     15  C   LIG d   1      -3.135  79.027 115.698  0.00  0.00     0.109 C 
ATOM     16  O   LIG d   1      -2.630  77.457 117.453  0.00  0.00    -0.276 OA
ATOM     17  H   LIG d   1      -4.888  77.265 115.251  0.00  0.00     0.149 HD
ENDBRANCH   6  13
BRANCH   5  18
ATOM     18  N   LIG d   1      -2.603  74.484 116.221  0.00  0.00     0.381 N 
ATOM     19  H   LIG d   1      -2.183  75.032 115.496  0.00  0.00    -0.090 HD
ATOM     20  H   LIG d   1      -2.259  73.543 116.145  0.00  0.00    -0.090 HD
ATOM     21  H   LIG d   1      -2.364  74.861 117.112  0.00  0.00    -0.090 HD
ENDBRANCH   5  18
BRANCH   3  22
ATOM     22  C   LIG d   1      -6.592  71.876 116.695  0.00  0.00     0.382 C 
ATOM     23  O   LIG d   1      -7.011  71.347 117.752  0.00  0.00    -0.241 OA
ATOM     24  O   LIG d   1      -6.674  71.251 115.621  0.00  0.00    -0.241 OA
ENDBRANCH   3  22
TORSDOF 7
ENDMDL
MODEL 7
REMARK VINA RESULT:      -4.8      2.400      5.798
REMARK  7 active torsions:
REMARK  status: ('A' for Active; 'I' for Inactive)
REMARK    1  A    between atoms: C_2  and  C_3 
REMARK    2  A    between atoms: C_3  and  O_6 
REMARK    3  A    between atoms: C_3  and  C_4 
REMARK    4  A    between atoms: C_7  and  O_6 
REMARK    5  A    between atoms: C_9  and  C_10 
REMARK    6  A    between atoms: N_15  and  C_14 
REMARK    7  A    between atoms: N_20  and  C_19 
REMARK       I    between atoms: C_22  and  N_20 
ROOT
ATOM      1  C   LIG d   1      -4.175  74.467 116.656  0.00  0.00     0.161 C 
ATOM      2  C   LIG d   1      -3.037  73.722 116.307  0.00  0.00     0.016 C 
ATOM      3  C   LIG d   1      -1.715  74.188 116.493  0.00  0.00     0.038 C 
ATOM      4  C   LIG d   1      -1.438  75.377 117.184  0.00  0.00     0.028 C 
ATOM      5  C   LIG d   1      -2.566  76.400 117.105  0.00  0.00    -0.047 C 
ATOM      6  C   LIG d   1      -3.892  75.718 117.513  0.00  0.00     0.091 C 
ENDROOT
BRANCH   1   7
ATOM      7  O   LIG d   1      -5.133  73.615 117.315  0.00  0.00    -0.368 OA
BRANCH   7   8
ATOM      8  C   LIG d   1      -6.414  73.465 116.655  0.00  0.00     0.119 C 
BRANCH   8   9
ATOM      9  C   LIG d   1      -7.509  73.619 117.728  0.00  0.00     0.028 C 
ATOM     10  C   LIG d   1      -6.933  73.979 119.107  0.00  0.00     0.006 C 
ENDBRANCH   8   9
BRANCH   8  11
ATOM     11  C   LIG d   1      -6.591  72.050 116.095  0.00  0.00     0.028 C 
ATOM     12  C   LIG d   1      -7.935  71.418 116.488  0.00  0.00     0.006 C 
ENDBRANCH   8  11
ENDBRANCH   7   8
ENDBRANCH   1   7
BRANCH   6  13
ATOM     13  N   LIG d   1      -5.061  76.627 117.382  0.00  0.00    -0.311 N 
ATOM     14  C   LIG d   1      -5.558  77.332 118.397  0.00  0.00     0.210 C 
ATOM     15  C   LIG d   1      -6.778  78.191 118.050  0.00  0.00     0.109 C 
ATOM     16  O   LIG d   1      -5.085  77.353 119.543  0.00  0.00    -0.276 OA
ATOM     17  H   LIG d   1      -5.487  76.695 116.479  0.00  0.00     0.149 HD
ENDBRANCH   6  13
BRANCH   5  18
ATOM     18  N   LIG d   1      -2.204  77.531 117.979  0.00  0.00     0.381 N 
ATOM     19  H   LIG d   1      -2.831  77.571 118.758  0.00  0.00    -0.090 HD
ATOM     20  H   LIG d   1      -2.293  78.386 117.459  0.00  0.00    -0.090 HD
ATOM     21  H   LIG d   1      -1.268  77.427 118.303  0.00  0.00    -0.090 HD
ENDBRANCH   5  18
BRANCH   3  22
ATOM     22  C   LIG d   1      -0.654  73.481 115.949  0.00  0.00     0.382 C 
ATOM     23  O   LIG d   1      -0.019  72.660 116.654  0.00  0.00    -0.241 OA
ATOM     24  O   LIG d   1      -0.295  73.685 114.773  0.00  0.00    -0.241 OA
ENDBRANCH   3  22
TORSDOF 7
ENDMDL
MODEL 8
REMARK VINA RESULT:      -4.8     16.829     19.552
REMARK  7 active torsions:
REMARK  status: ('A' for Active; 'I' for Inactive)
REMARK    1  A    between atoms: C_2  and  C_3 
REMARK    2  A    between atoms: C_3  and  O_6 
REMARK    3  A    between atoms: C_3  and  C_4 
REMARK    4  A    between atoms: C_7  and  O_6 
REMARK    5  A    between atoms: C_9  and  C_10 
REMARK    6  A    between atoms: N_15  and  C_14 
REMARK    7  A    between atoms: N_20  and  C_19 
REMARK       I    between atoms: C_22  and  N_20 
ROOT
ATOM      1  C   LIG d   1      -1.389  93.508 117.896  0.00  0.00     0.161 C 
ATOM      2  C   LIG d   1      -1.158  94.635 118.703  0.00  0.00     0.016 C 
ATOM      3  C   LIG d   1      -1.981  94.991 119.797  0.00  0.00     0.038 C 
ATOM      4  C   LIG d   1      -3.010  94.154 120.253  0.00  0.00     0.028 C 
ATOM      5  C   LIG d   1      -3.595  93.262 119.162  0.00  0.00    -0.047 C 
ATOM      6  C   LIG d   1      -2.441  92.523 118.447  0.00  0.00     0.091 C 
ENDROOT
BRANCH   1   7
ATOM      7  O   LIG d   1      -0.145  92.825 117.645  0.00  0.00    -0.368 OA
BRANCH   7   8
ATOM      8  C   LIG d   1       0.273  91.871 118.653  0.00  0.00     0.119 C 
BRANCH   8   9
ATOM      9  C   LIG d   1       1.643  92.331 119.186  0.00  0.00     0.028 C 
ATOM     10  C   LIG d   1       2.526  92.942 118.085  0.00  0.00     0.006 C 
ENDBRANCH   8   9
BRANCH   8  11
ATOM     11  C   LIG d   1       0.519  90.488 118.043  0.00  0.00     0.028 C 
ATOM     12  C   LIG d   1       0.413  90.486 116.509  0.00  0.00     0.006 C 
ENDBRANCH   8  11
ENDBRANCH   7   8
ENDBRANCH   1   7
BRANCH   6  13
ATOM     13  N   LIG d   1      -2.918  91.693 117.310  0.00  0.00    -0.311 N 
ATOM     14  C   LIG d   1      -3.228  90.403 117.424  0.00  0.00     0.210 C 
ATOM     15  C   LIG d   1      -3.681  89.730 116.124  0.00  0.00     0.109 C 
ATOM     16  O   LIG d   1      -3.203  89.760 118.484  0.00  0.00    -0.276 OA
ATOM     17  H   LIG d   1      -2.998  92.143 116.419  0.00  0.00     0.149 HD
ENDBRANCH   6  13
BRANCH   5  18
ATOM     18  N   LIG d   1      -4.558  92.347 119.803  0.00  0.00     0.381 N 
ATOM     19  H   LIG d   1      -4.558  92.494 120.793  0.00  0.00    -0.090 HD
ATOM     20  H   LIG d   1      -4.275  91.400 119.625  0.00  0.00    -0.090 HD
ATOM     21  H   LIG d   1      -5.471  92.503 119.437  0.00  0.00    -0.090 HD
ENDBRANCH   5  18
BRANCH   3  22
ATOM     22  C   LIG d   1      -1.803  96.216 120.421  0.00  0.00     0.382 C 
ATOM     23  O   LIG d   1      -1.684  97.258 119.734  0.00  0.00    -0.241 OA
ATOM     24  O   LIG d   1      -1.715  96.286 121.662  0.00  0.00    -0.241 OA
ENDBRANCH   3  22
TORSDOF 7
ENDMDL
MODEL 9
REMARK VINA RESULT:      -4.8      9.987     12.517
REMARK  7 active torsions:
REMARK  status: ('A' for Active; 'I' for Inactive)
REMARK    1  A    between atoms: C_2  and  C_3 
REMARK    2  A    between atoms: C_3  and  O_6 
REMARK    3  A    between atoms: C_3  and  C_4 
REMARK    4  A    between atoms: C_7  and  O_6 
REMARK    5  A    between atoms: C_9  and  C_10 
REMARK    6  A    between atoms: N_15  and  C_14 
REMARK    7  A    between atoms: N_20  and  C_19 
REMARK       I    between atoms: C_22  and  N_20 
ROOT
ATOM      1  C   LIG d   1     -13.487  66.421 118.484  0.00  0.00     0.161 C 
ATOM      2  C   LIG d   1     -14.314  66.408 117.349  0.00  0.00     0.016 C 
ATOM      3  C   LIG d   1     -15.118  65.303 116.984  0.00  0.00     0.038 C 
ATOM      4  C   LIG d   1     -15.266  64.186 117.819  0.00  0.00     0.028 C 
ATOM      5  C   LIG d   1     -14.062  63.943 118.723  0.00  0.00    -0.047 C 
ATOM      6  C   LIG d   1     -13.720  65.254 119.467  0.00  0.00     0.091 C 
ENDROOT
BRANCH   1   7
ATOM      7  O   LIG d   1     -13.615  67.684 119.167  0.00  0.00    -0.368 OA
BRANCH   7   8
ATOM      8  C   LIG d   1     -14.534  67.713 120.287  0.00  0.00     0.119 C 
BRANCH   8   9
ATOM      9  C   LIG d   1     -15.715  68.620 119.892  0.00  0.00     0.028 C 
ATOM     10  C   LIG d   1     -16.960  67.816 119.481  0.00  0.00     0.006 C 
ENDBRANCH   8   9
BRANCH   8  11
ATOM     11  C   LIG d   1     -13.900  68.382 121.510  0.00  0.00     0.028 C 
ATOM     12  C   LIG d   1     -12.404  68.677 121.319  0.00  0.00     0.006 C 
ENDBRANCH   8  11
ENDBRANCH   7   8
ENDBRANCH   1   7
BRANCH   6  13
ATOM     13  N   LIG d   1     -12.502  65.127 120.309  0.00  0.00    -0.311 N 
ATOM     14  C   LIG d   1     -12.538  64.856 121.613  0.00  0.00     0.210 C 
ATOM     15  C   LIG d   1     -11.169  64.788 122.297  0.00  0.00     0.109 C 
ATOM     16  O   LIG d   1     -13.572  64.634 122.261  0.00  0.00    -0.276 OA
ATOM     17  H   LIG d   1     -11.619  65.261 119.858  0.00  0.00     0.149 HD
ENDBRANCH   6  13
BRANCH   5  18
ATOM     18  N   LIG d   1     -14.406  62.835 119.634  0.00  0.00     0.381 N 
ATOM     19  H   LIG d   1     -15.093  63.139 120.294  0.00  0.00    -0.090 HD
ATOM     20  H   LIG d   1     -13.582  62.563 120.141  0.00  0.00    -0.090 HD
ATOM     21  H   LIG d   1     -14.755  62.061 119.113  0.00  0.00    -0.090 HD
ENDBRANCH   5  18
BRANCH   3  22
ATOM     22  C   LIG d   1     -15.755  65.293 115.752  0.00  0.00     0.382 C 
ATOM     23  O   LIG d   1     -15.133  64.920 114.728  0.00  0.00    -0.241 OA
ATOM     24  O   LIG d   1     -16.929  65.695 115.644  0.00  0.00    -0.241 OA
ENDBRANCH   3  22
TORSDOF 7
ENDMDL
