MODEL 1
REMARK VINA RESULT:      -6.5      0.000      0.000
REMARK  7 active torsions:
REMARK  status: ('A' for Active; 'I' for Inactive)
REMARK    1  A    between atoms: C_2  and  C_3 
REMARK    2  A    between atoms: C_3  and  O_6 
REMARK    3  A    between atoms: C_3  and  C_4 
REMARK    4  A    between atoms: C_7  and  O_6 
REMARK    5  A    between atoms: C_9  and  C_10 
REMARK    6  A    between atoms: N_15  and  C_14 
REMARK    7  A    between atoms: N_20  and  C_19 
REMARK       I    between atoms: C_22  and  N_20 
ROOT
ATOM      1  C   LIG d   1       0.335  82.027 111.427  0.00  0.00     0.161 C 
ATOM      2  C   LIG d   1      -0.817  81.775 112.191  0.00  0.00     0.016 C 
ATOM      3  C   LIG d   1      -1.355  80.482 112.385  0.00  0.00     0.038 C 
ATOM      4  C   LIG d   1      -0.686  79.328 111.950  0.00  0.00     0.028 C 
ATOM      5  C   LIG d   1       0.213  79.569 110.742  0.00  0.00    -0.047 C 
ATOM      6  C   LIG d   1       1.140  80.770 111.037  0.00  0.00     0.091 C 
ENDROOT
BRANCH   1   7
ATOM      7  O   LIG d   1       1.180  82.971 112.114  0.00  0.00    -0.368 OA
BRANCH   7   8
ATOM      8  C   LIG d   1       1.282  84.288 111.519  0.00  0.00     0.119 C 
BRANCH   8   9
ATOM      9  C   LIG d   1       0.645  85.290 112.500  0.00  0.00     0.028 C 
ATOM     10  C   LIG d   1      -0.827  85.586 112.165  0.00  0.00     0.006 C 
ENDBRANCH   8   9
BRANCH   8  11
ATOM     11  C   LIG d   1       0.446  84.386 110.239  0.00  0.00     0.028 C 
ATOM     12  C   LIG d   1       1.306  84.549 108.976  0.00  0.00     0.006 C 
ENDBRANCH   8  11
ENDBRANCH   7   8
ENDBRANCH   1   7
BRANCH   6  13
ATOM     13  N   LIG d   1       1.994  81.126 109.875  0.00  0.00    -0.311 N 
ATOM     14  C   LIG d   1       3.300  81.372 109.972  0.00  0.00     0.210 C 
ATOM     15  C   LIG d   1       3.989  81.740 108.654  0.00  0.00     0.109 C 
ATOM     16  O   LIG d   1       3.959  81.287 111.019  0.00  0.00    -0.276 OA
ATOM     17  H   LIG d   1       1.547  81.186 108.981  0.00  0.00     0.149 HD
ENDBRANCH   6  13
BRANCH   5  18
ATOM     18  N   LIG d   1       0.952  78.319 110.481  0.00  0.00     0.381 N 
ATOM     19  H   LIG d   1       1.001  78.154 109.495  0.00  0.00    -0.090 HD
ATOM     20  H   LIG d   1       0.457  77.554 110.904  0.00  0.00    -0.090 HD
ATOM     21  H   LIG d   1       1.871  78.381 110.861  0.00  0.00    -0.090 HD
ENDBRANCH   5  18
BRANCH   3  22
ATOM     22  C   LIG d   1      -2.595  80.337 112.987  0.00  0.00     0.382 C 
ATOM     23  O   LIG d   1      -3.489  81.196 112.796  0.00  0.00    -0.241 OA
ATOM     24  O   LIG d   1      -2.817  79.381 113.754  0.00  0.00    -0.241 OA
ENDBRANCH   3  22
TORSDOF 7
ENDMDL
MODEL 2
REMARK VINA RESULT:      -6.4      1.967      4.663
REMARK  7 active torsions:
REMARK  status: ('A' for Active; 'I' for Inactive)
REMARK    1  A    between atoms: C_2  and  C_3 
REMARK    2  A    between atoms: C_3  and  O_6 
REMARK    3  A    between atoms: C_3  and  C_4 
REMARK    4  A    between atoms: C_7  and  O_6 
REMARK    5  A    between atoms: C_9  and  C_10 
REMARK    6  A    between atoms: N_15  and  C_14 
REMARK    7  A    between atoms: N_20  and  C_19 
REMARK       I    between atoms: C_22  and  N_20 
ROOT
ATOM      1  C   LIG d   1       1.450  82.190 111.593  0.00  0.00     0.161 C 
ATOM      2  C   LIG d   1       2.096  82.626 110.424  0.00  0.00     0.016 C 
ATOM      3  C   LIG d   1       1.983  81.964 109.179  0.00  0.00     0.038 C 
ATOM      4  C   LIG d   1       1.089  80.901 108.983  0.00  0.00     0.028 C 
ATOM      5  C   LIG d   1       0.798  80.112 110.256  0.00  0.00    -0.047 C 
ATOM      6  C   LIG d   1       0.383  81.097 111.373  0.00  0.00     0.091 C 
ENDROOT
BRANCH   1   7
ATOM      7  O   LIG d   1       0.877  83.318 112.283  0.00  0.00    -0.368 OA
BRANCH   7   8
ATOM      8  C   LIG d   1       0.700  84.523 111.499  0.00  0.00     0.119 C 
BRANCH   8   9
ATOM      9  C   LIG d   1       1.169  85.710 112.361  0.00  0.00     0.028 C 
ATOM     10  C   LIG d   1       2.064  86.686 111.579  0.00  0.00     0.006 C 
ENDBRANCH   8   9
BRANCH   8  11
ATOM     11  C   LIG d   1      -0.781  84.790 111.214  0.00  0.00     0.028 C 
ATOM     12  C   LIG d   1      -1.001  85.659 109.965  0.00  0.00     0.006 C 
ENDBRANCH   8  11
ENDBRANCH   7   8
ENDBRANCH   1   7
BRANCH   6  13
ATOM     13  N   LIG d   1       0.161  80.417 112.675  0.00  0.00    -0.311 N 
ATOM     14  C   LIG d   1      -1.029  79.973 113.077  0.00  0.00     0.210 C 
ATOM     15  C   LIG d   1      -1.041  79.319 114.462  0.00  0.00     0.109 C 
ATOM     16  O   LIG d   1      -2.069  80.030 112.404  0.00  0.00    -0.276 OA
ATOM     17  H   LIG d   1       0.957  80.300 113.270  0.00  0.00     0.149 HD
ENDBRANCH   6  13
BRANCH   5  18
ATOM     18  N   LIG d   1      -0.251  79.124 109.938  0.00  0.00     0.381 N 
ATOM     19  H   LIG d   1       0.159  78.328 109.491  0.00  0.00    -0.090 HD
ATOM     20  H   LIG d   1      -0.907  79.541 109.301  0.00  0.00    -0.090 HD
ATOM     21  H   LIG d   1      -0.718  78.842 110.771  0.00  0.00    -0.090 HD
ENDBRANCH   5  18
BRANCH   3  22
ATOM     22  C   LIG d   1       2.800  82.340 108.124  0.00  0.00     0.382 C 
ATOM     23  O   LIG d   1       2.296  82.825 107.083  0.00  0.00    -0.241 OA
ATOM     24  O   LIG d   1       4.031  82.160 108.183  0.00  0.00    -0.241 OA
ENDBRANCH   3  22
TORSDOF 7
ENDMDL
MODEL 3
REMARK VINA RESULT:      -6.2      2.480      4.247
REMARK  7 active torsions:
REMARK  status: ('A' for Active; 'I' for Inactive)
REMARK    1  A    between atoms: C_2  and  C_3 
REMARK    2  A    between atoms: C_3  and  O_6 
REMARK    3  A    between atoms: C_3  and  C_4 
REMARK    4  A    between atoms: C_7  and  O_6 
REMARK    5  A    between atoms: C_9  and  C_10 
REMARK    6  A    between atoms: N_15  and  C_14 
REMARK    7  A    between atoms: N_20  and  C_19 
REMARK       I    between atoms: C_22  and  N_20 
ROOT
ATOM      1  C   LIG d   1       1.325  80.118 110.310  0.00  0.00     0.161 C 
ATOM      2  C   LIG d   1       1.103  78.732 110.272  0.00  0.00     0.016 C 
ATOM      3  C   LIG d   1       0.062  78.091 110.983  0.00  0.00     0.038 C 
ATOM      4  C   LIG d   1      -0.927  78.816 111.664  0.00  0.00     0.028 C 
ATOM      5  C   LIG d   1      -0.452  80.183 112.145  0.00  0.00    -0.047 C 
ATOM      6  C   LIG d   1       0.190  80.938 110.959  0.00  0.00     0.091 C 
ENDROOT
BRANCH   1   7
ATOM      7  O   LIG d   1       1.599  80.606 108.982  0.00  0.00    -0.368 OA
BRANCH   7   8
ATOM      8  C   LIG d   1       2.983  80.924 108.693  0.00  0.00     0.119 C 
BRANCH   8   9
ATOM      9  C   LIG d   1       3.704  81.120 110.040  0.00  0.00     0.028 C 
ATOM     10  C   LIG d   1       4.331  82.518 110.173  0.00  0.00     0.006 C 
ENDBRANCH   8   9
BRANCH   8  11
ATOM     11  C   LIG d   1       3.105  82.268 107.968  0.00  0.00     0.028 C 
ATOM     12  C   LIG d   1       1.743  82.924 107.694  0.00  0.00     0.006 C 
ENDBRANCH   8  11
ENDBRANCH   7   8
ENDBRANCH   1   7
BRANCH   6  13
ATOM     13  N   LIG d   1       0.757  82.251 111.362  0.00  0.00    -0.311 N 
ATOM     14  C   LIG d   1       0.081  83.396 111.288  0.00  0.00     0.210 C 
ATOM     15  C   LIG d   1       0.859  84.637 111.735  0.00  0.00     0.109 C 
ATOM     16  O   LIG d   1      -1.101  83.497 110.924  0.00  0.00    -0.276 OA
ATOM     17  H   LIG d   1       1.700  82.256 111.699  0.00  0.00     0.149 HD
ENDBRANCH   6  13
BRANCH   5  18
ATOM     18  N   LIG d   1      -1.618  80.885 112.715  0.00  0.00     0.381 N 
ATOM     19  H   LIG d   1      -2.426  80.298 112.661  0.00  0.00    -0.090 HD
ATOM     20  H   LIG d   1      -1.793  81.714 112.175  0.00  0.00    -0.090 HD
ATOM     21  H   LIG d   1      -1.438  81.129 113.664  0.00  0.00    -0.090 HD
ENDBRANCH   5  18
BRANCH   3  22
ATOM     22  C   LIG d   1       0.026  76.706 111.049  0.00  0.00     0.382 C 
ATOM     23  O   LIG d   1       1.083  76.045 110.914  0.00  0.00    -0.241 OA
ATOM     24  O   LIG d   1      -1.057  76.109 111.197  0.00  0.00    -0.241 OA
ENDBRANCH   3  22
TORSDOF 7
ENDMDL
MODEL 4
REMARK VINA RESULT:      -6.0      2.791      4.826
REMARK  7 active torsions:
REMARK  status: ('A' for Active; 'I' for Inactive)
REMARK    1  A    between atoms: C_2  and  C_3 
REMARK    2  A    between atoms: C_3  and  O_6 
REMARK    3  A    between atoms: C_3  and  C_4 
REMARK    4  A    between atoms: C_7  and  O_6 
REMARK    5  A    between atoms: C_9  and  C_10 
REMARK    6  A    between atoms: N_15  and  C_14 
REMARK    7  A    between atoms: N_20  and  C_19 
REMARK       I    between atoms: C_22  and  N_20 
ROOT
ATOM      1  C   LIG d   1       2.377  83.630 111.317  0.00  0.00     0.161 C 
ATOM      2  C   LIG d   1       1.419  82.609 111.429  0.00  0.00     0.016 C 
ATOM      3  C   LIG d   1       0.025  82.846 111.424  0.00  0.00     0.038 C 
ATOM      4  C   LIG d   1      -0.511  84.114 111.152  0.00  0.00     0.028 C 
ATOM      5  C   LIG d   1       0.420  85.259 111.535  0.00  0.00    -0.047 C 
ATOM      6  C   LIG d   1       1.811  85.006 110.908  0.00  0.00     0.091 C 
ENDROOT
BRANCH   1   7
ATOM      7  O   LIG d   1       3.418  83.226 110.405  0.00  0.00    -0.368 OA
BRANCH   7   8
ATOM      8  C   LIG d   1       3.108  82.105 109.542  0.00  0.00     0.119 C 
BRANCH   8   9
ATOM      9  C   LIG d   1       4.299  81.129 109.606  0.00  0.00     0.028 C 
ATOM     10  C   LIG d   1       3.920  79.782 110.244  0.00  0.00     0.006 C 
ENDBRANCH   8   9
BRANCH   8  11
ATOM     11  C   LIG d   1       3.018  82.539 108.076  0.00  0.00     0.028 C 
ATOM     12  C   LIG d   1       1.628  83.073 107.697  0.00  0.00     0.006 C 
ENDBRANCH   8  11
ENDBRANCH   7   8
ENDBRANCH   1   7
BRANCH   6  13
ATOM     13  N   LIG d   1       2.806  86.037 111.303  0.00  0.00    -0.311 N 
ATOM     14  C   LIG d   1       3.110  86.317 112.569  0.00  0.00     0.210 C 
ATOM     15  C   LIG d   1       4.148  87.428 112.755  0.00  0.00     0.109 C 
ATOM     16  O   LIG d   1       2.642  85.727 113.555  0.00  0.00    -0.276 OA
ATOM     17  H   LIG d   1       3.257  86.542 110.565  0.00  0.00     0.149 HD
ENDBRANCH   6  13
BRANCH   5  18
ATOM     18  N   LIG d   1      -0.203  86.514 111.072  0.00  0.00     0.381 N 
ATOM     19  H   LIG d   1      -0.769  86.900 111.801  0.00  0.00    -0.090 HD
ATOM     20  H   LIG d   1      -0.795  86.312 110.286  0.00  0.00    -0.090 HD
ATOM     21  H   LIG d   1       0.501  87.167 110.807  0.00  0.00    -0.090 HD
ENDBRANCH   5  18
BRANCH   3  22
ATOM     22  C   LIG d   1      -0.849  81.814 111.732  0.00  0.00     0.382 C 
ATOM     23  O   LIG d   1      -0.544  80.630 111.451  0.00  0.00    -0.241 OA
ATOM     24  O   LIG d   1      -1.957  82.057 112.246  0.00  0.00    -0.241 OA
ENDBRANCH   3  22
TORSDOF 7
ENDMDL
MODEL 5
REMARK VINA RESULT:      -5.8      3.298      5.956
REMARK  7 active torsions:
REMARK  status: ('A' for Active; 'I' for Inactive)
REMARK    1  A    between atoms: C_2  and  C_3 
REMARK    2  A    between atoms: C_3  and  O_6 
REMARK    3  A    between atoms: C_3  and  C_4 
REMARK    4  A    between atoms: C_7  and  O_6 
REMARK    5  A    between atoms: C_9  and  C_10 
REMARK    6  A    between atoms: N_15  and  C_14 
REMARK    7  A    between atoms: N_20  and  C_19 
REMARK       I    between atoms: C_22  and  N_20 
ROOT
ATOM      1  C   LIG d   1       2.411  85.038 111.847  0.00  0.00     0.161 C 
ATOM      2  C   LIG d   1       3.024  86.258 112.176  0.00  0.00     0.016 C 
ATOM      3  C   LIG d   1       3.607  86.521 113.437  0.00  0.00     0.038 C 
ATOM      4  C   LIG d   1       3.749  85.521 114.411  0.00  0.00     0.028 C 
ATOM      5  C   LIG d   1       2.695  84.424 114.311  0.00  0.00    -0.047 C 
ATOM      6  C   LIG d   1       2.655  83.898 112.858  0.00  0.00     0.091 C 
ENDROOT
BRANCH   1   7
ATOM      7  O   LIG d   1       2.813  84.629 110.524  0.00  0.00    -0.368 OA
BRANCH   7   8
ATOM      8  C   LIG d   1       1.760  84.555 109.532  0.00  0.00     0.119 C 
BRANCH   8   9
ATOM      9  C   LIG d   1       0.414  84.625 110.280  0.00  0.00     0.028 C 
ATOM     10  C   LIG d   1      -0.536  85.676 109.681  0.00  0.00     0.006 C 
ENDBRANCH   8   9
BRANCH   8  11
ATOM     11  C   LIG d   1       1.758  83.199 108.821  0.00  0.00     0.028 C 
ATOM     12  C   LIG d   1       3.160  82.575 108.726  0.00  0.00     0.006 C 
ENDBRANCH   8  11
ENDBRANCH   7   8
ENDBRANCH   1   7
BRANCH   6  13
ATOM     13  N   LIG d   1       1.592  82.880 112.653  0.00  0.00    -0.311 N 
ATOM     14  C   LIG d   1       1.833  81.647 112.209  0.00  0.00     0.210 C 
ATOM     15  C   LIG d   1       0.592  80.763 112.050  0.00  0.00     0.109 C 
ATOM     16  O   LIG d   1       2.960  81.192 111.963  0.00  0.00    -0.276 OA
ATOM     17  H   LIG d   1       0.651  83.155 112.858  0.00  0.00     0.149 HD
ENDBRANCH   6  13
BRANCH   5  18
ATOM     18  N   LIG d   1       3.044  83.380 115.294  0.00  0.00     0.381 N 
ATOM     19  H   LIG d   1       3.889  83.630 115.768  0.00  0.00    -0.090 HD
ATOM     20  H   LIG d   1       3.199  82.515 114.808  0.00  0.00    -0.090 HD
ATOM     21  H   LIG d   1       2.304  83.272 115.953  0.00  0.00    -0.090 HD
ENDBRANCH   5  18
BRANCH   3  22
ATOM     22  C   LIG d   1       4.018  87.808 113.749  0.00  0.00     0.382 C 
ATOM     23  O   LIG d   1       4.476  88.554 112.850  0.00  0.00    -0.241 OA
ATOM     24  O   LIG d   1       3.979  88.216 114.925  0.00  0.00    -0.241 OA
ENDBRANCH   3  22
TORSDOF 7
ENDMDL
MODEL 6
REMARK VINA RESULT:      -5.5      2.966      4.313
REMARK  7 active torsions:
REMARK  status: ('A' for Active; 'I' for Inactive)
REMARK    1  A    between atoms: C_2  and  C_3 
REMARK    2  A    between atoms: C_3  and  O_6 
REMARK    3  A    between atoms: C_3  and  C_4 
REMARK    4  A    between atoms: C_7  and  O_6 
REMARK    5  A    between atoms: C_9  and  C_10 
REMARK    6  A    between atoms: N_15  and  C_14 
REMARK    7  A    between atoms: N_20  and  C_19 
REMARK       I    between atoms: C_22  and  N_20 
ROOT
ATOM      1  C   LIG d   1       2.798  83.412 111.016  0.00  0.00     0.161 C 
ATOM      2  C   LIG d   1       2.255  82.577 110.026  0.00  0.00     0.016 C 
ATOM      3  C   LIG d   1       1.547  81.387 110.313  0.00  0.00     0.038 C 
ATOM      4  C   LIG d   1       1.201  81.029 111.625  0.00  0.00     0.028 C 
ATOM      5  C   LIG d   1       2.161  81.576 112.675  0.00  0.00    -0.047 C 
ATOM      6  C   LIG d   1       2.335  83.096 112.454  0.00  0.00     0.091 C 
ENDROOT
BRANCH   1   7
ATOM      7  O   LIG d   1       2.528  84.791 110.694  0.00  0.00    -0.368 OA
BRANCH   7   8
ATOM      8  C   LIG d   1       1.203  85.275 111.026  0.00  0.00     0.119 C 
BRANCH   8   9
ATOM      9  C   LIG d   1       0.385  85.316 109.720  0.00  0.00     0.028 C 
ATOM     10  C   LIG d   1      -1.109  85.575 109.972  0.00  0.00     0.006 C 
ENDBRANCH   8   9
BRANCH   8  11
ATOM     11  C   LIG d   1       1.247  86.723 111.523  0.00  0.00     0.028 C 
ATOM     12  C   LIG d   1       2.590  87.088 112.175  0.00  0.00     0.006 C 
ENDBRANCH   8  11
ENDBRANCH   7   8
ENDBRANCH   1   7
BRANCH   6  13
ATOM     13  N   LIG d   1       3.324  83.695 113.387  0.00  0.00    -0.311 N 
ATOM     14  C   LIG d   1       2.998  84.201 114.575  0.00  0.00     0.210 C 
ATOM     15  C   LIG d   1       4.168  84.788 115.371  0.00  0.00     0.109 C 
ATOM     16  O   LIG d   1       1.857  84.189 115.060  0.00  0.00    -0.276 OA
ATOM     17  H   LIG d   1       4.279  83.718 113.087  0.00  0.00     0.149 HD
ENDBRANCH   6  13
BRANCH   5  18
ATOM     18  N   LIG d   1       1.607  81.245 114.002  0.00  0.00     0.381 N 
ATOM     19  H   LIG d   1       0.980  81.966 114.296  0.00  0.00    -0.090 HD
ATOM     20  H   LIG d   1       2.360  81.191 114.665  0.00  0.00    -0.090 HD
ATOM     21  H   LIG d   1       1.126  80.373 113.962  0.00  0.00    -0.090 HD
ENDBRANCH   5  18
BRANCH   3  22
ATOM     22  C   LIG d   1       1.211  80.521 109.284  0.00  0.00     0.382 C 
ATOM     23  O   LIG d   1       0.009  80.223 109.082  0.00  0.00    -0.241 OA
ATOM     24  O   LIG d   1       2.099  80.000 108.583  0.00  0.00    -0.241 OA
ENDBRANCH   3  22
TORSDOF 7
ENDMDL
MODEL 7
REMARK VINA RESULT:      -5.4      2.451      4.422
REMARK  7 active torsions:
REMARK  status: ('A' for Active; 'I' for Inactive)
REMARK    1  A    between atoms: C_2  and  C_3 
REMARK    2  A    between atoms: C_3  and  O_6 
REMARK    3  A    between atoms: C_3  and  C_4 
REMARK    4  A    between atoms: C_7  and  O_6 
REMARK    5  A    between atoms: C_9  and  C_10 
REMARK    6  A    between atoms: N_15  and  C_14 
REMARK    7  A    between atoms: N_20  and  C_19 
REMARK       I    between atoms: C_22  and  N_20 
ROOT
ATOM      1  C   LIG d   1       1.000  83.054 110.982  0.00  0.00     0.161 C 
ATOM      2  C   LIG d   1       1.377  83.318 109.655  0.00  0.00     0.016 C 
ATOM      3  C   LIG d   1       1.710  82.307 108.724  0.00  0.00     0.038 C 
ATOM      4  C   LIG d   1       1.542  80.945 109.016  0.00  0.00     0.028 C 
ATOM      5  C   LIG d   1       1.646  80.628 110.504  0.00  0.00    -0.047 C 
ATOM      6  C   LIG d   1       0.703  81.570 111.286  0.00  0.00     0.091 C 
ENDROOT
BRANCH   1   7
ATOM      7  O   LIG d   1      -0.128  83.875 111.342  0.00  0.00    -0.368 OA
BRANCH   7   8
ATOM      8  C   LIG d   1       0.168  85.056 112.127  0.00  0.00     0.119 C 
BRANCH   8   9
ATOM      9  C   LIG d   1      -0.365  86.275 111.348  0.00  0.00     0.028 C 
ATOM     10  C   LIG d   1      -1.224  85.869 110.139  0.00  0.00     0.006 C 
ENDBRANCH   8   9
BRANCH   8  11
ATOM     11  C   LIG d   1       1.678  85.280 112.248  0.00  0.00     0.028 C 
ATOM     12  C   LIG d   1       2.124  86.642 111.693  0.00  0.00     0.006 C 
ENDBRANCH   8  11
ENDBRANCH   7   8
ENDBRANCH   1   7
BRANCH   6  13
ATOM     13  N   LIG d   1       0.806  81.384 112.757  0.00  0.00    -0.311 N 
ATOM     14  C   LIG d   1       1.965  81.356 113.413  0.00  0.00     0.210 C 
ATOM     15  C   LIG d   1       1.848  81.133 114.924  0.00  0.00     0.109 C 
ATOM     16  O   LIG d   1       3.077  81.529 112.891  0.00  0.00    -0.276 OA
ATOM     17  H   LIG d   1      -0.049  81.267 113.263  0.00  0.00     0.149 HD
ENDBRANCH   6  13
BRANCH   5  18
ATOM     18  N   LIG d   1       1.314  79.201 110.680  0.00  0.00     0.381 N 
ATOM     19  H   LIG d   1       1.824  78.651 110.019  0.00  0.00    -0.090 HD
ATOM     20  H   LIG d   1       0.333  79.072 110.507  0.00  0.00    -0.090 HD
ATOM     21  H   LIG d   1       1.537  78.911 111.607  0.00  0.00    -0.090 HD
ENDBRANCH   5  18
BRANCH   3  22
ATOM     22  C   LIG d   1       2.257  82.655 107.498  0.00  0.00     0.382 C 
ATOM     23  O   LIG d   1       3.423  82.295 107.207  0.00  0.00    -0.241 OA
ATOM     24  O   LIG d   1       1.615  83.361 106.698  0.00  0.00    -0.241 OA
ENDBRANCH   3  22
TORSDOF 7
ENDMDL
MODEL 8
REMARK VINA RESULT:      -5.3      5.460      8.880
REMARK  7 active torsions:
REMARK  status: ('A' for Active; 'I' for Inactive)
REMARK    1  A    between atoms: C_2  and  C_3 
REMARK    2  A    between atoms: C_3  and  O_6 
REMARK    3  A    between atoms: C_3  and  C_4 
REMARK    4  A    between atoms: C_7  and  O_6 
REMARK    5  A    between atoms: C_9  and  C_10 
REMARK    6  A    between atoms: N_15  and  C_14 
REMARK    7  A    between atoms: N_20  and  C_19 
REMARK       I    between atoms: C_22  and  N_20 
ROOT
ATOM      1  C   LIG d   1      -2.378  75.928 114.428  0.00  0.00     0.161 C 
ATOM      2  C   LIG d   1      -2.563  76.921 113.451  0.00  0.00     0.016 C 
ATOM      3  C   LIG d   1      -1.548  77.333 112.558  0.00  0.00     0.038 C 
ATOM      4  C   LIG d   1      -0.315  76.669 112.480  0.00  0.00     0.028 C 
ATOM      5  C   LIG d   1       0.095  75.997 113.786  0.00  0.00    -0.047 C 
ATOM      6  C   LIG d   1      -1.074  75.116 114.284  0.00  0.00     0.091 C 
ENDROOT
BRANCH   1   7
ATOM      7  O   LIG d   1      -3.518  75.046 114.451  0.00  0.00    -0.368 OA
BRANCH   7   8
ATOM      8  C   LIG d   1      -4.598  75.425 115.338  0.00  0.00     0.119 C 
BRANCH   8   9
ATOM      9  C   LIG d   1      -4.833  74.251 116.309  0.00  0.00     0.028 C 
ATOM     10  C   LIG d   1      -5.396  73.008 115.602  0.00  0.00     0.006 C 
ENDBRANCH   8   9
BRANCH   8  11
ATOM     11  C   LIG d   1      -5.916  75.588 114.574  0.00  0.00     0.028 C 
ATOM     12  C   LIG d   1      -7.064  76.085 115.466  0.00  0.00     0.006 C 
ENDBRANCH   8  11
ENDBRANCH   7   8
ENDBRANCH   1   7
BRANCH   6  13
ATOM     13  N   LIG d   1      -0.788  74.487 115.601  0.00  0.00    -0.311 N 
ATOM     14  C   LIG d   1      -0.220  73.290 115.734  0.00  0.00     0.210 C 
ATOM     15  C   LIG d   1      -0.034  72.820 117.180  0.00  0.00     0.109 C 
ATOM     16  O   LIG d   1       0.177  72.587 114.792  0.00  0.00    -0.276 OA
ATOM     17  H   LIG d   1      -1.050  75.003 116.418  0.00  0.00     0.149 HD
ENDBRANCH   6  13
BRANCH   5  18
ATOM     18  N   LIG d   1       1.327  75.229 113.525  0.00  0.00     0.381 N 
ATOM     19  H   LIG d   1       1.138  74.497 112.869  0.00  0.00    -0.090 HD
ATOM     20  H   LIG d   1       1.637  74.810 114.384  0.00  0.00    -0.090 HD
ATOM     21  H   LIG d   1       2.034  75.832 113.166  0.00  0.00    -0.090 HD
ENDBRANCH   5  18
BRANCH   3  22
ATOM     22  C   LIG d   1      -1.748  78.446 111.756  0.00  0.00     0.382 C 
ATOM     23  O   LIG d   1      -1.355  78.440 110.565  0.00  0.00    -0.241 OA
ATOM     24  O   LIG d   1      -2.277  79.473 112.222  0.00  0.00    -0.241 OA
ENDBRANCH   3  22
TORSDOF 7
ENDMDL
MODEL 9
REMARK VINA RESULT:      -5.3      4.556      7.693
REMARK  7 active torsions:
REMARK  status: ('A' for Active; 'I' for Inactive)
REMARK    1  A    between atoms: C_2  and  C_3 
REMARK    2  A    between atoms: C_3  and  O_6 
REMARK    3  A    between atoms: C_3  and  C_4 
REMARK    4  A    between atoms: C_7  and  O_6 
REMARK    5  A    between atoms: C_9  and  C_10 
REMARK    6  A    between atoms: N_15  and  C_14 
REMARK    7  A    between atoms: N_20  and  C_19 
REMARK       I    between atoms: C_22  and  N_20 
ROOT
ATOM      1  C   LIG d   1      -2.787  76.993 112.907  0.00  0.00     0.161 C 
ATOM      2  C   LIG d   1      -2.576  78.317 112.486  0.00  0.00     0.016 C 
ATOM      3  C   LIG d   1      -2.471  79.409 113.377  0.00  0.00     0.038 C 
ATOM      4  C   LIG d   1      -2.419  79.230 114.767  0.00  0.00     0.028 C 
ATOM      5  C   LIG d   1      -3.134  77.970 115.242  0.00  0.00    -0.047 C 
ATOM      6  C   LIG d   1      -2.621  76.763 114.424  0.00  0.00     0.091 C 
ENDROOT
BRANCH   1   7
ATOM      7  O   LIG d   1      -1.927  76.103 112.168  0.00  0.00    -0.368 OA
BRANCH   7   8
ATOM      8  C   LIG d   1      -0.503  76.295 112.350  0.00  0.00     0.119 C 
BRANCH   8   9
ATOM      9  C   LIG d   1       0.111  76.545 110.959  0.00  0.00     0.028 C 
ATOM     10  C   LIG d   1       0.353  78.039 110.684  0.00  0.00     0.006 C 
ENDBRANCH   8   9
BRANCH   8  11
ATOM     11  C   LIG d   1       0.170  75.021 112.867  0.00  0.00     0.028 C 
ATOM     12  C   LIG d   1       1.232  74.473 111.900  0.00  0.00     0.006 C 
ENDBRANCH   8  11
ENDBRANCH   7   8
ENDBRANCH   1   7
BRANCH   6  13
ATOM     13  N   LIG d   1      -3.330  75.503 114.767  0.00  0.00    -0.311 N 
ATOM     14  C   LIG d   1      -4.625  75.301 114.527  0.00  0.00     0.210 C 
ATOM     15  C   LIG d   1      -5.162  73.939 114.978  0.00  0.00     0.109 C 
ATOM     16  O   LIG d   1      -5.372  76.108 113.954  0.00  0.00    -0.276 OA
ATOM     17  H   LIG d   1      -2.792  74.782 115.207  0.00  0.00     0.149 HD
ENDBRANCH   6  13
BRANCH   5  18
ATOM     18  N   LIG d   1      -2.884  77.834 116.690  0.00  0.00     0.381 N 
ATOM     19  H   LIG d   1      -2.237  77.089 116.854  0.00  0.00    -0.090 HD
ATOM     20  H   LIG d   1      -3.748  77.608 117.149  0.00  0.00    -0.090 HD
ATOM     21  H   LIG d   1      -2.519  78.687 117.054  0.00  0.00    -0.090 HD
ENDBRANCH   5  18
BRANCH   3  22
ATOM     22  C   LIG d   1      -2.457  80.703 112.879  0.00  0.00     0.382 C 
ATOM     23  O   LIG d   1      -3.528  81.349 112.782  0.00  0.00    -0.241 OA
ATOM     24  O   LIG d   1      -1.393  81.217 112.484  0.00  0.00    -0.241 OA
ENDBRANCH   3  22
TORSDOF 7
ENDMDL
