MODEL 1
REMARK VINA RESULT:      -6.4      0.000      0.000
REMARK  7 active torsions:
REMARK  status: ('A' for Active; 'I' for Inactive)
REMARK    1  A    between atoms: C_2  and  C_3 
REMARK    2  A    between atoms: C_3  and  O_6 
REMARK    3  A    between atoms: C_3  and  C_4 
REMARK    4  A    between atoms: C_7  and  O_6 
REMARK    5  A    between atoms: C_9  and  C_10 
REMARK    6  A    between atoms: N_15  and  C_14 
REMARK    7  A    between atoms: N_20  and  C_19 
REMARK       I    between atoms: C_22  and  N_20 
ROOT
ATOM      1  C   LIG d   1       0.305  83.516 110.738  0.00  0.00     0.161 C 
ATOM      2  C   LIG d   1       1.110  83.444 109.589  0.00  0.00     0.016 C 
ATOM      3  C   LIG d   1       1.513  82.226 108.995  0.00  0.00     0.038 C 
ATOM      4  C   LIG d   1       1.009  80.990 109.425  0.00  0.00     0.028 C 
ATOM      5  C   LIG d   1       0.595  80.982 110.893  0.00  0.00    -0.047 C 
ATOM      6  C   LIG d   1      -0.345  82.180 111.156  0.00  0.00     0.091 C 
ENDROOT
BRANCH   1   7
ATOM      7  O   LIG d   1      -0.703  84.531 110.567  0.00  0.00    -0.368 OA
BRANCH   7   8
ATOM      8  C   LIG d   1      -0.503  85.759 111.310  0.00  0.00     0.119 C 
BRANCH   8   9
ATOM      9  C   LIG d   1       0.089  86.798 110.338  0.00  0.00     0.028 C 
ATOM     10  C   LIG d   1       1.595  87.019 110.562  0.00  0.00     0.006 C 
ENDBRANCH   8   9
BRANCH   8  11
ATOM     11  C   LIG d   1       0.551  85.582 112.406  0.00  0.00     0.028 C 
ATOM     12  C   LIG d   1      -0.041  85.666 113.822  0.00  0.00     0.006 C 
ENDBRANCH   8  11
ENDBRANCH   7   8
ENDBRANCH   1   7
BRANCH   6  13
ATOM     13  N   LIG d   1      -0.730  82.295 112.587  0.00  0.00    -0.311 N 
ATOM     14  C   LIG d   1      -1.993  82.288 113.009  0.00  0.00     0.210 C 
ATOM     15  C   LIG d   1      -2.169  82.439 114.523  0.00  0.00     0.109 C 
ATOM     16  O   LIG d   1      -2.982  82.139 112.277  0.00  0.00    -0.276 OA
ATOM     17  H   LIG d   1       0.012  82.389 113.253  0.00  0.00     0.149 HD
ENDBRANCH   6  13
BRANCH   5  18
ATOM     18  N   LIG d   1      -0.037  79.678 111.170  0.00  0.00     0.381 N 
ATOM     19  H   LIG d   1      -0.939  79.820 111.581  0.00  0.00    -0.090 HD
ATOM     20  H   LIG d   1       0.532  79.174 111.827  0.00  0.00    -0.090 HD
ATOM     21  H   LIG d   1      -0.127  79.156 110.327  0.00  0.00    -0.090 HD
ENDBRANCH   5  18
BRANCH   3  22
ATOM     22  C   LIG d   1       2.461  82.235 107.983  0.00  0.00     0.382 C 
ATOM     23  O   LIG d   1       3.591  81.726 108.178  0.00  0.00    -0.241 OA
ATOM     24  O   LIG d   1       2.216  82.786 106.893  0.00  0.00    -0.241 OA
ENDBRANCH   3  22
TORSDOF 7
ENDMDL
MODEL 2
REMARK VINA RESULT:      -6.0      1.992      4.787
REMARK  7 active torsions:
REMARK  status: ('A' for Active; 'I' for Inactive)
REMARK    1  A    between atoms: C_2  and  C_3 
REMARK    2  A    between atoms: C_3  and  O_6 
REMARK    3  A    between atoms: C_3  and  C_4 
REMARK    4  A    between atoms: C_7  and  O_6 
REMARK    5  A    between atoms: C_9  and  C_10 
REMARK    6  A    between atoms: N_15  and  C_14 
REMARK    7  A    between atoms: N_20  and  C_19 
REMARK       I    between atoms: C_22  and  N_20 
ROOT
ATOM      1  C   LIG d   1       0.351  83.425 111.143  0.00  0.00     0.161 C 
ATOM      2  C   LIG d   1      -0.794  83.157 111.911  0.00  0.00     0.016 C 
ATOM      3  C   LIG d   1      -1.261  81.850 112.182  0.00  0.00     0.038 C 
ATOM      4  C   LIG d   1      -0.522  80.711 111.828  0.00  0.00     0.028 C 
ATOM      5  C   LIG d   1       0.377  80.925 110.615  0.00  0.00    -0.047 C 
ATOM      6  C   LIG d   1       1.231  82.194 110.842  0.00  0.00     0.091 C 
ENDROOT
BRANCH   1   7
ATOM      7  O   LIG d   1       1.133  84.457 111.776  0.00  0.00    -0.368 OA
BRANCH   7   8
ATOM      8  C   LIG d   1       1.165  85.738 111.100  0.00  0.00     0.119 C 
BRANCH   8   9
ATOM      9  C   LIG d   1       0.145  85.678 109.946  0.00  0.00     0.028 C 
ATOM     10  C   LIG d   1       0.798  85.907 108.573  0.00  0.00     0.006 C 
ENDBRANCH   8   9
BRANCH   8  11
ATOM     11  C   LIG d   1       2.521  85.981 110.430  0.00  0.00     0.028 C 
ATOM     12  C   LIG d   1       3.698  85.434 111.253  0.00  0.00     0.006 C 
ENDBRANCH   8  11
ENDBRANCH   7   8
ENDBRANCH   1   7
BRANCH   6  13
ATOM     13  N   LIG d   1       2.079  82.524 109.667  0.00  0.00    -0.311 N 
ATOM     14  C   LIG d   1       3.353  82.153 109.556  0.00  0.00     0.210 C 
ATOM     15  C   LIG d   1       4.051  82.614 108.272  0.00  0.00     0.109 C 
ATOM     16  O   LIG d   1       3.963  81.460 110.383  0.00  0.00    -0.276 OA
ATOM     17  H   LIG d   1       1.655  83.058 108.934  0.00  0.00     0.149 HD
ENDBRANCH   6  13
BRANCH   5  18
ATOM     18  N   LIG d   1       1.189  79.706 110.442  0.00  0.00     0.381 N 
ATOM     19  H   LIG d   1       1.985  79.907 109.871  0.00  0.00    -0.090 HD
ATOM     20  H   LIG d   1       0.634  79.010 109.975  0.00  0.00    -0.090 HD
ATOM     21  H   LIG d   1       1.485  79.364 111.329  0.00  0.00    -0.090 HD
ENDBRANCH   5  18
BRANCH   3  22
ATOM     22  C   LIG d   1      -2.499  81.672 112.781  0.00  0.00     0.382 C 
ATOM     23  O   LIG d   1      -3.086  82.648 113.307  0.00  0.00    -0.241 OA
ATOM     24  O   LIG d   1      -3.016  80.541 112.839  0.00  0.00    -0.241 OA
ENDBRANCH   3  22
TORSDOF 7
ENDMDL
MODEL 3
REMARK VINA RESULT:      -6.0      2.701      5.392
REMARK  7 active torsions:
REMARK  status: ('A' for Active; 'I' for Inactive)
REMARK    1  A    between atoms: C_2  and  C_3 
REMARK    2  A    between atoms: C_3  and  O_6 
REMARK    3  A    between atoms: C_3  and  C_4 
REMARK    4  A    between atoms: C_7  and  O_6 
REMARK    5  A    between atoms: C_9  and  C_10 
REMARK    6  A    between atoms: N_15  and  C_14 
REMARK    7  A    between atoms: N_20  and  C_19 
REMARK       I    between atoms: C_22  and  N_20 
ROOT
ATOM      1  C   LIG d   1       1.531  84.236 111.779  0.00  0.00     0.161 C 
ATOM      2  C   LIG d   1       0.460  83.333 111.675  0.00  0.00     0.016 C 
ATOM      3  C   LIG d   1      -0.694  83.396 112.490  0.00  0.00     0.038 C 
ATOM      4  C   LIG d   1      -0.922  84.465 113.369  0.00  0.00     0.028 C 
ATOM      5  C   LIG d   1       0.359  85.123 113.870  0.00  0.00    -0.047 C 
ATOM      6  C   LIG d   1       1.250  85.474 112.656  0.00  0.00     0.091 C 
ENDROOT
BRANCH   1   7
ATOM      7  O   LIG d   1       1.959  84.640 110.464  0.00  0.00    -0.368 OA
BRANCH   7   8
ATOM      8  C   LIG d   1       0.942  84.635 109.433  0.00  0.00     0.119 C 
BRANCH   8   9
ATOM      9  C   LIG d   1       1.595  84.110 108.140  0.00  0.00     0.028 C 
ATOM     10  C   LIG d   1       2.420  82.833 108.376  0.00  0.00     0.006 C 
ENDBRANCH   8   9
BRANCH   8  11
ATOM     11  C   LIG d   1       0.476  86.056 109.103  0.00  0.00     0.028 C 
ATOM     12  C   LIG d   1      -0.837  86.432 109.809  0.00  0.00     0.006 C 
ENDBRANCH   8  11
ENDBRANCH   7   8
ENDBRANCH   1   7
BRANCH   6  13
ATOM     13  N   LIG d   1       2.561  86.045 113.061  0.00  0.00    -0.311 N 
ATOM     14  C   LIG d   1       3.053  87.177 112.561  0.00  0.00     0.210 C 
ATOM     15  C   LIG d   1       4.430  87.577 113.101  0.00  0.00     0.109 C 
ATOM     16  O   LIG d   1       2.466  87.905 111.747  0.00  0.00    -0.276 OA
ATOM     17  H   LIG d   1       3.090  85.535 113.741  0.00  0.00     0.149 HD
ENDBRANCH   6  13
BRANCH   5  18
ATOM     18  N   LIG d   1      -0.027  86.304 114.664  0.00  0.00     0.381 N 
ATOM     19  H   LIG d   1      -0.976  86.214 114.966  0.00  0.00    -0.090 HD
ATOM     20  H   LIG d   1       0.044  87.123 114.085  0.00  0.00    -0.090 HD
ATOM     21  H   LIG d   1       0.573  86.395 115.454  0.00  0.00    -0.090 HD
ENDBRANCH   5  18
BRANCH   3  22
ATOM     22  C   LIG d   1      -1.615  82.360 112.460  0.00  0.00     0.382 C 
ATOM     23  O   LIG d   1      -1.322  81.278 111.896  0.00  0.00    -0.241 OA
ATOM     24  O   LIG d   1      -2.750  82.510 112.949  0.00  0.00    -0.241 OA
ENDBRANCH   3  22
TORSDOF 7
ENDMDL
MODEL 4
REMARK VINA RESULT:      -5.7      2.528      4.013
REMARK  7 active torsions:
REMARK  status: ('A' for Active; 'I' for Inactive)
REMARK    1  A    between atoms: C_2  and  C_3 
REMARK    2  A    between atoms: C_3  and  O_6 
REMARK    3  A    between atoms: C_3  and  C_4 
REMARK    4  A    between atoms: C_7  and  O_6 
REMARK    5  A    between atoms: C_9  and  C_10 
REMARK    6  A    between atoms: N_15  and  C_14 
REMARK    7  A    between atoms: N_20  and  C_19 
REMARK       I    between atoms: C_22  and  N_20 
ROOT
ATOM      1  C   LIG d   1      -0.362  84.730 113.164  0.00  0.00     0.161 C 
ATOM      2  C   LIG d   1       0.341  85.806 112.597  0.00  0.00     0.016 C 
ATOM      3  C   LIG d   1       0.858  85.791 111.281  0.00  0.00     0.038 C 
ATOM      4  C   LIG d   1       0.575  84.748 110.386  0.00  0.00     0.028 C 
ATOM      5  C   LIG d   1       0.298  83.416 111.075  0.00  0.00    -0.047 C 
ATOM      6  C   LIG d   1      -0.776  83.630 112.166  0.00  0.00     0.091 C 
ENDROOT
BRANCH   1   7
ATOM      7  O   LIG d   1      -1.515  85.221 113.876  0.00  0.00    -0.368 OA
BRANCH   7   8
ATOM      8  C   LIG d   1      -1.606  84.851 115.274  0.00  0.00     0.119 C 
BRANCH   8   9
ATOM      9  C   LIG d   1      -1.928  86.130 116.071  0.00  0.00     0.028 C 
ATOM     10  C   LIG d   1      -0.668  86.791 116.654  0.00  0.00     0.006 C 
ENDBRANCH   8   9
BRANCH   8  11
ATOM     11  C   LIG d   1      -0.256  84.367 115.812  0.00  0.00     0.028 C 
ATOM     12  C   LIG d   1      -0.343  82.988 116.485  0.00  0.00     0.006 C 
ENDBRANCH   8  11
ENDBRANCH   7   8
ENDBRANCH   1   7
BRANCH   6  13
ATOM     13  N   LIG d   1      -1.046  82.393 112.945  0.00  0.00    -0.311 N 
ATOM     14  C   LIG d   1      -2.233  81.790 112.975  0.00  0.00     0.210 C 
ATOM     15  C   LIG d   1      -2.300  80.539 113.858  0.00  0.00     0.109 C 
ATOM     16  O   LIG d   1      -3.227  82.153 112.330  0.00  0.00    -0.276 OA
ATOM     17  H   LIG d   1      -0.285  82.012 113.474  0.00  0.00     0.149 HD
ENDBRANCH   6  13
BRANCH   5  18
ATOM     18  N   LIG d   1      -0.116  82.455 110.035  0.00  0.00     0.381 N 
ATOM     19  H   LIG d   1      -0.895  82.822 109.526  0.00  0.00    -0.090 HD
ATOM     20  H   LIG d   1      -0.404  81.600 110.479  0.00  0.00    -0.090 HD
ATOM     21  H   LIG d   1       0.642  82.276 109.414  0.00  0.00    -0.090 HD
ENDBRANCH   5  18
BRANCH   3  22
ATOM     22  C   LIG d   1       1.702  86.808 110.862  0.00  0.00     0.382 C 
ATOM     23  O   LIG d   1       1.990  87.746 111.645  0.00  0.00    -0.241 OA
ATOM     24  O   LIG d   1       2.144  86.823 109.698  0.00  0.00    -0.241 OA
ENDBRANCH   3  22
TORSDOF 7
ENDMDL
MODEL 5
REMARK VINA RESULT:      -5.4      2.282      5.095
REMARK  7 active torsions:
REMARK  status: ('A' for Active; 'I' for Inactive)
REMARK    1  A    between atoms: C_2  and  C_3 
REMARK    2  A    between atoms: C_3  and  O_6 
REMARK    3  A    between atoms: C_3  and  C_4 
REMARK    4  A    between atoms: C_7  and  O_6 
REMARK    5  A    between atoms: C_9  and  C_10 
REMARK    6  A    between atoms: N_15  and  C_14 
REMARK    7  A    between atoms: N_20  and  C_19 
REMARK       I    between atoms: C_22  and  N_20 
ROOT
ATOM      1  C   LIG d   1       0.720  83.526 110.673  0.00  0.00     0.161 C 
ATOM      2  C   LIG d   1       0.334  84.541 111.563  0.00  0.00     0.016 C 
ATOM      3  C   LIG d   1       0.222  84.352 112.960  0.00  0.00     0.038 C 
ATOM      4  C   LIG d   1       0.639  83.166 113.582  0.00  0.00     0.028 C 
ATOM      5  C   LIG d   1       0.558  81.944 112.674  0.00  0.00    -0.047 C 
ATOM      6  C   LIG d   1       1.285  82.257 111.346  0.00  0.00     0.091 C 
ENDROOT
BRANCH   1   7
ATOM      7  O   LIG d   1       1.663  84.047 109.716  0.00  0.00    -0.368 OA
BRANCH   7   8
ATOM      8  C   LIG d   1       3.027  84.197 110.181  0.00  0.00     0.119 C 
BRANCH   8   9
ATOM      9  C   LIG d   1       3.388  85.692 110.082  0.00  0.00     0.028 C 
ATOM     10  C   LIG d   1       4.224  86.175 111.279  0.00  0.00     0.006 C 
ENDBRANCH   8   9
BRANCH   8  11
ATOM     11  C   LIG d   1       4.013  83.479 109.256  0.00  0.00     0.028 C 
ATOM     12  C   LIG d   1       3.344  82.917 107.992  0.00  0.00     0.006 C 
ENDBRANCH   8  11
ENDBRANCH   7   8
ENDBRANCH   1   7
BRANCH   6  13
ATOM     13  N   LIG d   1       1.182  81.144 110.367  0.00  0.00    -0.311 N 
ATOM     14  C   LIG d   1       2.155  80.259 110.157  0.00  0.00     0.210 C 
ATOM     15  C   LIG d   1       1.850  79.204 109.089  0.00  0.00     0.109 C 
ATOM     16  O   LIG d   1       3.228  80.228 110.777  0.00  0.00    -0.276 OA
ATOM     17  H   LIG d   1       0.332  81.076 109.842  0.00  0.00     0.149 HD
ENDBRANCH   6  13
BRANCH   5  18
ATOM     18  N   LIG d   1       1.150  80.806 113.403  0.00  0.00     0.381 N 
ATOM     19  H   LIG d   1       2.132  80.954 113.521  0.00  0.00    -0.090 HD
ATOM     20  H   LIG d   1       1.020  79.970 112.861  0.00  0.00    -0.090 HD
ATOM     21  H   LIG d   1       0.712  80.706 114.292  0.00  0.00    -0.090 HD
ENDBRANCH   5  18
BRANCH   3  22
ATOM     22  C   LIG d   1      -0.349  85.342 113.744  0.00  0.00     0.382 C 
ATOM     23  O   LIG d   1      -1.550  85.249 114.096  0.00  0.00    -0.241 OA
ATOM     24  O   LIG d   1       0.309  86.349 114.068  0.00  0.00    -0.241 OA
ENDBRANCH   3  22
TORSDOF 7
ENDMDL
MODEL 6
REMARK VINA RESULT:      -5.1      3.481      5.558
REMARK  7 active torsions:
REMARK  status: ('A' for Active; 'I' for Inactive)
REMARK    1  A    between atoms: C_2  and  C_3 
REMARK    2  A    between atoms: C_3  and  O_6 
REMARK    3  A    between atoms: C_3  and  C_4 
REMARK    4  A    between atoms: C_7  and  O_6 
REMARK    5  A    between atoms: C_9  and  C_10 
REMARK    6  A    between atoms: N_15  and  C_14 
REMARK    7  A    between atoms: N_20  and  C_19 
REMARK       I    between atoms: C_22  and  N_20 
ROOT
ATOM      1  C   LIG d   1       2.937  84.249 112.867  0.00  0.00     0.161 C 
ATOM      2  C   LIG d   1       3.036  85.622 113.151  0.00  0.00     0.016 C 
ATOM      3  C   LIG d   1       3.533  86.573 112.230  0.00  0.00     0.038 C 
ATOM      4  C   LIG d   1       3.825  86.235 110.900  0.00  0.00     0.028 C 
ATOM      5  C   LIG d   1       4.218  84.773 110.719  0.00  0.00    -0.047 C 
ATOM      6  C   LIG d   1       3.147  83.879 111.384  0.00  0.00     0.091 C 
ENDROOT
BRANCH   1   7
ATOM      7  O   LIG d   1       1.671  83.744 113.336  0.00  0.00    -0.368 OA
BRANCH   7   8
ATOM      8  C   LIG d   1       0.611  84.720 113.484  0.00  0.00     0.119 C 
BRANCH   8   9
ATOM      9  C   LIG d   1      -0.220  84.316 114.718  0.00  0.00     0.028 C 
ATOM     10  C   LIG d   1      -1.223  85.406 115.131  0.00  0.00     0.006 C 
ENDBRANCH   8   9
BRANCH   8  11
ATOM     11  C   LIG d   1      -0.364  84.667 112.304  0.00  0.00     0.028 C 
ATOM     12  C   LIG d   1      -0.342  85.949 111.456  0.00  0.00     0.006 C 
ENDBRANCH   8  11
ENDBRANCH   7   8
ENDBRANCH   1   7
BRANCH   6  13
ATOM     13  N   LIG d   1       3.497  82.436 111.326  0.00  0.00    -0.311 N 
ATOM     14  C   LIG d   1       3.112  81.627 110.340  0.00  0.00     0.210 C 
ATOM     15  C   LIG d   1       3.565  80.171 110.485  0.00  0.00     0.109 C 
ATOM     16  O   LIG d   1       2.467  81.984 109.343  0.00  0.00    -0.276 OA
ATOM     17  H   LIG d   1       4.045  82.069 112.079  0.00  0.00     0.149 HD
ENDBRANCH   6  13
BRANCH   5  18
ATOM     18  N   LIG d   1       4.361  84.525 109.272  0.00  0.00     0.381 N 
ATOM     19  H   LIG d   1       4.115  85.350 108.761  0.00  0.00    -0.090 HD
ATOM     20  H   LIG d   1       3.731  83.790 109.004  0.00  0.00    -0.090 HD
ATOM     21  H   LIG d   1       5.298  84.263 109.061  0.00  0.00    -0.090 HD
ENDBRANCH   5  18
BRANCH   3  22
ATOM     22  C   LIG d   1       3.780  87.871 112.649  0.00  0.00     0.382 C 
ATOM     23  O   LIG d   1       4.912  88.382 112.473  0.00  0.00    -0.241 OA
ATOM     24  O   LIG d   1       2.899  88.522 113.241  0.00  0.00    -0.241 OA
ENDBRANCH   3  22
TORSDOF 7
ENDMDL
MODEL 7
REMARK VINA RESULT:      -5.1      2.820      4.928
REMARK  7 active torsions:
REMARK  status: ('A' for Active; 'I' for Inactive)
REMARK    1  A    between atoms: C_2  and  C_3 
REMARK    2  A    between atoms: C_3  and  O_6 
REMARK    3  A    between atoms: C_3  and  C_4 
REMARK    4  A    between atoms: C_7  and  O_6 
REMARK    5  A    between atoms: C_9  and  C_10 
REMARK    6  A    between atoms: N_15  and  C_14 
REMARK    7  A    between atoms: N_20  and  C_19 
REMARK       I    between atoms: C_22  and  N_20 
ROOT
ATOM      1  C   LIG d   1       0.873  85.159 111.591  0.00  0.00     0.161 C 
ATOM      2  C   LIG d   1       1.868  86.146 111.497  0.00  0.00     0.016 C 
ATOM      3  C   LIG d   1       2.521  86.702 112.621  0.00  0.00     0.038 C 
ATOM      4  C   LIG d   1       2.328  86.196 113.916  0.00  0.00     0.028 C 
ATOM      5  C   LIG d   1       0.963  85.547 114.115  0.00  0.00    -0.047 C 
ATOM      6  C   LIG d   1       0.728  84.517 112.986  0.00  0.00     0.091 C 
ENDROOT
BRANCH   1   7
ATOM      7  O   LIG d   1       1.095  84.144 110.593  0.00  0.00    -0.368 OA
BRANCH   7   8
ATOM      8  C   LIG d   1       2.199  84.376 109.683  0.00  0.00     0.119 C 
BRANCH   8   9
ATOM      9  C   LIG d   1       1.648  84.261 108.248  0.00  0.00     0.028 C 
ATOM     10  C   LIG d   1       2.073  82.954 107.559  0.00  0.00     0.006 C 
ENDBRANCH   8   9
BRANCH   8  11
ATOM     11  C   LIG d   1       3.258  83.276 109.799  0.00  0.00     0.028 C 
ATOM     12  C   LIG d   1       4.373  83.625 110.797  0.00  0.00     0.006 C 
ENDBRANCH   8  11
ENDBRANCH   7   8
ENDBRANCH   1   7
BRANCH   6  13
ATOM     13  N   LIG d   1      -0.620  83.895 113.058  0.00  0.00    -0.311 N 
ATOM     14  C   LIG d   1      -0.819  82.579 113.105  0.00  0.00     0.210 C 
ATOM     15  C   LIG d   1      -2.289  82.149 113.155  0.00  0.00     0.109 C 
ATOM     16  O   LIG d   1       0.082  81.728 113.143  0.00  0.00    -0.276 OA
ATOM     17  H   LIG d   1      -1.408  84.513 113.063  0.00  0.00     0.149 HD
ENDBRANCH   6  13
BRANCH   5  18
ATOM     18  N   LIG d   1       0.949  84.943 115.461  0.00  0.00     0.381 N 
ATOM     19  H   LIG d   1       1.037  83.949 115.387  0.00  0.00    -0.090 HD
ATOM     20  H   LIG d   1       0.069  85.149 115.900  0.00  0.00    -0.090 HD
ATOM     21  H   LIG d   1       1.696  85.311 116.007  0.00  0.00    -0.090 HD
ENDBRANCH   5  18
BRANCH   3  22
ATOM     22  C   LIG d   1       3.349  87.802 112.461  0.00  0.00     0.382 C 
ATOM     23  O   LIG d   1       4.512  87.652 112.015  0.00  0.00    -0.241 OA
ATOM     24  O   LIG d   1       2.963  88.937 112.798  0.00  0.00    -0.241 OA
ENDBRANCH   3  22
TORSDOF 7
ENDMDL
MODEL 8
REMARK VINA RESULT:      -4.7      2.528      5.529
REMARK  7 active torsions:
REMARK  status: ('A' for Active; 'I' for Inactive)
REMARK    1  A    between atoms: C_2  and  C_3 
REMARK    2  A    between atoms: C_3  and  O_6 
REMARK    3  A    between atoms: C_3  and  C_4 
REMARK    4  A    between atoms: C_7  and  O_6 
REMARK    5  A    between atoms: C_9  and  C_10 
REMARK    6  A    between atoms: N_15  and  C_14 
REMARK    7  A    between atoms: N_20  and  C_19 
REMARK       I    between atoms: C_22  and  N_20 
ROOT
ATOM      1  C   LIG d   1      -0.255  81.129 112.189  0.00  0.00     0.161 C 
ATOM      2  C   LIG d   1      -0.772  79.829 112.319  0.00  0.00     0.016 C 
ATOM      3  C   LIG d   1      -1.849  79.502 113.175  0.00  0.00     0.038 C 
ATOM      4  C   LIG d   1      -2.584  80.486 113.851  0.00  0.00     0.028 C 
ATOM      5  C   LIG d   1      -1.781  81.749 114.143  0.00  0.00    -0.047 C 
ATOM      6  C   LIG d   1      -1.116  82.235 112.834  0.00  0.00     0.091 C 
ENDROOT
BRANCH   1   7
ATOM      7  O   LIG d   1      -0.020  81.425 110.798  0.00  0.00    -0.368 OA
BRANCH   7   8
ATOM      8  C   LIG d   1       1.351  81.719 110.432  0.00  0.00     0.119 C 
BRANCH   8   9
ATOM      9  C   LIG d   1       1.658  80.950 109.132  0.00  0.00     0.028 C 
ATOM     10  C   LIG d   1       1.788  79.435 109.362  0.00  0.00     0.006 C 
ENDBRANCH   8   9
BRANCH   8  11
ATOM     11  C   LIG d   1       2.335  81.169 111.470  0.00  0.00     0.028 C 
ATOM     12  C   LIG d   1       3.445  82.171 111.827  0.00  0.00     0.006 C 
ENDBRANCH   8  11
ENDBRANCH   7   8
ENDBRANCH   1   7
BRANCH   6  13
ATOM     13  N   LIG d   1      -0.243  83.418 113.048  0.00  0.00    -0.311 N 
ATOM     14  C   LIG d   1      -0.222  84.470 112.231  0.00  0.00     0.210 C 
ATOM     15  C   LIG d   1       0.767  85.573 112.624  0.00  0.00     0.109 C 
ATOM     16  O   LIG d   1      -0.950  84.609 111.238  0.00  0.00    -0.276 OA
ATOM     17  H   LIG d   1       0.359  83.403 113.848  0.00  0.00     0.149 HD
ENDBRANCH   6  13
BRANCH   5  18
ATOM     18  N   LIG d   1      -2.705  82.741 114.725  0.00  0.00     0.381 N 
ATOM     19  H   LIG d   1      -2.979  83.400 114.024  0.00  0.00    -0.090 HD
ATOM     20  H   LIG d   1      -2.229  83.238 115.457  0.00  0.00    -0.090 HD
ATOM     21  H   LIG d   1      -3.509  82.282 115.093  0.00  0.00    -0.090 HD
ENDBRANCH   5  18
BRANCH   3  22
ATOM     22  C   LIG d   1      -2.174  78.171 113.392  0.00  0.00     0.382 C 
ATOM     23  O   LIG d   1      -1.280  77.292 113.346  0.00  0.00    -0.241 OA
ATOM     24  O   LIG d   1      -3.356  77.834 113.590  0.00  0.00    -0.241 OA
ENDBRANCH   3  22
TORSDOF 7
ENDMDL
MODEL 9
REMARK VINA RESULT:      -4.6      3.587      5.436
REMARK  7 active torsions:
REMARK  status: ('A' for Active; 'I' for Inactive)
REMARK    1  A    between atoms: C_2  and  C_3 
REMARK    2  A    between atoms: C_3  and  O_6 
REMARK    3  A    between atoms: C_3  and  C_4 
REMARK    4  A    between atoms: C_7  and  O_6 
REMARK    5  A    between atoms: C_9  and  C_10 
REMARK    6  A    between atoms: N_15  and  C_14 
REMARK    7  A    between atoms: N_20  and  C_19 
REMARK       I    between atoms: C_22  and  N_20 
ROOT
ATOM      1  C   LIG d   1       2.061  85.637 113.012  0.00  0.00     0.161 C 
ATOM      2  C   LIG d   1       2.872  86.727 113.366  0.00  0.00     0.016 C 
ATOM      3  C   LIG d   1       3.977  87.157 112.596  0.00  0.00     0.038 C 
ATOM      4  C   LIG d   1       4.256  86.615 111.332  0.00  0.00     0.028 C 
ATOM      5  C   LIG d   1       3.770  85.179 111.169  0.00  0.00    -0.047 C 
ATOM      6  C   LIG d   1       2.282  85.103 111.582  0.00  0.00     0.091 C 
ENDROOT
BRANCH   1   7
ATOM      7  O   LIG d   1       0.674  85.975 113.212  0.00  0.00    -0.368 OA
BRANCH   7   8
ATOM      8  C   LIG d   1      -0.066  85.121 114.119  0.00  0.00     0.119 C 
BRANCH   8   9
ATOM      9  C   LIG d   1      -0.791  86.034 115.127  0.00  0.00     0.028 C 
ATOM     10  C   LIG d   1       0.188  86.828 116.009  0.00  0.00     0.006 C 
ENDBRANCH   8   9
BRANCH   8  11
ATOM     11  C   LIG d   1       0.875  84.254 114.961  0.00  0.00     0.028 C 
ATOM     12  C   LIG d   1       0.521  82.760 114.901  0.00  0.00     0.006 C 
ENDBRANCH   8  11
ENDBRANCH   7   8
ENDBRANCH   1   7
BRANCH   6  13
ATOM     13  N   LIG d   1       1.750  83.716 111.532  0.00  0.00    -0.311 N 
ATOM     14  C   LIG d   1       0.581  83.399 110.977  0.00  0.00     0.210 C 
ATOM     15  C   LIG d   1       0.212  81.914 111.051  0.00  0.00     0.109 C 
ATOM     16  O   LIG d   1      -0.170  84.201 110.403  0.00  0.00    -0.276 OA
ATOM     17  H   LIG d   1       2.310  82.998 111.947  0.00  0.00     0.149 HD
ENDBRANCH   6  13
BRANCH   5  18
ATOM     18  N   LIG d   1       4.001  84.787 109.766  0.00  0.00     0.381 N 
ATOM     19  H   LIG d   1       3.869  85.577 109.167  0.00  0.00    -0.090 HD
ATOM     20  H   LIG d   1       3.332  84.082 109.510  0.00  0.00    -0.090 HD
ATOM     21  H   LIG d   1       4.926  84.432 109.659  0.00  0.00    -0.090 HD
ENDBRANCH   5  18
BRANCH   3  22
ATOM     22  C   LIG d   1       4.841  88.114 113.107  0.00  0.00     0.382 C 
ATOM     23  O   LIG d   1       5.666  87.801 113.999  0.00  0.00    -0.241 OA
ATOM     24  O   LIG d   1       4.776  89.296 112.720  0.00  0.00    -0.241 OA
ENDBRANCH   3  22
TORSDOF 7
ENDMDL
