MODEL 1
REMARK VINA RESULT:      -6.6      0.000      0.000
REMARK  7 active torsions:
REMARK  status: ('A' for Active; 'I' for Inactive)
REMARK    1  A    between atoms: C_2  and  C_3 
REMARK    2  A    between atoms: C_3  and  O_6 
REMARK    3  A    between atoms: C_3  and  C_4 
REMARK    4  A    between atoms: C_7  and  O_6 
REMARK    5  A    between atoms: C_9  and  C_10 
REMARK    6  A    between atoms: N_15  and  C_14 
REMARK    7  A    between atoms: N_20  and  C_19 
REMARK       I    between atoms: C_22  and  N_20 
ROOT
ATOM      1  C   LIG d   1       0.497  82.966 110.944  0.00  0.00     0.161 C 
ATOM      2  C   LIG d   1      -0.585  82.742 111.811  0.00  0.00     0.016 C 
ATOM      3  C   LIG d   1      -1.104  81.456 112.092  0.00  0.00     0.038 C 
ATOM      4  C   LIG d   1      -0.473  80.288 111.640  0.00  0.00     0.028 C 
ATOM      5  C   LIG d   1       0.321  80.486 110.353  0.00  0.00    -0.047 C 
ATOM      6  C   LIG d   1       1.268  81.695 110.529  0.00  0.00     0.091 C 
ENDROOT
BRANCH   1   7
ATOM      7  O   LIG d   1       1.397  83.930 111.526  0.00  0.00    -0.368 OA
BRANCH   7   8
ATOM      8  C   LIG d   1       1.416  85.239 110.907  0.00  0.00     0.119 C 
BRANCH   8   9
ATOM      9  C   LIG d   1       0.395  85.221 109.753  0.00  0.00     0.028 C 
ATOM     10  C   LIG d   1       1.036  85.553 108.396  0.00  0.00     0.006 C 
ENDBRANCH   8   9
BRANCH   8  11
ATOM     11  C   LIG d   1       2.768  85.524 110.246  0.00  0.00     0.028 C 
ATOM     12  C   LIG d   1       3.959  85.080 111.111  0.00  0.00     0.006 C 
ENDBRANCH   8  11
ENDBRANCH   7   8
ENDBRANCH   1   7
BRANCH   6  13
ATOM     13  N   LIG d   1       2.021  82.011 109.288  0.00  0.00    -0.311 N 
ATOM     14  C   LIG d   1       3.349  81.962 109.203  0.00  0.00     0.210 C 
ATOM     15  C   LIG d   1       3.925  82.345 107.836  0.00  0.00     0.109 C 
ATOM     16  O   LIG d   1       4.104  81.606 110.121  0.00  0.00    -0.276 OA
ATOM     17  H   LIG d   1       1.486  82.279 108.485  0.00  0.00     0.149 HD
ENDBRANCH   6  13
BRANCH   5  18
ATOM     18  N   LIG d   1       1.036  79.227 110.072  0.00  0.00     0.381 N 
ATOM     19  H   LIG d   1       1.400  79.246 109.140  0.00  0.00    -0.090 HD
ATOM     20  H   LIG d   1       0.388  78.463 110.142  0.00  0.00    -0.090 HD
ATOM     21  H   LIG d   1       1.779  79.104 110.724  0.00  0.00    -0.090 HD
ENDBRANCH   5  18
BRANCH   3  22
ATOM     22  C   LIG d   1      -2.289  81.334 112.801  0.00  0.00     0.382 C 
ATOM     23  O   LIG d   1      -2.892  82.360 113.196  0.00  0.00    -0.241 OA
ATOM     24  O   LIG d   1      -2.739  80.208 113.088  0.00  0.00    -0.241 OA
ENDBRANCH   3  22
TORSDOF 7
ENDMDL
MODEL 2
REMARK VINA RESULT:      -6.5      2.700      4.340
REMARK  7 active torsions:
REMARK  status: ('A' for Active; 'I' for Inactive)
REMARK    1  A    between atoms: C_2  and  C_3 
REMARK    2  A    between atoms: C_3  and  O_6 
REMARK    3  A    between atoms: C_3  and  C_4 
REMARK    4  A    between atoms: C_7  and  O_6 
REMARK    5  A    between atoms: C_9  and  C_10 
REMARK    6  A    between atoms: N_15  and  C_14 
REMARK    7  A    between atoms: N_20  and  C_19 
REMARK       I    between atoms: C_22  and  N_20 
ROOT
ATOM      1  C   LIG d   1       2.050  84.008 111.619  0.00  0.00     0.161 C 
ATOM      2  C   LIG d   1       1.020  83.052 111.615  0.00  0.00     0.016 C 
ATOM      3  C   LIG d   1      -0.117  83.131 112.451  0.00  0.00     0.038 C 
ATOM      4  C   LIG d   1      -0.377  84.258 113.245  0.00  0.00     0.028 C 
ATOM      5  C   LIG d   1       0.883  85.011 113.658  0.00  0.00    -0.047 C 
ATOM      6  C   LIG d   1       1.730  85.300 112.398  0.00  0.00     0.091 C 
ENDROOT
BRANCH   1   7
ATOM      7  O   LIG d   1       2.432  84.321 110.264  0.00  0.00    -0.368 OA
BRANCH   7   8
ATOM      8  C   LIG d   1       1.383  84.226 109.269  0.00  0.00     0.119 C 
BRANCH   8   9
ATOM      9  C   LIG d   1       2.016  83.660 107.983  0.00  0.00     0.028 C 
ATOM     10  C   LIG d   1       3.169  82.686 108.276  0.00  0.00     0.006 C 
ENDBRANCH   8   9
BRANCH   8  11
ATOM     11  C   LIG d   1       0.853  85.611 108.885  0.00  0.00     0.028 C 
ATOM     12  C   LIG d   1      -0.425  85.992 109.649  0.00  0.00     0.006 C 
ENDBRANCH   8  11
ENDBRANCH   7   8
ENDBRANCH   1   7
BRANCH   6  13
ATOM     13  N   LIG d   1       3.021  85.961 112.723  0.00  0.00    -0.311 N 
ATOM     14  C   LIG d   1       3.360  87.169 112.276  0.00  0.00     0.210 C 
ATOM     15  C   LIG d   1       4.745  87.656 112.713  0.00  0.00     0.109 C 
ATOM     16  O   LIG d   1       2.631  87.897 111.585  0.00  0.00    -0.276 OA
ATOM     17  H   LIG d   1       3.660  85.454 113.304  0.00  0.00     0.149 HD
ENDBRANCH   6  13
BRANCH   5  18
ATOM     18  N   LIG d   1       0.459  86.235 114.364  0.00  0.00     0.381 N 
ATOM     19  H   LIG d   1       1.244  86.843 114.488  0.00  0.00    -0.090 HD
ATOM     20  H   LIG d   1       0.108  85.983 115.271  0.00  0.00    -0.090 HD
ATOM     21  H   LIG d   1      -0.251  86.700 113.842  0.00  0.00    -0.090 HD
ENDBRANCH   5  18
BRANCH   3  22
ATOM     22  C   LIG d   1      -0.990  82.056 112.527  0.00  0.00     0.382 C 
ATOM     23  O   LIG d   1      -0.574  80.938 112.915  0.00  0.00    -0.241 OA
ATOM     24  O   LIG d   1      -2.177  82.179 112.170  0.00  0.00    -0.241 OA
ENDBRANCH   3  22
TORSDOF 7
ENDMDL
MODEL 3
REMARK VINA RESULT:      -6.0      2.335      5.284
REMARK  7 active torsions:
REMARK  status: ('A' for Active; 'I' for Inactive)
REMARK    1  A    between atoms: C_2  and  C_3 
REMARK    2  A    between atoms: C_3  and  O_6 
REMARK    3  A    between atoms: C_3  and  C_4 
REMARK    4  A    between atoms: C_7  and  O_6 
REMARK    5  A    between atoms: C_9  and  C_10 
REMARK    6  A    between atoms: N_15  and  C_14 
REMARK    7  A    between atoms: N_20  and  C_19 
REMARK       I    between atoms: C_22  and  N_20 
ROOT
ATOM      1  C   LIG d   1       3.053  83.160 111.486  0.00  0.00     0.161 C 
ATOM      2  C   LIG d   1       3.313  84.496 111.832  0.00  0.00     0.016 C 
ATOM      3  C   LIG d   1       2.986  85.593 111.001  0.00  0.00     0.038 C 
ATOM      4  C   LIG d   1       2.235  85.435 109.826  0.00  0.00     0.028 C 
ATOM      5  C   LIG d   1       2.392  84.059 109.188  0.00  0.00    -0.047 C 
ATOM      6  C   LIG d   1       2.135  82.976 110.260  0.00  0.00     0.091 C 
ENDROOT
BRANCH   1   7
ATOM      7  O   LIG d   1       2.516  82.456 112.624  0.00  0.00    -0.368 OA
BRANCH   7   8
ATOM      8  C   LIG d   1       1.086  82.569 112.826  0.00  0.00     0.119 C 
BRANCH   8   9
ATOM      9  C   LIG d   1       0.860  83.511 114.024  0.00  0.00     0.028 C 
ATOM     10  C   LIG d   1       0.078  84.777 113.635  0.00  0.00     0.006 C 
ENDBRANCH   8   9
BRANCH   8  11
ATOM     11  C   LIG d   1       0.475  81.228 113.244  0.00  0.00     0.028 C 
ATOM     12  C   LIG d   1      -1.043  81.167 113.014  0.00  0.00     0.006 C 
ENDBRANCH   8  11
ENDBRANCH   7   8
ENDBRANCH   1   7
BRANCH   6  13
ATOM     13  N   LIG d   1       2.350  81.600 109.739  0.00  0.00    -0.311 N 
ATOM     14  C   LIG d   1       1.364  80.725 109.550  0.00  0.00     0.210 C 
ATOM     15  C   LIG d   1       1.806  79.356 109.025  0.00  0.00     0.109 C 
ATOM     16  O   LIG d   1       0.161  80.963 109.738  0.00  0.00    -0.276 OA
ATOM     17  H   LIG d   1       3.292  81.334 109.532  0.00  0.00     0.149 HD
ENDBRANCH   6  13
BRANCH   5  18
ATOM     18  N   LIG d   1       1.452  83.984 108.053  0.00  0.00     0.381 N 
ATOM     19  H   LIG d   1       0.764  84.706 108.135  0.00  0.00    -0.090 HD
ATOM     20  H   LIG d   1       0.982  83.097 108.079  0.00  0.00    -0.090 HD
ATOM     21  H   LIG d   1       1.946  84.082 107.194  0.00  0.00    -0.090 HD
ENDBRANCH   5  18
BRANCH   3  22
ATOM     22  C   LIG d   1       3.447  86.860 111.323  0.00  0.00     0.382 C 
ATOM     23  O   LIG d   1       2.637  87.748 111.685  0.00  0.00    -0.241 OA
ATOM     24  O   LIG d   1       4.655  87.140 111.213  0.00  0.00    -0.241 OA
ENDBRANCH   3  22
TORSDOF 7
ENDMDL
MODEL 4
REMARK VINA RESULT:      -5.7      2.140      5.363
REMARK  7 active torsions:
REMARK  status: ('A' for Active; 'I' for Inactive)
REMARK    1  A    between atoms: C_2  and  C_3 
REMARK    2  A    between atoms: C_3  and  O_6 
REMARK    3  A    between atoms: C_3  and  C_4 
REMARK    4  A    between atoms: C_7  and  O_6 
REMARK    5  A    between atoms: C_9  and  C_10 
REMARK    6  A    between atoms: N_15  and  C_14 
REMARK    7  A    between atoms: N_20  and  C_19 
REMARK       I    between atoms: C_22  and  N_20 
ROOT
ATOM      1  C   LIG d   1       0.848  83.896 111.431  0.00  0.00     0.161 C 
ATOM      2  C   LIG d   1       1.597  85.036 111.764  0.00  0.00     0.016 C 
ATOM      3  C   LIG d   1       2.267  85.834 110.808  0.00  0.00     0.038 C 
ATOM      4  C   LIG d   1       2.107  85.631 109.429  0.00  0.00     0.028 C 
ATOM      5  C   LIG d   1       1.768  84.189 109.065  0.00  0.00    -0.047 C 
ATOM      6  C   LIG d   1       0.570  83.723 109.923  0.00  0.00     0.091 C 
ENDROOT
BRANCH   1   7
ATOM      7  O   LIG d   1      -0.388  83.890 112.172  0.00  0.00    -0.368 OA
BRANCH   7   8
ATOM      8  C   LIG d   1      -0.471  82.944 113.266  0.00  0.00     0.119 C 
BRANCH   8   9
ATOM      9  C   LIG d   1      -1.507  81.872 112.874  0.00  0.00     0.028 C 
ATOM     10  C   LIG d   1      -2.260  81.312 114.092  0.00  0.00     0.006 C 
ENDBRANCH   8   9
BRANCH   8  11
ATOM     11  C   LIG d   1      -1.028  83.603 114.532  0.00  0.00     0.028 C 
ATOM     12  C   LIG d   1      -0.824  85.126 114.549  0.00  0.00     0.006 C 
ENDBRANCH   8  11
ENDBRANCH   7   8
ENDBRANCH   1   7
BRANCH   6  13
ATOM     13  N   LIG d   1       0.227  82.296 109.689  0.00  0.00    -0.311 N 
ATOM     14  C   LIG d   1       1.010  81.284 110.059  0.00  0.00     0.210 C 
ATOM     15  C   LIG d   1       0.478  79.891 109.706  0.00  0.00     0.109 C 
ATOM     16  O   LIG d   1       2.079  81.406 110.676  0.00  0.00    -0.276 OA
ATOM     17  H   LIG d   1      -0.638  82.105 109.223  0.00  0.00     0.149 HD
ENDBRANCH   6  13
BRANCH   5  18
ATOM     18  N   LIG d   1       1.493  84.148 107.616  0.00  0.00     0.381 N 
ATOM     19  H   LIG d   1       1.761  83.258 107.246  0.00  0.00    -0.090 HD
ATOM     20  H   LIG d   1       2.041  84.857 107.161  0.00  0.00    -0.090 HD
ATOM     21  H   LIG d   1       0.524  84.308 107.448  0.00  0.00    -0.090 HD
ENDBRANCH   5  18
BRANCH   3  22
ATOM     22  C   LIG d   1       3.140  86.825 111.230  0.00  0.00     0.382 C 
ATOM     23  O   LIG d   1       4.378  86.665 111.104  0.00  0.00    -0.241 OA
ATOM     24  O   LIG d   1       2.708  87.857 111.777  0.00  0.00    -0.241 OA
ENDBRANCH   3  22
TORSDOF 7
ENDMDL
MODEL 5
REMARK VINA RESULT:      -5.2      2.885      4.635
REMARK  7 active torsions:
REMARK  status: ('A' for Active; 'I' for Inactive)
REMARK    1  A    between atoms: C_2  and  C_3 
REMARK    2  A    between atoms: C_3  and  O_6 
REMARK    3  A    between atoms: C_3  and  C_4 
REMARK    4  A    between atoms: C_7  and  O_6 
REMARK    5  A    between atoms: C_9  and  C_10 
REMARK    6  A    between atoms: N_15  and  C_14 
REMARK    7  A    between atoms: N_20  and  C_19 
REMARK       I    between atoms: C_22  and  N_20 
ROOT
ATOM      1  C   LIG d   1       1.868  82.618 111.573  0.00  0.00     0.161 C 
ATOM      2  C   LIG d   1       1.577  81.361 111.017  0.00  0.00     0.016 C 
ATOM      3  C   LIG d   1       2.285  80.811 109.923  0.00  0.00     0.038 C 
ATOM      4  C   LIG d   1       3.437  81.420 109.404  0.00  0.00     0.028 C 
ATOM      5  C   LIG d   1       3.465  82.932 109.603  0.00  0.00    -0.047 C 
ATOM      6  C   LIG d   1       3.192  83.247 111.092  0.00  0.00     0.091 C 
ENDROOT
BRANCH   1   7
ATOM      7  O   LIG d   1       1.847  82.533 113.011  0.00  0.00    -0.368 OA
BRANCH   7   8
ATOM      8  C   LIG d   1       0.652  83.031 113.662  0.00  0.00     0.119 C 
BRANCH   8   9
ATOM      9  C   LIG d   1      -0.455  83.118 112.593  0.00  0.00     0.028 C 
ATOM     10  C   LIG d   1      -1.588  82.108 112.839  0.00  0.00     0.006 C 
ENDBRANCH   8   9
BRANCH   8  11
ATOM     11  C   LIG d   1       0.846  84.465 114.162  0.00  0.00     0.028 C 
ATOM     12  C   LIG d   1      -0.039  85.480 113.422  0.00  0.00     0.006 C 
ENDBRANCH   8  11
ENDBRANCH   7   8
ENDBRANCH   1   7
BRANCH   6  13
ATOM     13  N   LIG d   1       3.119  84.708 111.357  0.00  0.00    -0.311 N 
ATOM     14  C   LIG d   1       3.786  85.308 112.341  0.00  0.00     0.210 C 
ATOM     15  C   LIG d   1       3.554  86.818 112.452  0.00  0.00     0.109 C 
ATOM     16  O   LIG d   1       4.573  84.739 113.112  0.00  0.00    -0.276 OA
ATOM     17  H   LIG d   1       2.528  85.251 110.759  0.00  0.00     0.149 HD
ENDBRANCH   6  13
BRANCH   5  18
ATOM     18  N   LIG d   1       4.779  83.417 109.141  0.00  0.00     0.381 N 
ATOM     19  H   LIG d   1       4.832  84.410 109.252  0.00  0.00    -0.090 HD
ATOM     20  H   LIG d   1       4.880  83.203 108.164  0.00  0.00    -0.090 HD
ATOM     21  H   LIG d   1       5.507  82.979 109.661  0.00  0.00    -0.090 HD
ENDBRANCH   5  18
BRANCH   3  22
ATOM     22  C   LIG d   1       1.816  79.659 109.312  0.00  0.00     0.382 C 
ATOM     23  O   LIG d   1       2.529  78.626 109.290  0.00  0.00    -0.241 OA
ATOM     24  O   LIG d   1       0.708  79.651 108.742  0.00  0.00    -0.241 OA
ENDBRANCH   3  22
TORSDOF 7
ENDMDL
MODEL 6
REMARK VINA RESULT:      -5.0      2.567      5.825
REMARK  7 active torsions:
REMARK  status: ('A' for Active; 'I' for Inactive)
REMARK    1  A    between atoms: C_2  and  C_3 
REMARK    2  A    between atoms: C_3  and  O_6 
REMARK    3  A    between atoms: C_3  and  C_4 
REMARK    4  A    between atoms: C_7  and  O_6 
REMARK    5  A    between atoms: C_9  and  C_10 
REMARK    6  A    between atoms: N_15  and  C_14 
REMARK    7  A    between atoms: N_20  and  C_19 
REMARK       I    between atoms: C_22  and  N_20 
ROOT
ATOM      1  C   LIG d   1       0.080  83.396 110.987  0.00  0.00     0.161 C 
ATOM      2  C   LIG d   1       0.587  83.256 109.684  0.00  0.00     0.016 C 
ATOM      3  C   LIG d   1       1.941  83.485 109.347  0.00  0.00     0.038 C 
ATOM      4  C   LIG d   1       2.918  83.725 110.324  0.00  0.00     0.028 C 
ATOM      5  C   LIG d   1       2.364  84.372 111.589  0.00  0.00    -0.047 C 
ATOM      6  C   LIG d   1       1.153  83.548 112.085  0.00  0.00     0.091 C 
ENDROOT
BRANCH   1   7
ATOM      7  O   LIG d   1      -0.795  82.293 111.291  0.00  0.00    -0.368 OA
BRANCH   7   8
ATOM      8  C   LIG d   1      -0.156  81.087 111.777  0.00  0.00     0.119 C 
BRANCH   8   9
ATOM      9  C   LIG d   1      -0.246  80.032 110.658  0.00  0.00     0.028 C 
ATOM     10  C   LIG d   1       1.104  79.802 109.958  0.00  0.00     0.006 C 
ENDBRANCH   8   9
BRANCH   8  11
ATOM     11  C   LIG d   1      -0.922  80.488 112.961  0.00  0.00     0.028 C 
ATOM     12  C   LIG d   1      -1.971  81.451 113.540  0.00  0.00     0.006 C 
ENDBRANCH   8  11
ENDBRANCH   7   8
ENDBRANCH   1   7
BRANCH   6  13
ATOM     13  N   LIG d   1       0.499  84.160 113.271  0.00  0.00    -0.311 N 
ATOM     14  C   LIG d   1      -0.236  85.269 113.212  0.00  0.00     0.210 C 
ATOM     15  C   LIG d   1      -0.803  85.741 114.555  0.00  0.00     0.109 C 
ATOM     16  O   LIG d   1      -0.499  85.889 112.170  0.00  0.00    -0.276 OA
ATOM     17  H   LIG d   1       0.635  83.705 114.152  0.00  0.00     0.149 HD
ENDBRANCH   6  13
BRANCH   5  18
ATOM     18  N   LIG d   1       3.461  84.438 112.573  0.00  0.00     0.381 N 
ATOM     19  H   LIG d   1       4.291  84.779 112.132  0.00  0.00    -0.090 HD
ATOM     20  H   LIG d   1       3.644  83.513 112.919  0.00  0.00    -0.090 HD
ATOM     21  H   LIG d   1       3.206  85.038 113.327  0.00  0.00    -0.090 HD
ENDBRANCH   5  18
BRANCH   3  22
ATOM     22  C   LIG d   1       2.322  83.515 108.014  0.00  0.00     0.382 C 
ATOM     23  O   LIG d   1       1.637  84.155 107.180  0.00  0.00    -0.241 OA
ATOM     24  O   LIG d   1       3.316  82.873 107.626  0.00  0.00    -0.241 OA
ENDBRANCH   3  22
TORSDOF 7
ENDMDL
MODEL 7
REMARK VINA RESULT:      -4.8      1.887      2.202
REMARK  7 active torsions:
REMARK  status: ('A' for Active; 'I' for Inactive)
REMARK    1  A    between atoms: C_2  and  C_3 
REMARK    2  A    between atoms: C_3  and  O_6 
REMARK    3  A    between atoms: C_3  and  C_4 
REMARK    4  A    between atoms: C_7  and  O_6 
REMARK    5  A    between atoms: C_9  and  C_10 
REMARK    6  A    between atoms: N_15  and  C_14 
REMARK    7  A    between atoms: N_20  and  C_19 
REMARK       I    between atoms: C_22  and  N_20 
ROOT
ATOM      1  C   LIG d   1       0.324  82.401 110.950  0.00  0.00     0.161 C 
ATOM      2  C   LIG d   1      -0.902  82.381 111.636  0.00  0.00     0.016 C 
ATOM      3  C   LIG d   1      -1.018  82.091 113.015  0.00  0.00     0.038 C 
ATOM      4  C   LIG d   1       0.108  81.948 113.840  0.00  0.00     0.028 C 
ATOM      5  C   LIG d   1       1.346  81.461 113.095  0.00  0.00    -0.047 C 
ATOM      6  C   LIG d   1       1.572  82.358 111.856  0.00  0.00     0.091 C 
ENDROOT
BRANCH   1   7
ATOM      7  O   LIG d   1       0.378  83.548 110.079  0.00  0.00    -0.368 OA
BRANCH   7   8
ATOM      8  C   LIG d   1       1.462  84.479 110.316  0.00  0.00     0.119 C 
BRANCH   8   9
ATOM      9  C   LIG d   1       0.838  85.870 110.537  0.00  0.00     0.028 C 
ATOM     10  C   LIG d   1      -0.523  86.021 109.837  0.00  0.00     0.006 C 
ENDBRANCH   8   9
BRANCH   8  11
ATOM     11  C   LIG d   1       2.351  84.626 109.077  0.00  0.00     0.028 C 
ATOM     12  C   LIG d   1       1.848  83.801 107.882  0.00  0.00     0.006 C 
ENDBRANCH   8  11
ENDBRANCH   7   8
ENDBRANCH   1   7
BRANCH   6  13
ATOM     13  N   LIG d   1       2.715  81.898 111.025  0.00  0.00    -0.311 N 
ATOM     14  C   LIG d   1       2.672  80.812 110.255  0.00  0.00     0.210 C 
ATOM     15  C   LIG d   1       3.967  80.506 109.496  0.00  0.00     0.109 C 
ATOM     16  O   LIG d   1       1.675  80.092 110.104  0.00  0.00    -0.276 OA
ATOM     17  H   LIG d   1       3.555  82.442 111.064  0.00  0.00     0.149 HD
ENDBRANCH   6  13
BRANCH   5  18
ATOM     18  N   LIG d   1       2.476  81.489 114.043  0.00  0.00     0.381 N 
ATOM     19  H   LIG d   1       2.146  81.305 114.969  0.00  0.00    -0.090 HD
ATOM     20  H   LIG d   1       2.887  82.406 114.032  0.00  0.00    -0.090 HD
ATOM     21  H   LIG d   1       3.156  80.809 113.784  0.00  0.00    -0.090 HD
ENDBRANCH   5  18
BRANCH   3  22
ATOM     22  C   LIG d   1      -2.272  81.901 113.574  0.00  0.00     0.382 C 
ATOM     23  O   LIG d   1      -2.835  82.841 114.185  0.00  0.00    -0.241 OA
ATOM     24  O   LIG d   1      -2.829  80.788 113.513  0.00  0.00    -0.241 OA
ENDBRANCH   3  22
TORSDOF 7
ENDMDL
MODEL 8
REMARK VINA RESULT:      -4.7      1.539      2.255
REMARK  7 active torsions:
REMARK  status: ('A' for Active; 'I' for Inactive)
REMARK    1  A    between atoms: C_2  and  C_3 
REMARK    2  A    between atoms: C_3  and  O_6 
REMARK    3  A    between atoms: C_3  and  C_4 
REMARK    4  A    between atoms: C_7  and  O_6 
REMARK    5  A    between atoms: C_9  and  C_10 
REMARK    6  A    between atoms: N_15  and  C_14 
REMARK    7  A    between atoms: N_20  and  C_19 
REMARK       I    between atoms: C_22  and  N_20 
ROOT
ATOM      1  C   LIG d   1       0.927  83.481 111.029  0.00  0.00     0.161 C 
ATOM      2  C   LIG d   1      -0.187  83.332 111.872  0.00  0.00     0.016 C 
ATOM      3  C   LIG d   1      -0.761  82.080 112.189  0.00  0.00     0.038 C 
ATOM      4  C   LIG d   1      -0.164  80.871 111.803  0.00  0.00     0.028 C 
ATOM      5  C   LIG d   1       0.673  80.987 110.533  0.00  0.00    -0.047 C 
ATOM      6  C   LIG d   1       1.660  82.166 110.688  0.00  0.00     0.091 C 
ENDROOT
BRANCH   1   7
ATOM      7  O   LIG d   1       1.846  84.434 111.598  0.00  0.00    -0.368 OA
BRANCH   7   8
ATOM      8  C   LIG d   1       3.025  83.881 112.234  0.00  0.00     0.119 C 
BRANCH   8   9
ATOM      9  C   LIG d   1       2.919  84.178 113.743  0.00  0.00     0.028 C 
ATOM     10  C   LIG d   1       2.289  85.552 114.028  0.00  0.00     0.006 C 
ENDBRANCH   8   9
BRANCH   8  11
ATOM     11  C   LIG d   1       4.296  84.597 111.769  0.00  0.00     0.028 C 
ATOM     12  C   LIG d   1       4.042  85.568 110.605  0.00  0.00     0.006 C 
ENDBRANCH   8  11
ENDBRANCH   7   8
ENDBRANCH   1   7
BRANCH   6  13
ATOM     13  N   LIG d   1       2.458  82.402 109.458  0.00  0.00    -0.311 N 
ATOM     14  C   LIG d   1       2.061  83.199 108.467  0.00  0.00     0.210 C 
ATOM     15  C   LIG d   1       3.026  83.287 107.281  0.00  0.00     0.109 C 
ATOM     16  O   LIG d   1       1.016  83.867 108.473  0.00  0.00    -0.276 OA
ATOM     17  H   LIG d   1       3.335  81.924 109.384  0.00  0.00     0.149 HD
ENDBRANCH   6  13
BRANCH   5  18
ATOM     18  N   LIG d   1       1.347  79.692 110.324  0.00  0.00     0.381 N 
ATOM     19  H   LIG d   1       1.483  79.234 111.203  0.00  0.00    -0.090 HD
ATOM     20  H   LIG d   1       2.249  79.858 109.912  0.00  0.00    -0.090 HD
ATOM     21  H   LIG d   1       0.800  79.116 109.723  0.00  0.00    -0.090 HD
ENDBRANCH   5  18
BRANCH   3  22
ATOM     22  C   LIG d   1      -1.970  82.030 112.867  0.00  0.00     0.382 C 
ATOM     23  O   LIG d   1      -1.991  82.124 114.118  0.00  0.00    -0.241 OA
ATOM     24  O   LIG d   1      -3.035  81.848 112.248  0.00  0.00    -0.241 OA
ENDBRANCH   3  22
TORSDOF 7
ENDMDL
MODEL 9
REMARK VINA RESULT:      -4.4     19.082     21.111
REMARK  7 active torsions:
REMARK  status: ('A' for Active; 'I' for Inactive)
REMARK    1  A    between atoms: C_2  and  C_3 
REMARK    2  A    between atoms: C_3  and  O_6 
REMARK    3  A    between atoms: C_3  and  C_4 
REMARK    4  A    between atoms: C_7  and  O_6 
REMARK    5  A    between atoms: C_9  and  C_10 
REMARK    6  A    between atoms: N_15  and  C_14 
REMARK    7  A    between atoms: N_20  and  C_19 
REMARK       I    between atoms: C_22  and  N_20 
ROOT
ATOM      1  C   LIG d   1       8.815  64.078 110.285  0.00  0.00     0.161 C 
ATOM      2  C   LIG d   1       9.284  65.168 111.037  0.00  0.00     0.016 C 
ATOM      3  C   LIG d   1       9.277  65.198 112.451  0.00  0.00     0.038 C 
ATOM      4  C   LIG d   1       8.938  64.071 113.215  0.00  0.00     0.028 C 
ATOM      5  C   LIG d   1       7.981  63.122 112.503  0.00  0.00    -0.047 C 
ATOM      6  C   LIG d   1       8.546  62.796 111.101  0.00  0.00     0.091 C 
ENDROOT
BRANCH   1   7
ATOM      7  O   LIG d   1       9.729  63.801 109.205  0.00  0.00    -0.368 OA
BRANCH   7   8
ATOM      8  C   LIG d   1      11.106  64.195 109.418  0.00  0.00     0.119 C 
BRANCH   8   9
ATOM      9  C   LIG d   1      11.617  64.821 108.106  0.00  0.00     0.028 C 
ATOM     10  C   LIG d   1      11.973  66.309 108.265  0.00  0.00     0.006 C 
ENDBRANCH   8   9
BRANCH   8  11
ATOM     11  C   LIG d   1      12.003  62.978 109.663  0.00  0.00     0.028 C 
ATOM     12  C   LIG d   1      12.313  62.756 111.152  0.00  0.00     0.006 C 
ENDBRANCH   8  11
ENDBRANCH   7   8
ENDBRANCH   1   7
BRANCH   6  13
ATOM     13  N   LIG d   1       7.629  61.940 110.305  0.00  0.00    -0.311 N 
ATOM     14  C   LIG d   1       7.699  60.610 110.287  0.00  0.00     0.210 C 
ATOM     15  C   LIG d   1       6.671  59.921 109.383  0.00  0.00     0.109 C 
ATOM     16  O   LIG d   1       8.493  59.934 110.957  0.00  0.00    -0.276 OA
ATOM     17  H   LIG d   1       6.933  62.405 109.755  0.00  0.00     0.149 HD
ENDBRANCH   6  13
BRANCH   5  18
ATOM     18  N   LIG d   1       7.822  61.928 113.354  0.00  0.00     0.381 N 
ATOM     19  H   LIG d   1       7.406  62.186 114.226  0.00  0.00    -0.090 HD
ATOM     20  H   LIG d   1       8.729  61.538 113.540  0.00  0.00    -0.090 HD
ATOM     21  H   LIG d   1       7.252  61.253 112.893  0.00  0.00    -0.090 HD
ENDBRANCH   5  18
BRANCH   3  22
ATOM     22  C   LIG d   1       9.573  66.379 113.114  0.00  0.00     0.382 C 
ATOM     23  O   LIG d   1       8.728  67.305 113.154  0.00  0.00    -0.241 OA
ATOM     24  O   LIG d   1      10.692  66.546 113.636  0.00  0.00    -0.241 OA
ENDBRANCH   3  22
TORSDOF 7
ENDMDL
