MODEL 1
REMARK VINA RESULT:      -4.5      0.000      0.000
REMARK  7 active torsions:
REMARK  status: ('A' for Active; 'I' for Inactive)
REMARK    1  A    between atoms: C_2  and  C_3 
REMARK    2  A    between atoms: C_3  and  O_6 
REMARK    3  A    between atoms: C_3  and  C_4 
REMARK    4  A    between atoms: C_7  and  O_6 
REMARK    5  A    between atoms: C_9  and  C_10 
REMARK    6  A    between atoms: N_15  and  C_14 
REMARK    7  A    between atoms: N_20  and  C_19 
REMARK       I    between atoms: C_22  and  N_20 
ROOT
ATOM      1  C   LIG d   1      -8.032  78.583 117.919  0.00  0.00     0.161 C 
ATOM      2  C   LIG d   1      -9.396  78.339 118.145  0.00  0.00     0.016 C 
ATOM      3  C   LIG d   1      -9.902  77.803 119.352  0.00  0.00     0.038 C 
ATOM      4  C   LIG d   1      -9.086  77.614 120.478  0.00  0.00     0.028 C 
ATOM      5  C   LIG d   1      -7.621  77.372 120.131  0.00  0.00    -0.047 C 
ATOM      6  C   LIG d   1      -7.141  78.488 119.175  0.00  0.00     0.091 C 
ENDROOT
BRANCH   1   7
ATOM      7  O   LIG d   1      -7.863  79.865 117.281  0.00  0.00    -0.368 OA
BRANCH   7   8
ATOM      8  C   LIG d   1      -8.060  81.026 118.125  0.00  0.00     0.119 C 
BRANCH   8   9
ATOM      9  C   LIG d   1      -9.121  81.915 117.448  0.00  0.00     0.028 C 
ATOM     10  C   LIG d   1     -10.436  81.968 118.245  0.00  0.00     0.006 C 
ENDBRANCH   8   9
BRANCH   8  11
ATOM     11  C   LIG d   1      -6.794  81.886 118.192  0.00  0.00     0.028 C 
ATOM     12  C   LIG d   1      -6.600  82.555 119.562  0.00  0.00     0.006 C 
ENDBRANCH   8  11
ENDBRANCH   7   8
ENDBRANCH   1   7
BRANCH   6  13
ATOM     13  N   LIG d   1      -5.741  78.280 118.720  0.00  0.00    -0.311 N 
ATOM     14  C   LIG d   1      -4.689  78.854 119.300  0.00  0.00     0.210 C 
ATOM     15  C   LIG d   1      -3.337  78.522 118.660  0.00  0.00     0.109 C 
ATOM     16  O   LIG d   1      -4.743  79.581 120.303  0.00  0.00    -0.276 OA
ATOM     17  H   LIG d   1      -5.603  77.680 117.930  0.00  0.00     0.149 HD
ENDBRANCH   6  13
BRANCH   5  18
ATOM     18  N   LIG d   1      -6.865  77.330 121.397  0.00  0.00     0.381 N 
ATOM     19  H   LIG d   1      -7.178  76.559 121.953  0.00  0.00    -0.090 HD
ATOM     20  H   LIG d   1      -7.038  78.178 121.907  0.00  0.00    -0.090 HD
ATOM     21  H   LIG d   1      -5.891  77.240 121.209  0.00  0.00    -0.090 HD
ENDBRANCH   5  18
BRANCH   3  22
ATOM     22  C   LIG d   1     -11.230  77.412 119.427  0.00  0.00     0.382 C 
ATOM     23  O   LIG d   1     -11.796  77.326 120.544  0.00  0.00    -0.241 OA
ATOM     24  O   LIG d   1     -11.856  77.101 118.396  0.00  0.00    -0.241 OA
ENDBRANCH   3  22
TORSDOF 7
ENDMDL
MODEL 2
REMARK VINA RESULT:      -4.4     12.849     15.202
REMARK  7 active torsions:
REMARK  status: ('A' for Active; 'I' for Inactive)
REMARK    1  A    between atoms: C_2  and  C_3 
REMARK    2  A    between atoms: C_3  and  O_6 
REMARK    3  A    between atoms: C_3  and  C_4 
REMARK    4  A    between atoms: C_7  and  O_6 
REMARK    5  A    between atoms: C_9  and  C_10 
REMARK    6  A    between atoms: N_15  and  C_14 
REMARK    7  A    between atoms: N_20  and  C_19 
REMARK       I    between atoms: C_22  and  N_20 
ROOT
ATOM      1  C   LIG d   1     -14.159  66.309 122.004  0.00  0.00     0.161 C 
ATOM      2  C   LIG d   1     -12.989  66.216 122.776  0.00  0.00     0.016 C 
ATOM      3  C   LIG d   1     -11.948  65.298 122.504  0.00  0.00     0.038 C 
ATOM      4  C   LIG d   1     -11.939  64.510 121.343  0.00  0.00     0.028 C 
ATOM      5  C   LIG d   1     -13.334  64.209 120.805  0.00  0.00    -0.047 C 
ATOM      6  C   LIG d   1     -14.117  65.535 120.670  0.00  0.00     0.091 C 
ENDROOT
BRANCH   1   7
ATOM      7  O   LIG d   1     -14.480  67.695 121.769  0.00  0.00    -0.368 OA
BRANCH   7   8
ATOM      8  C   LIG d   1     -15.632  68.211 122.480  0.00  0.00     0.119 C 
BRANCH   8   9
ATOM      9  C   LIG d   1     -16.736  68.480 121.440  0.00  0.00     0.028 C 
ATOM     10  C   LIG d   1     -17.978  67.601 121.662  0.00  0.00     0.006 C 
ENDBRANCH   8   9
BRANCH   8  11
ATOM     11  C   LIG d   1     -15.331  69.573 123.113  0.00  0.00     0.028 C 
ATOM     12  C   LIG d   1     -13.825  69.831 123.285  0.00  0.00     0.006 C 
ENDBRANCH   8  11
ENDBRANCH   7   8
ENDBRANCH   1   7
BRANCH   6  13
ATOM     13  N   LIG d   1     -15.520  65.322 120.228  0.00  0.00    -0.311 N 
ATOM     14  C   LIG d   1     -15.907  65.393 118.956  0.00  0.00     0.210 C 
ATOM     15  C   LIG d   1     -17.403  65.160 118.721  0.00  0.00     0.109 C 
ATOM     16  O   LIG d   1     -15.148  65.593 117.996  0.00  0.00    -0.276 OA
ATOM     17  H   LIG d   1     -16.196  65.123 120.939  0.00  0.00     0.149 HD
ENDBRANCH   6  13
BRANCH   5  18
ATOM     18  N   LIG d   1     -13.172  63.500 119.521  0.00  0.00     0.381 N 
ATOM     19  H   LIG d   1     -13.990  62.955 119.330  0.00  0.00    -0.090 HD
ATOM     20  H   LIG d   1     -12.387  62.876 119.591  0.00  0.00    -0.090 HD
ATOM     21  H   LIG d   1     -13.021  64.155 118.786  0.00  0.00    -0.090 HD
ENDBRANCH   5  18
BRANCH   3  22
ATOM     22  C   LIG d   1     -10.920  65.134 123.419  0.00  0.00     0.382 C 
ATOM     23  O   LIG d   1     -10.254  66.127 123.798  0.00  0.00    -0.241 OA
ATOM     24  O   LIG d   1     -10.622  63.999 123.838  0.00  0.00    -0.241 OA
ENDBRANCH   3  22
TORSDOF 7
ENDMDL
MODEL 3
REMARK VINA RESULT:      -4.4      2.978      4.717
REMARK  7 active torsions:
REMARK  status: ('A' for Active; 'I' for Inactive)
REMARK    1  A    between atoms: C_2  and  C_3 
REMARK    2  A    between atoms: C_3  and  O_6 
REMARK    3  A    between atoms: C_3  and  C_4 
REMARK    4  A    between atoms: C_7  and  O_6 
REMARK    5  A    between atoms: C_9  and  C_10 
REMARK    6  A    between atoms: N_15  and  C_14 
REMARK    7  A    between atoms: N_20  and  C_19 
REMARK       I    between atoms: C_22  and  N_20 
ROOT
ATOM      1  C   LIG d   1     -10.410  78.805 120.083  0.00  0.00     0.161 C 
ATOM      2  C   LIG d   1     -11.063  77.727 120.703  0.00  0.00     0.016 C 
ATOM      3  C   LIG d   1     -11.888  77.868 121.842  0.00  0.00     0.038 C 
ATOM      4  C   LIG d   1     -12.240  79.126 122.352  0.00  0.00     0.028 C 
ATOM      5  C   LIG d   1     -11.202  80.207 122.067  0.00  0.00    -0.047 C 
ATOM      6  C   LIG d   1     -10.871  80.199 120.557  0.00  0.00     0.091 C 
ENDROOT
BRANCH   1   7
ATOM      7  O   LIG d   1     -10.537  78.696 118.651  0.00  0.00    -0.368 OA
BRANCH   7   8
ATOM      8  C   LIG d   1      -9.343  78.298 117.933  0.00  0.00     0.119 C 
BRANCH   8   9
ATOM      9  C   LIG d   1      -9.451  76.786 117.657  0.00  0.00     0.028 C 
ATOM     10  C   LIG d   1      -8.180  76.023 118.064  0.00  0.00     0.006 C 
ENDBRANCH   8   9
BRANCH   8  11
ATOM     11  C   LIG d   1      -8.091  78.463 118.800  0.00  0.00     0.028 C 
ATOM     12  C   LIG d   1      -7.163  79.581 118.299  0.00  0.00     0.006 C 
ENDBRANCH   8  11
ENDBRANCH   7   8
ENDBRANCH   1   7
BRANCH   6  13
ATOM     13  N   LIG d   1      -9.801  81.170 120.207  0.00  0.00    -0.311 N 
ATOM     14  C   LIG d   1      -9.932  82.094 119.257  0.00  0.00     0.210 C 
ATOM     15  C   LIG d   1      -8.702  82.981 119.042  0.00  0.00     0.109 C 
ATOM     16  O   LIG d   1     -10.963  82.285 118.594  0.00  0.00    -0.276 OA
ATOM     17  H   LIG d   1      -8.942  81.106 120.717  0.00  0.00     0.149 HD
ENDBRANCH   6  13
BRANCH   5  18
ATOM     18  N   LIG d   1     -11.757  81.492 122.531  0.00  0.00     0.381 N 
ATOM     19  H   LIG d   1     -12.276  81.923 121.792  0.00  0.00    -0.090 HD
ATOM     20  H   LIG d   1     -11.000  82.102 122.781  0.00  0.00    -0.090 HD
ATOM     21  H   LIG d   1     -12.348  81.344 123.319  0.00  0.00    -0.090 HD
ENDBRANCH   5  18
BRANCH   3  22
ATOM     22  C   LIG d   1     -12.339  76.738 122.508  0.00  0.00     0.382 C 
ATOM     23  O   LIG d   1     -11.534  76.035 123.166  0.00  0.00    -0.241 OA
ATOM     24  O   LIG d   1     -13.531  76.389 122.424  0.00  0.00    -0.241 OA
ENDBRANCH   3  22
TORSDOF 7
ENDMDL
MODEL 4
REMARK VINA RESULT:      -4.4     13.944     15.553
REMARK  7 active torsions:
REMARK  status: ('A' for Active; 'I' for Inactive)
REMARK    1  A    between atoms: C_2  and  C_3 
REMARK    2  A    between atoms: C_3  and  O_6 
REMARK    3  A    between atoms: C_3  and  C_4 
REMARK    4  A    between atoms: C_7  and  O_6 
REMARK    5  A    between atoms: C_9  and  C_10 
REMARK    6  A    between atoms: N_15  and  C_14 
REMARK    7  A    between atoms: N_20  and  C_19 
REMARK       I    between atoms: C_22  and  N_20 
ROOT
ATOM      1  C   LIG d   1     -14.160  66.071 120.869  0.00  0.00     0.161 C 
ATOM      2  C   LIG d   1     -13.141  66.561 121.702  0.00  0.00     0.016 C 
ATOM      3  C   LIG d   1     -12.247  65.726 122.412  0.00  0.00     0.038 C 
ATOM      4  C   LIG d   1     -12.215  64.337 122.216  0.00  0.00     0.028 C 
ATOM      5  C   LIG d   1     -13.554  63.758 121.771  0.00  0.00    -0.047 C 
ATOM      6  C   LIG d   1     -14.070  64.562 120.556  0.00  0.00     0.091 C 
ENDROOT
BRANCH   1   7
ATOM      7  O   LIG d   1     -14.202  66.834 119.648  0.00  0.00    -0.368 OA
BRANCH   7   8
ATOM      8  C   LIG d   1     -15.363  67.681 119.465  0.00  0.00     0.119 C 
BRANCH   8   9
ATOM      9  C   LIG d   1     -16.399  67.284 120.535  0.00  0.00     0.028 C 
ATOM     10  C   LIG d   1     -17.083  68.506 121.171  0.00  0.00     0.006 C 
ENDBRANCH   8   9
BRANCH   8  11
ATOM     11  C   LIG d   1     -16.045  67.410 118.120  0.00  0.00     0.028 C 
ATOM     12  C   LIG d   1     -16.343  68.696 117.333  0.00  0.00     0.006 C 
ENDBRANCH   8  11
ENDBRANCH   7   8
ENDBRANCH   1   7
BRANCH   6  13
ATOM     13  N   LIG d   1     -15.416  64.115 120.111  0.00  0.00    -0.311 N 
ATOM     14  C   LIG d   1     -15.680  63.712 118.869  0.00  0.00     0.210 C 
ATOM     15  C   LIG d   1     -17.137  63.312 118.615  0.00  0.00     0.109 C 
ATOM     16  O   LIG d   1     -14.840  63.618 117.962  0.00  0.00    -0.276 OA
ATOM     17  H   LIG d   1     -16.150  64.129 120.791  0.00  0.00     0.149 HD
ENDBRANCH   6  13
BRANCH   5  18
ATOM     18  N   LIG d   1     -13.344  62.329 121.472  0.00  0.00     0.381 N 
ATOM     19  H   LIG d   1     -12.392  62.081 121.656  0.00  0.00    -0.090 HD
ATOM     20  H   LIG d   1     -13.527  62.171 120.496  0.00  0.00    -0.090 HD
ATOM     21  H   LIG d   1     -13.954  61.771 122.027  0.00  0.00    -0.090 HD
ENDBRANCH   5  18
BRANCH   3  22
ATOM     22  C   LIG d   1     -11.397  66.277 123.359  0.00  0.00     0.382 C 
ATOM     23  O   LIG d   1     -11.744  67.304 123.991  0.00  0.00    -0.241 OA
ATOM     24  O   LIG d   1     -10.270  65.786 123.558  0.00  0.00    -0.241 OA
ENDBRANCH   3  22
TORSDOF 7
ENDMDL
MODEL 5
REMARK VINA RESULT:      -4.3      3.540      5.939
REMARK  7 active torsions:
REMARK  status: ('A' for Active; 'I' for Inactive)
REMARK    1  A    between atoms: C_2  and  C_3 
REMARK    2  A    between atoms: C_3  and  O_6 
REMARK    3  A    between atoms: C_3  and  C_4 
REMARK    4  A    between atoms: C_7  and  O_6 
REMARK    5  A    between atoms: C_9  and  C_10 
REMARK    6  A    between atoms: N_15  and  C_14 
REMARK    7  A    between atoms: N_20  and  C_19 
REMARK       I    between atoms: C_22  and  N_20 
ROOT
ATOM      1  C   LIG d   1     -10.475  81.020 119.996  0.00  0.00     0.161 C 
ATOM      2  C   LIG d   1      -9.753  80.062 119.266  0.00  0.00     0.016 C 
ATOM      3  C   LIG d   1      -8.519  80.334 118.632  0.00  0.00     0.038 C 
ATOM      4  C   LIG d   1      -7.845  81.551 118.813  0.00  0.00     0.028 C 
ATOM      5  C   LIG d   1      -8.776  82.718 119.126  0.00  0.00    -0.047 C 
ATOM      6  C   LIG d   1      -9.702  82.321 120.298  0.00  0.00     0.091 C 
ENDROOT
BRANCH   1   7
ATOM      7  O   LIG d   1     -10.967  80.435 121.218  0.00  0.00    -0.368 OA
BRANCH   7   8
ATOM      8  C   LIG d   1     -10.417  79.142 121.572  0.00  0.00     0.119 C 
BRANCH   8   9
ATOM      9  C   LIG d   1     -11.601  78.199 121.861  0.00  0.00     0.028 C 
ATOM     10  C   LIG d   1     -11.143  76.818 122.358  0.00  0.00     0.006 C 
ENDBRANCH   8   9
BRANCH   8  11
ATOM     11  C   LIG d   1      -9.626  79.212 122.881  0.00  0.00     0.028 C 
ATOM     12  C   LIG d   1      -8.177  79.683 122.677  0.00  0.00     0.006 C 
ENDBRANCH   8  11
ENDBRANCH   7   8
ENDBRANCH   1   7
BRANCH   6  13
ATOM     13  N   LIG d   1     -10.701  83.375 120.613  0.00  0.00    -0.311 N 
ATOM     14  C   LIG d   1     -10.515  84.305 121.548  0.00  0.00     0.210 C 
ATOM     15  C   LIG d   1     -11.679  85.285 121.726  0.00  0.00     0.109 C 
ATOM     16  O   LIG d   1      -9.484  84.431 122.225  0.00  0.00    -0.276 OA
ATOM     17  H   LIG d   1     -11.554  83.366 120.089  0.00  0.00     0.149 HD
ENDBRANCH   6  13
BRANCH   5  18
ATOM     18  N   LIG d   1      -7.934  83.891 119.426  0.00  0.00     0.381 N 
ATOM     19  H   LIG d   1      -8.427  84.516 120.033  0.00  0.00    -0.090 HD
ATOM     20  H   LIG d   1      -7.733  84.376 118.569  0.00  0.00    -0.090 HD
ATOM     21  H   LIG d   1      -7.084  83.600 119.858  0.00  0.00    -0.090 HD
ENDBRANCH   5  18
BRANCH   3  22
ATOM     22  C   LIG d   1      -7.966  79.397 117.773  0.00  0.00     0.382 C 
ATOM     23  O   LIG d   1      -8.520  78.281 117.622  0.00  0.00    -0.241 OA
ATOM     24  O   LIG d   1      -6.897  79.636 117.180  0.00  0.00    -0.241 OA
ENDBRANCH   3  22
TORSDOF 7
ENDMDL
MODEL 6
REMARK VINA RESULT:      -4.2      3.609      5.904
REMARK  7 active torsions:
REMARK  status: ('A' for Active; 'I' for Inactive)
REMARK    1  A    between atoms: C_2  and  C_3 
REMARK    2  A    between atoms: C_3  and  O_6 
REMARK    3  A    between atoms: C_3  and  C_4 
REMARK    4  A    between atoms: C_7  and  O_6 
REMARK    5  A    between atoms: C_9  and  C_10 
REMARK    6  A    between atoms: N_15  and  C_14 
REMARK    7  A    between atoms: N_20  and  C_19 
REMARK       I    between atoms: C_22  and  N_20 
ROOT
ATOM      1  C   LIG d   1      -9.229  80.637 120.722  0.00  0.00     0.161 C 
ATOM      2  C   LIG d   1      -9.525  81.866 121.334  0.00  0.00     0.016 C 
ATOM      3  C   LIG d   1     -10.065  82.972 120.637  0.00  0.00     0.038 C 
ATOM      4  C   LIG d   1     -10.489  82.873 119.304  0.00  0.00     0.028 C 
ATOM      5  C   LIG d   1      -9.745  81.806 118.509  0.00  0.00    -0.047 C 
ATOM      6  C   LIG d   1      -9.788  80.474 119.293  0.00  0.00     0.091 C 
ENDROOT
BRANCH   1   7
ATOM      7  O   LIG d   1      -9.676  79.553 121.561  0.00  0.00    -0.368 OA
BRANCH   7   8
ATOM      8  C   LIG d   1     -11.102  79.300 121.570  0.00  0.00     0.119 C 
BRANCH   8   9
ATOM      9  C   LIG d   1     -11.652  79.795 122.922  0.00  0.00     0.028 C 
ATOM     10  C   LIG d   1     -13.184  79.687 123.008  0.00  0.00     0.006 C 
ENDBRANCH   8   9
BRANCH   8  11
ATOM     11  C   LIG d   1     -11.402  77.799 121.535  0.00  0.00     0.028 C 
ATOM     12  C   LIG d   1     -10.134  76.936 121.628  0.00  0.00     0.006 C 
ENDBRANCH   8  11
ENDBRANCH   7   8
ENDBRANCH   1   7
BRANCH   6  13
ATOM     13  N   LIG d   1      -9.011  79.398 118.625  0.00  0.00    -0.311 N 
ATOM     14  C   LIG d   1      -9.555  78.263 118.190  0.00  0.00     0.210 C 
ATOM     15  C   LIG d   1      -8.572  77.278 117.549  0.00  0.00     0.109 C 
ATOM     16  O   LIG d   1     -10.764  77.992 118.244  0.00  0.00    -0.276 OA
ATOM     17  H   LIG d   1      -8.028  79.548 118.512  0.00  0.00     0.149 HD
ENDBRANCH   6  13
BRANCH   5  18
ATOM     18  N   LIG d   1     -10.379  81.716 117.180  0.00  0.00     0.381 N 
ATOM     19  H   LIG d   1     -11.371  81.809 117.272  0.00  0.00    -0.090 HD
ATOM     20  H   LIG d   1     -10.182  80.813 116.787  0.00  0.00    -0.090 HD
ATOM     21  H   LIG d   1     -10.025  82.431 116.584  0.00  0.00    -0.090 HD
ENDBRANCH   5  18
BRANCH   3  22
ATOM     22  C   LIG d   1     -10.148  84.205 121.265  0.00  0.00     0.382 C 
ATOM     23  O   LIG d   1     -11.256  84.786 121.362  0.00  0.00    -0.241 OA
ATOM     24  O   LIG d   1      -9.123  84.765 121.697  0.00  0.00    -0.241 OA
ENDBRANCH   3  22
TORSDOF 7
ENDMDL
MODEL 7
REMARK VINA RESULT:      -4.2      9.163     12.547
REMARK  7 active torsions:
REMARK  status: ('A' for Active; 'I' for Inactive)
REMARK    1  A    between atoms: C_2  and  C_3 
REMARK    2  A    between atoms: C_3  and  O_6 
REMARK    3  A    between atoms: C_3  and  C_4 
REMARK    4  A    between atoms: C_7  and  O_6 
REMARK    5  A    between atoms: C_9  and  C_10 
REMARK    6  A    between atoms: N_15  and  C_14 
REMARK    7  A    between atoms: N_20  and  C_19 
REMARK       I    between atoms: C_22  and  N_20 
ROOT
ATOM      1  C   LIG d   1     -19.472  76.119 121.066  0.00  0.00     0.161 C 
ATOM      2  C   LIG d   1     -20.797  76.273 120.624  0.00  0.00     0.016 C 
ATOM      3  C   LIG d   1     -21.311  77.488 120.114  0.00  0.00     0.038 C 
ATOM      4  C   LIG d   1     -20.487  78.597 119.870  0.00  0.00     0.028 C 
ATOM      5  C   LIG d   1     -19.258  78.648 120.770  0.00  0.00    -0.047 C 
ATOM      6  C   LIG d   1     -18.530  77.286 120.704  0.00  0.00     0.091 C 
ENDROOT
BRANCH   1   7
ATOM      7  O   LIG d   1     -18.937  74.873 120.579  0.00  0.00    -0.368 OA
BRANCH   7   8
ATOM      8  C   LIG d   1     -19.028  73.744 121.483  0.00  0.00     0.119 C 
BRANCH   8   9
ATOM      9  C   LIG d   1     -17.657  73.586 122.167  0.00  0.00     0.028 C 
ATOM     10  C   LIG d   1     -17.671  74.067 123.628  0.00  0.00     0.006 C 
ENDBRANCH   8   9
BRANCH   8  11
ATOM     11  C   LIG d   1     -19.254  72.436 120.719  0.00  0.00     0.028 C 
ATOM     12  C   LIG d   1     -20.741  72.071 120.587  0.00  0.00     0.006 C 
ENDBRANCH   8  11
ENDBRANCH   7   8
ENDBRANCH   1   7
BRANCH   6  13
ATOM     13  N   LIG d   1     -17.362  77.222 121.621  0.00  0.00    -0.311 N 
ATOM     14  C   LIG d   1     -16.178  76.726 121.267  0.00  0.00     0.210 C 
ATOM     15  C   LIG d   1     -15.116  76.736 122.371  0.00  0.00     0.109 C 
ATOM     16  O   LIG d   1     -15.897  76.307 120.133  0.00  0.00    -0.276 OA
ATOM     17  H   LIG d   1     -17.493  77.569 122.551  0.00  0.00     0.149 HD
ENDBRANCH   6  13
BRANCH   5  18
ATOM     18  N   LIG d   1     -18.420  79.774 120.316  0.00  0.00     0.381 N 
ATOM     19  H   LIG d   1     -18.443  80.509 120.995  0.00  0.00    -0.090 HD
ATOM     20  H   LIG d   1     -18.792  80.130 119.453  0.00  0.00    -0.090 HD
ATOM     21  H   LIG d   1     -17.481  79.468 120.180  0.00  0.00    -0.090 HD
ENDBRANCH   5  18
BRANCH   3  22
ATOM     22  C   LIG d   1     -22.672  77.614 119.880  0.00  0.00     0.382 C 
ATOM     23  O   LIG d   1     -23.422  76.615 119.991  0.00  0.00    -0.241 OA
ATOM     24  O   LIG d   1     -23.152  78.704 119.516  0.00  0.00    -0.241 OA
ENDBRANCH   3  22
TORSDOF 7
ENDMDL
MODEL 8
REMARK VINA RESULT:      -4.2     13.932     16.478
REMARK  7 active torsions:
REMARK  status: ('A' for Active; 'I' for Inactive)
REMARK    1  A    between atoms: C_2  and  C_3 
REMARK    2  A    between atoms: C_3  and  O_6 
REMARK    3  A    between atoms: C_3  and  C_4 
REMARK    4  A    between atoms: C_7  and  O_6 
REMARK    5  A    between atoms: C_9  and  C_10 
REMARK    6  A    between atoms: N_15  and  C_14 
REMARK    7  A    between atoms: N_20  and  C_19 
REMARK       I    between atoms: C_22  and  N_20 
ROOT
ATOM      1  C   LIG d   1      -5.412  94.732 119.268  0.00  0.00     0.161 C 
ATOM      2  C   LIG d   1      -4.096  94.553 118.811  0.00  0.00     0.016 C 
ATOM      3  C   LIG d   1      -3.678  93.428 118.063  0.00  0.00     0.038 C 
ATOM      4  C   LIG d   1      -4.590  92.472 117.590  0.00  0.00     0.028 C 
ATOM      5  C   LIG d   1      -5.840  92.348 118.453  0.00  0.00    -0.047 C 
ATOM      6  C   LIG d   1      -6.444  93.755 118.667  0.00  0.00     0.091 C 
ENDROOT
BRANCH   1   7
ATOM      7  O   LIG d   1      -5.825  96.095 119.048  0.00  0.00    -0.368 OA
BRANCH   7   8
ATOM      8  C   LIG d   1      -5.660  97.000 120.168  0.00  0.00     0.119 C 
BRANCH   8   9
ATOM      9  C   LIG d   1      -6.862  96.795 121.109  0.00  0.00     0.028 C 
ATOM     10  C   LIG d   1      -8.097  97.600 120.669  0.00  0.00     0.006 C 
ENDBRANCH   8   9
BRANCH   8  11
ATOM     11  C   LIG d   1      -5.741  98.462 119.719  0.00  0.00     0.028 C 
ATOM     12  C   LIG d   1      -5.160  98.687 118.314  0.00  0.00     0.006 C 
ENDBRANCH   8  11
ENDBRANCH   7   8
ENDBRANCH   1   7
BRANCH   6  13
ATOM     13  N   LIG d   1      -7.624  93.734 119.571  0.00  0.00    -0.311 N 
ATOM     14  C   LIG d   1      -8.834  94.156 119.207  0.00  0.00     0.210 C 
ATOM     15  C   LIG d   1      -9.905  94.066 120.299  0.00  0.00     0.109 C 
ATOM     16  O   LIG d   1      -9.129  94.567 118.075  0.00  0.00    -0.276 OA
ATOM     17  H   LIG d   1      -7.481  93.387 120.499  0.00  0.00     0.149 HD
ENDBRANCH   6  13
BRANCH   5  18
ATOM     18  N   LIG d   1      -6.762  91.420 117.771  0.00  0.00     0.381 N 
ATOM     19  H   LIG d   1      -6.943  90.630 118.357  0.00  0.00    -0.090 HD
ATOM     20  H   LIG d   1      -6.328  91.093 116.926  0.00  0.00    -0.090 HD
ATOM     21  H   LIG d   1      -7.617  91.886 117.556  0.00  0.00    -0.090 HD
ENDBRANCH   5  18
BRANCH   3  22
ATOM     22  C   LIG d   1      -2.328  93.230 117.816  0.00  0.00     0.382 C 
ATOM     23  O   LIG d   1      -1.635  94.161 117.339  0.00  0.00    -0.241 OA
ATOM     24  O   LIG d   1      -1.804  92.119 118.022  0.00  0.00    -0.241 OA
ENDBRANCH   3  22
TORSDOF 7
ENDMDL
MODEL 9
REMARK VINA RESULT:      -4.2      3.535      5.508
REMARK  7 active torsions:
REMARK  status: ('A' for Active; 'I' for Inactive)
REMARK    1  A    between atoms: C_2  and  C_3 
REMARK    2  A    between atoms: C_3  and  O_6 
REMARK    3  A    between atoms: C_3  and  C_4 
REMARK    4  A    between atoms: C_7  and  O_6 
REMARK    5  A    between atoms: C_9  and  C_10 
REMARK    6  A    between atoms: N_15  and  C_14 
REMARK    7  A    between atoms: N_20  and  C_19 
REMARK       I    between atoms: C_22  and  N_20 
ROOT
ATOM      1  C   LIG d   1      -9.703  80.647 120.858  0.00  0.00     0.161 C 
ATOM      2  C   LIG d   1     -10.545  81.338 121.745  0.00  0.00     0.016 C 
ATOM      3  C   LIG d   1     -10.552  82.745 121.875  0.00  0.00     0.038 C 
ATOM      4  C   LIG d   1      -9.819  83.573 121.011  0.00  0.00     0.028 C 
ATOM      5  C   LIG d   1      -8.575  82.901 120.440  0.00  0.00    -0.047 C 
ATOM      6  C   LIG d   1      -8.976  81.539 119.829  0.00  0.00     0.091 C 
ENDROOT
BRANCH   1   7
ATOM      7  O   LIG d   1     -10.446  79.611 120.185  0.00  0.00    -0.368 OA
BRANCH   7   8
ATOM      8  C   LIG d   1     -10.220  78.258 120.653  0.00  0.00     0.119 C 
BRANCH   8   9
ATOM      9  C   LIG d   1      -9.289  77.567 119.639  0.00  0.00     0.028 C 
ATOM     10  C   LIG d   1      -9.708  77.832 118.183  0.00  0.00     0.006 C 
ENDBRANCH   8   9
BRANCH   8  11
ATOM     11  C   LIG d   1     -11.514  77.440 120.639  0.00  0.00     0.028 C 
ATOM     12  C   LIG d   1     -12.080  77.195 122.047  0.00  0.00     0.006 C 
ENDBRANCH   8  11
ENDBRANCH   7   8
ENDBRANCH   1   7
BRANCH   6  13
ATOM     13  N   LIG d   1      -7.805  80.778 119.322  0.00  0.00    -0.311 N 
ATOM     14  C   LIG d   1      -7.384  80.834 118.060  0.00  0.00     0.210 C 
ATOM     15  C   LIG d   1      -6.170  79.955 117.743  0.00  0.00     0.109 C 
ATOM     16  O   LIG d   1      -7.882  81.553 117.180  0.00  0.00    -0.276 OA
ATOM     17  H   LIG d   1      -7.323  80.193 119.977  0.00  0.00     0.149 HD
ENDBRANCH   6  13
BRANCH   5  18
ATOM     18  N   LIG d   1      -7.983  83.825 119.453  0.00  0.00     0.381 N 
ATOM     19  H   LIG d   1      -8.703  84.376 119.031  0.00  0.00    -0.090 HD
ATOM     20  H   LIG d   1      -7.534  83.287 118.733  0.00  0.00    -0.090 HD
ATOM     21  H   LIG d   1      -7.318  84.418 119.898  0.00  0.00    -0.090 HD
ENDBRANCH   5  18
BRANCH   3  22
ATOM     22  C   LIG d   1     -11.269  83.337 122.904  0.00  0.00     0.382 C 
ATOM     23  O   LIG d   1     -11.713  82.635 123.843  0.00  0.00    -0.241 OA
ATOM     24  O   LIG d   1     -11.516  84.558 122.881  0.00  0.00    -0.241 OA
ENDBRANCH   3  22
TORSDOF 7
ENDMDL
