MODEL 1
REMARK VINA RESULT:      -4.9      0.000      0.000
REMARK  7 active torsions:
REMARK  status: ('A' for Active; 'I' for Inactive)
REMARK    1  A    between atoms: C_2  and  C_3 
REMARK    2  A    between atoms: C_3  and  O_6 
REMARK    3  A    between atoms: C_3  and  C_4 
REMARK    4  A    between atoms: C_7  and  O_6 
REMARK    5  A    between atoms: C_9  and  C_10 
REMARK    6  A    between atoms: N_15  and  C_14 
REMARK    7  A    between atoms: N_20  and  C_19 
REMARK       I    between atoms: C_22  and  N_20 
ROOT
ATOM      1  C   LIG d   1      -5.761  94.732 120.268  0.00  0.00     0.161 C 
ATOM      2  C   LIG d   1      -6.977  94.041 120.406  0.00  0.00     0.016 C 
ATOM      3  C   LIG d   1      -8.237  94.622 120.138  0.00  0.00     0.038 C 
ATOM      4  C   LIG d   1      -8.359  95.896 119.564  0.00  0.00     0.028 C 
ATOM      5  C   LIG d   1      -7.186  96.817 119.879  0.00  0.00    -0.047 C 
ATOM      6  C   LIG d   1      -5.867  96.086 119.536  0.00  0.00     0.091 C 
ENDROOT
BRANCH   1   7
ATOM      7  O   LIG d   1      -4.790  93.887 119.619  0.00  0.00    -0.368 OA
BRANCH   7   8
ATOM      8  C   LIG d   1      -4.966  92.460 119.798  0.00  0.00     0.119 C 
BRANCH   8   9
ATOM      9  C   LIG d   1      -3.830  91.964 120.712  0.00  0.00     0.028 C 
ATOM     10  C   LIG d   1      -2.675  91.327 119.921  0.00  0.00     0.006 C 
ENDBRANCH   8   9
BRANCH   8  11
ATOM     11  C   LIG d   1      -4.782  91.706 118.477  0.00  0.00     0.028 C 
ATOM     12  C   LIG d   1      -6.050  91.709 117.608  0.00  0.00     0.006 C 
ENDBRANCH   8  11
ENDBRANCH   7   8
ENDBRANCH   1   7
BRANCH   6  13
ATOM     13  N   LIG d   1      -4.667  96.885 119.894  0.00  0.00    -0.311 N 
ATOM     14  C   LIG d   1      -4.079  97.740 119.058  0.00  0.00     0.210 C 
ATOM     15  C   LIG d   1      -2.842  98.447 119.620  0.00  0.00     0.109 C 
ATOM     16  O   LIG d   1      -4.484  98.003 117.916  0.00  0.00    -0.276 OA
ATOM     17  H   LIG d   1      -4.290  96.757 120.813  0.00  0.00     0.149 HD
ENDBRANCH   6  13
BRANCH   5  18
ATOM     18  N   LIG d   1      -7.375  98.060 119.108  0.00  0.00     0.381 N 
ATOM     19  H   LIG d   1      -8.333  98.345 119.154  0.00  0.00    -0.090 HD
ATOM     20  H   LIG d   1      -7.145  97.884 118.145  0.00  0.00    -0.090 HD
ATOM     21  H   LIG d   1      -6.789  98.779 119.470  0.00  0.00    -0.090 HD
ENDBRANCH   5  18
BRANCH   3  22
ATOM     22  C   LIG d   1      -9.395  93.941 120.482  0.00  0.00     0.382 C 
ATOM     23  O   LIG d   1      -9.625  93.662 121.684  0.00  0.00    -0.241 OA
ATOM     24  O   LIG d   1     -10.191  93.563 119.602  0.00  0.00    -0.241 OA
ENDBRANCH   3  22
TORSDOF 7
ENDMDL
MODEL 2
REMARK VINA RESULT:      -4.8      2.359      5.725
REMARK  7 active torsions:
REMARK  status: ('A' for Active; 'I' for Inactive)
REMARK    1  A    between atoms: C_2  and  C_3 
REMARK    2  A    between atoms: C_3  and  O_6 
REMARK    3  A    between atoms: C_3  and  C_4 
REMARK    4  A    between atoms: C_7  and  O_6 
REMARK    5  A    between atoms: C_9  and  C_10 
REMARK    6  A    between atoms: N_15  and  C_14 
REMARK    7  A    between atoms: N_20  and  C_19 
REMARK       I    between atoms: C_22  and  N_20 
ROOT
ATOM      1  C   LIG d   1      -5.059  93.961 120.446  0.00  0.00     0.161 C 
ATOM      2  C   LIG d   1      -3.779  93.455 120.161  0.00  0.00     0.016 C 
ATOM      3  C   LIG d   1      -3.535  92.459 119.188  0.00  0.00     0.038 C 
ATOM      4  C   LIG d   1      -4.541  92.006 118.322  0.00  0.00     0.028 C 
ATOM      5  C   LIG d   1      -5.943  92.119 118.911  0.00  0.00    -0.047 C 
ATOM      6  C   LIG d   1      -6.153  93.558 119.435  0.00  0.00     0.091 C 
ENDROOT
BRANCH   1   7
ATOM      7  O   LIG d   1      -5.000  95.395 120.576  0.00  0.00    -0.368 OA
BRANCH   7   8
ATOM      8  C   LIG d   1      -5.228  96.155 119.364  0.00  0.00     0.119 C 
BRANCH   8   9
ATOM      9  C   LIG d   1      -3.963  96.995 119.100  0.00  0.00     0.028 C 
ATOM     10  C   LIG d   1      -3.099  97.167 120.360  0.00  0.00     0.006 C 
ENDBRANCH   8   9
BRANCH   8  11
ATOM     11  C   LIG d   1      -6.359  97.171 119.547  0.00  0.00     0.028 C 
ATOM     12  C   LIG d   1      -6.873  97.235 120.994  0.00  0.00     0.006 C 
ENDBRANCH   8  11
ENDBRANCH   7   8
ENDBRANCH   1   7
BRANCH   6  13
ATOM     13  N   LIG d   1      -7.469  93.733 120.103  0.00  0.00    -0.311 N 
ATOM     14  C   LIG d   1      -8.586  94.047 119.450  0.00  0.00     0.210 C 
ATOM     15  C   LIG d   1      -9.830  94.198 120.332  0.00  0.00     0.109 C 
ATOM     16  O   LIG d   1      -8.673  94.182 118.220  0.00  0.00    -0.276 OA
ATOM     17  H   LIG d   1      -7.496  93.610 121.096  0.00  0.00     0.149 HD
ENDBRANCH   6  13
BRANCH   5  18
ATOM     18  N   LIG d   1      -6.902  91.743 117.855  0.00  0.00     0.381 N 
ATOM     19  H   LIG d   1      -6.411  91.353 117.075  0.00  0.00    -0.090 HD
ATOM     20  H   LIG d   1      -7.384  92.568 117.544  0.00  0.00    -0.090 HD
ATOM     21  H   LIG d   1      -7.557  91.081 118.209  0.00  0.00    -0.090 HD
ENDBRANCH   5  18
BRANCH   3  22
ATOM     22  C   LIG d   1      -2.280  91.877 119.101  0.00  0.00     0.382 C 
ATOM     23  O   LIG d   1      -1.752  91.369 120.120  0.00  0.00    -0.241 OA
ATOM     24  O   LIG d   1      -1.649  91.892 118.027  0.00  0.00    -0.241 OA
ENDBRANCH   3  22
TORSDOF 7
ENDMDL
MODEL 3
REMARK VINA RESULT:      -4.4     28.772     31.116
REMARK  7 active torsions:
REMARK  status: ('A' for Active; 'I' for Inactive)
REMARK    1  A    between atoms: C_2  and  C_3 
REMARK    2  A    between atoms: C_3  and  O_6 
REMARK    3  A    between atoms: C_3  and  C_4 
REMARK    4  A    between atoms: C_7  and  O_6 
REMARK    5  A    between atoms: C_9  and  C_10 
REMARK    6  A    between atoms: N_15  and  C_14 
REMARK    7  A    between atoms: N_20  and  C_19 
REMARK       I    between atoms: C_22  and  N_20 
ROOT
ATOM      1  C   LIG d   1     -13.497  65.227 121.773  0.00  0.00     0.161 C 
ATOM      2  C   LIG d   1     -12.226  65.094 122.356  0.00  0.00     0.016 C 
ATOM      3  C   LIG d   1     -11.328  64.050 122.033  0.00  0.00     0.038 C 
ATOM      4  C   LIG d   1     -11.582  63.149 120.989  0.00  0.00     0.028 C 
ATOM      5  C   LIG d   1     -13.069  62.939 120.719  0.00  0.00    -0.047 C 
ATOM      6  C   LIG d   1     -13.748  64.318 120.552  0.00  0.00     0.091 C 
ENDROOT
BRANCH   1   7
ATOM      7  O   LIG d   1     -13.735  66.606 121.429  0.00  0.00    -0.368 OA
BRANCH   7   8
ATOM      8  C   LIG d   1     -13.646  67.559 122.516  0.00  0.00     0.119 C 
BRANCH   8   9
ATOM      9  C   LIG d   1     -15.077  68.034 122.834  0.00  0.00     0.028 C 
ATOM     10  C   LIG d   1     -16.078  67.663 121.727  0.00  0.00     0.006 C 
ENDBRANCH   8   9
BRANCH   8  11
ATOM     11  C   LIG d   1     -12.886  68.819 122.091  0.00  0.00     0.028 C 
ATOM     12  C   LIG d   1     -13.308  70.066 122.884  0.00  0.00     0.006 C 
ENDBRANCH   8  11
ENDBRANCH   7   8
ENDBRANCH   1   7
BRANCH   6  13
ATOM     13  N   LIG d   1     -15.218  64.206 120.368  0.00  0.00    -0.311 N 
ATOM     14  C   LIG d   1     -15.803  64.114 119.175  0.00  0.00     0.210 C 
ATOM     15  C   LIG d   1     -17.332  64.029 119.209  0.00  0.00     0.109 C 
ATOM     16  O   LIG d   1     -15.199  64.062 118.093  0.00  0.00    -0.276 OA
ATOM     17  H   LIG d   1     -15.783  64.209 121.195  0.00  0.00     0.149 HD
ENDBRANCH   6  13
BRANCH   5  18
ATOM     18  N   LIG d   1     -13.188  62.087 119.521  0.00  0.00     0.381 N 
ATOM     19  H   LIG d   1     -13.567  61.197 119.774  0.00  0.00    -0.090 HD
ATOM     20  H   LIG d   1     -12.272  61.941 119.133  0.00  0.00    -0.090 HD
ATOM     21  H   LIG d   1     -13.775  62.527 118.847  0.00  0.00    -0.090 HD
ENDBRANCH   5  18
BRANCH   3  22
ATOM     22  C   LIG d   1     -10.177  63.877 122.787  0.00  0.00     0.382 C 
ATOM     23  O   LIG d   1      -9.446  62.876 122.593  0.00  0.00    -0.241 OA
ATOM     24  O   LIG d   1      -9.884  64.685 123.688  0.00  0.00    -0.241 OA
ENDBRANCH   3  22
TORSDOF 7
ENDMDL
MODEL 4
REMARK VINA RESULT:      -4.3     19.130     21.170
REMARK  7 active torsions:
REMARK  status: ('A' for Active; 'I' for Inactive)
REMARK    1  A    between atoms: C_2  and  C_3 
REMARK    2  A    between atoms: C_3  and  O_6 
REMARK    3  A    between atoms: C_3  and  C_4 
REMARK    4  A    between atoms: C_7  and  O_6 
REMARK    5  A    between atoms: C_9  and  C_10 
REMARK    6  A    between atoms: N_15  and  C_14 
REMARK    7  A    between atoms: N_20  and  C_19 
REMARK       I    between atoms: C_22  and  N_20 
ROOT
ATOM      1  C   LIG d   1     -18.786  77.773 120.924  0.00  0.00     0.161 C 
ATOM      2  C   LIG d   1     -20.045  77.280 120.543  0.00  0.00     0.016 C 
ATOM      3  C   LIG d   1     -21.147  78.112 120.239  0.00  0.00     0.038 C 
ATOM      4  C   LIG d   1     -21.020  79.507 120.149  0.00  0.00     0.028 C 
ATOM      5  C   LIG d   1     -19.900  80.070 121.016  0.00  0.00    -0.047 C 
ATOM      6  C   LIG d   1     -18.598  79.291 120.723  0.00  0.00     0.091 C 
ENDROOT
BRANCH   1   7
ATOM      7  O   LIG d   1     -17.749  77.044 120.239  0.00  0.00    -0.368 OA
BRANCH   7   8
ATOM      8  C   LIG d   1     -17.519  75.686 120.690  0.00  0.00     0.119 C 
BRANCH   8   9
ATOM      9  C   LIG d   1     -16.011  75.543 120.976  0.00  0.00     0.028 C 
ATOM     10  C   LIG d   1     -15.700  74.356 121.903  0.00  0.00     0.006 C 
ENDBRANCH   8   9
BRANCH   8  11
ATOM     11  C   LIG d   1     -17.820  74.672 119.582  0.00  0.00     0.028 C 
ATOM     12  C   LIG d   1     -18.862  73.624 120.002  0.00  0.00     0.006 C 
ENDBRANCH   8  11
ENDBRANCH   7   8
ENDBRANCH   1   7
BRANCH   6  13
ATOM     13  N   LIG d   1     -17.471  79.723 121.590  0.00  0.00    -0.311 N 
ATOM     14  C   LIG d   1     -16.600  80.669 121.243  0.00  0.00     0.210 C 
ATOM     15  C   LIG d   1     -15.503  80.947 122.276  0.00  0.00     0.109 C 
ATOM     16  O   LIG d   1     -16.650  81.326 120.193  0.00  0.00    -0.276 OA
ATOM     17  H   LIG d   1     -17.374  79.264 122.475  0.00  0.00     0.149 HD
ENDBRANCH   6  13
BRANCH   5  18
ATOM     18  N   LIG d   1     -19.790  81.512 120.720  0.00  0.00     0.381 N 
ATOM     19  H   LIG d   1     -20.614  81.985 121.032  0.00  0.00    -0.090 HD
ATOM     20  H   LIG d   1     -19.712  81.634 119.726  0.00  0.00    -0.090 HD
ATOM     21  H   LIG d   1     -18.988  81.892 121.173  0.00  0.00    -0.090 HD
ENDBRANCH   5  18
BRANCH   3  22
ATOM     22  C   LIG d   1     -22.403  77.552 120.061  0.00  0.00     0.382 C 
ATOM     23  O   LIG d   1     -23.422  78.285 120.060  0.00  0.00    -0.241 OA
ATOM     24  O   LIG d   1     -22.534  76.319 119.946  0.00  0.00    -0.241 OA
ENDBRANCH   3  22
TORSDOF 7
ENDMDL
MODEL 5
REMARK VINA RESULT:      -4.2     34.170     36.742
REMARK  7 active torsions:
REMARK  status: ('A' for Active; 'I' for Inactive)
REMARK    1  A    between atoms: C_2  and  C_3 
REMARK    2  A    between atoms: C_3  and  O_6 
REMARK    3  A    between atoms: C_3  and  C_4 
REMARK    4  A    between atoms: C_7  and  O_6 
REMARK    5  A    between atoms: C_9  and  C_10 
REMARK    6  A    between atoms: N_15  and  C_14 
REMARK    7  A    between atoms: N_20  and  C_19 
REMARK       I    between atoms: C_22  and  N_20 
ROOT
ATOM      1  C   LIG d   1       0.049  58.865 119.488  0.00  0.00     0.161 C 
ATOM      2  C   LIG d   1      -0.649  59.853 120.202  0.00  0.00     0.016 C 
ATOM      3  C   LIG d   1      -0.109  60.535 121.317  0.00  0.00     0.038 C 
ATOM      4  C   LIG d   1       1.230  60.381 121.704  0.00  0.00     0.028 C 
ATOM      5  C   LIG d   1       1.817  59.024 121.327  0.00  0.00    -0.047 C 
ATOM      6  C   LIG d   1       1.551  58.762 119.826  0.00  0.00     0.091 C 
ENDROOT
BRANCH   1   7
ATOM      7  O   LIG d   1      -0.133  59.064 118.073  0.00  0.00    -0.368 OA
BRANCH   7   8
ATOM      8  C   LIG d   1      -1.067  58.170 117.418  0.00  0.00     0.119 C 
BRANCH   8   9
ATOM      9  C   LIG d   1      -2.371  58.957 117.180  0.00  0.00     0.028 C 
ATOM     10  C   LIG d   1      -3.433  58.671 118.255  0.00  0.00     0.006 C 
ENDBRANCH   8   9
BRANCH   8  11
ATOM     11  C   LIG d   1      -1.457  57.005 118.333  0.00  0.00     0.028 C 
ATOM     12  C   LIG d   1      -1.055  55.637 117.760  0.00  0.00     0.006 C 
ENDBRANCH   8  11
ENDBRANCH   7   8
ENDBRANCH   1   7
BRANCH   6  13
ATOM     13  N   LIG d   1       2.019  57.420 119.394  0.00  0.00    -0.311 N 
ATOM     14  C   LIG d   1       2.775  57.219 118.316  0.00  0.00     0.210 C 
ATOM     15  C   LIG d   1       3.129  55.754 118.038  0.00  0.00     0.109 C 
ATOM     16  O   LIG d   1       3.212  58.117 117.581  0.00  0.00    -0.276 OA
ATOM     17  H   LIG d   1       1.736  56.637 119.951  0.00  0.00     0.149 HD
ENDBRANCH   6  13
BRANCH   5  18
ATOM     18  N   LIG d   1       3.253  59.051 121.663  0.00  0.00     0.381 N 
ATOM     19  H   LIG d   1       3.487  59.931 122.079  0.00  0.00    -0.090 HD
ATOM     20  H   LIG d   1       3.787  58.949 120.818  0.00  0.00    -0.090 HD
ATOM     21  H   LIG d   1       3.469  58.310 122.293  0.00  0.00    -0.090 HD
ENDBRANCH   5  18
BRANCH   3  22
ATOM     22  C   LIG d   1      -0.926  61.353 122.083  0.00  0.00     0.382 C 
ATOM     23  O   LIG d   1      -0.778  62.598 122.045  0.00  0.00    -0.241 OA
ATOM     24  O   LIG d   1      -1.778  60.859 122.845  0.00  0.00    -0.241 OA
ENDBRANCH   3  22
TORSDOF 7
ENDMDL
MODEL 6
REMARK VINA RESULT:      -4.1     11.486     13.760
REMARK  7 active torsions:
REMARK  status: ('A' for Active; 'I' for Inactive)
REMARK    1  A    between atoms: C_2  and  C_3 
REMARK    2  A    between atoms: C_3  and  O_6 
REMARK    3  A    between atoms: C_3  and  C_4 
REMARK    4  A    between atoms: C_7  and  O_6 
REMARK    5  A    between atoms: C_9  and  C_10 
REMARK    6  A    between atoms: N_15  and  C_14 
REMARK    7  A    between atoms: N_20  and  C_19 
REMARK       I    between atoms: C_22  and  N_20 
ROOT
ATOM      1  C   LIG d   1      -6.755  81.668 119.720  0.00  0.00     0.161 C 
ATOM      2  C   LIG d   1      -6.581  80.406 119.128  0.00  0.00     0.016 C 
ATOM      3  C   LIG d   1      -7.429  79.896 118.118  0.00  0.00     0.038 C 
ATOM      4  C   LIG d   1      -8.426  80.681 117.521  0.00  0.00     0.028 C 
ATOM      5  C   LIG d   1      -8.961  81.778 118.435  0.00  0.00    -0.047 C 
ATOM      6  C   LIG d   1      -7.770  82.583 119.003  0.00  0.00     0.091 C 
ENDROOT
BRANCH   1   7
ATOM      7  O   LIG d   1      -5.481  82.331 119.841  0.00  0.00    -0.368 OA
BRANCH   7   8
ATOM      8  C   LIG d   1      -4.723  82.041 121.041  0.00  0.00     0.119 C 
BRANCH   8   9
ATOM      9  C   LIG d   1      -5.401  82.786 122.208  0.00  0.00     0.028 C 
ATOM     10  C   LIG d   1      -5.352  84.314 122.036  0.00  0.00     0.006 C 
ENDBRANCH   8   9
BRANCH   8  11
ATOM     11  C   LIG d   1      -3.307  82.618 120.959  0.00  0.00     0.028 C 
ATOM     12  C   LIG d   1      -2.721  82.560 119.540  0.00  0.00     0.006 C 
ENDBRANCH   8  11
ENDBRANCH   7   8
ENDBRANCH   1   7
BRANCH   6  13
ATOM     13  N   LIG d   1      -8.201  83.623 119.974  0.00  0.00    -0.311 N 
ATOM     14  C   LIG d   1      -8.921  83.357 121.062  0.00  0.00     0.210 C 
ATOM     15  C   LIG d   1      -9.275  84.578 121.918  0.00  0.00     0.109 C 
ATOM     16  O   LIG d   1      -9.274  82.223 121.417  0.00  0.00    -0.276 OA
ATOM     17  H   LIG d   1      -7.931  84.568 119.780  0.00  0.00     0.149 HD
ENDBRANCH   6  13
BRANCH   5  18
ATOM     18  N   LIG d   1      -9.892  82.604 117.643  0.00  0.00     0.381 N 
ATOM     19  H   LIG d   1      -9.716  83.574 117.816  0.00  0.00    -0.090 HD
ATOM     20  H   LIG d   1     -10.833  82.399 117.928  0.00  0.00    -0.090 HD
ATOM     21  H   LIG d   1      -9.781  82.408 116.672  0.00  0.00    -0.090 HD
ENDBRANCH   5  18
BRANCH   3  22
ATOM     22  C   LIG d   1      -7.308  78.572 117.723  0.00  0.00     0.382 C 
ATOM     23  O   LIG d   1      -8.261  77.776 117.902  0.00  0.00    -0.241 OA
ATOM     24  O   LIG d   1      -6.243  78.154 117.231  0.00  0.00    -0.241 OA
ENDBRANCH   3  22
TORSDOF 7
ENDMDL
MODEL 7
REMARK VINA RESULT:      -4.1     17.970     20.086
REMARK  7 active torsions:
REMARK  status: ('A' for Active; 'I' for Inactive)
REMARK    1  A    between atoms: C_2  and  C_3 
REMARK    2  A    between atoms: C_3  and  O_6 
REMARK    3  A    between atoms: C_3  and  C_4 
REMARK    4  A    between atoms: C_7  and  O_6 
REMARK    5  A    between atoms: C_9  and  C_10 
REMARK    6  A    between atoms: N_15  and  C_14 
REMARK    7  A    between atoms: N_20  and  C_19 
REMARK       I    between atoms: C_22  and  N_20 
ROOT
ATOM      1  C   LIG d   1     -17.842  78.474 121.812  0.00  0.00     0.161 C 
ATOM      2  C   LIG d   1     -18.318  77.217 121.401  0.00  0.00     0.016 C 
ATOM      3  C   LIG d   1     -19.284  77.046 120.383  0.00  0.00     0.038 C 
ATOM      4  C   LIG d   1     -19.731  78.119 119.597  0.00  0.00     0.028 C 
ATOM      5  C   LIG d   1     -19.656  79.465 120.311  0.00  0.00    -0.047 C 
ATOM      6  C   LIG d   1     -18.235  79.647 120.891  0.00  0.00     0.091 C 
ENDROOT
BRANCH   1   7
ATOM      7  O   LIG d   1     -16.410  78.424 121.976  0.00  0.00    -0.368 OA
BRANCH   7   8
ATOM      8  C   LIG d   1     -15.928  78.344 123.340  0.00  0.00     0.119 C 
BRANCH   8   9
ATOM      9  C   LIG d   1     -15.412  79.743 123.731  0.00  0.00     0.028 C 
ATOM     10  C   LIG d   1     -14.620  80.414 122.596  0.00  0.00     0.006 C 
ENDBRANCH   8   9
BRANCH   8  11
ATOM     11  C   LIG d   1     -14.712  77.419 123.447  0.00  0.00     0.028 C 
ATOM     12  C   LIG d   1     -14.721  76.298 122.396  0.00  0.00     0.006 C 
ENDBRANCH   8  11
ENDBRANCH   7   8
ENDBRANCH   1   7
BRANCH   6  13
ATOM     13  N   LIG d   1     -18.101  80.901 121.677  0.00  0.00    -0.311 N 
ATOM     14  C   LIG d   1     -17.691  82.055 121.153  0.00  0.00     0.210 C 
ATOM     15  C   LIG d   1     -17.604  83.220 122.143  0.00  0.00     0.109 C 
ATOM     16  O   LIG d   1     -17.423  82.232 119.955  0.00  0.00    -0.276 OA
ATOM     17  H   LIG d   1     -18.328  80.855 122.651  0.00  0.00     0.149 HD
ENDBRANCH   6  13
BRANCH   5  18
ATOM     18  N   LIG d   1     -20.021  80.508 119.334  0.00  0.00     0.381 N 
ATOM     19  H   LIG d   1     -19.249  81.130 119.199  0.00  0.00    -0.090 HD
ATOM     20  H   LIG d   1     -20.794  81.038 119.696  0.00  0.00    -0.090 HD
ATOM     21  H   LIG d   1     -20.274  80.089 118.466  0.00  0.00    -0.090 HD
ENDBRANCH   5  18
BRANCH   3  22
ATOM     22  C   LIG d   1     -19.843  75.795 120.169  0.00  0.00     0.382 C 
ATOM     23  O   LIG d   1     -21.024  75.699 119.759  0.00  0.00    -0.241 OA
ATOM     24  O   LIG d   1     -19.195  74.762 120.424  0.00  0.00    -0.241 OA
ENDBRANCH   3  22
TORSDOF 7
ENDMDL
MODEL 8
REMARK VINA RESULT:      -4.1     18.728     20.612
REMARK  7 active torsions:
REMARK  status: ('A' for Active; 'I' for Inactive)
REMARK    1  A    between atoms: C_2  and  C_3 
REMARK    2  A    between atoms: C_3  and  O_6 
REMARK    3  A    between atoms: C_3  and  C_4 
REMARK    4  A    between atoms: C_7  and  O_6 
REMARK    5  A    between atoms: C_9  and  C_10 
REMARK    6  A    between atoms: N_15  and  C_14 
REMARK    7  A    between atoms: N_20  and  C_19 
REMARK       I    between atoms: C_22  and  N_20 
ROOT
ATOM      1  C   LIG d   1     -19.025  78.816 120.341  0.00  0.00     0.161 C 
ATOM      2  C   LIG d   1     -19.808  79.694 119.573  0.00  0.00     0.016 C 
ATOM      3  C   LIG d   1     -19.918  81.077 119.842  0.00  0.00     0.038 C 
ATOM      4  C   LIG d   1     -19.126  81.708 120.814  0.00  0.00     0.028 C 
ATOM      5  C   LIG d   1     -18.699  80.779 121.945  0.00  0.00    -0.047 C 
ATOM      6  C   LIG d   1     -18.069  79.505 121.336  0.00  0.00     0.091 C 
ENDROOT
BRANCH   1   7
ATOM      7  O   LIG d   1     -18.292  77.929 119.474  0.00  0.00    -0.368 OA
BRANCH   7   8
ATOM      8  C   LIG d   1     -18.796  76.574 119.374  0.00  0.00     0.119 C 
BRANCH   8   9
ATOM      9  C   LIG d   1     -19.936  76.428 120.400  0.00  0.00     0.028 C 
ATOM     10  C   LIG d   1     -21.234  75.901 119.764  0.00  0.00     0.006 C 
ENDBRANCH   8   9
BRANCH   8  11
ATOM     11  C   LIG d   1     -17.736  75.553 119.797  0.00  0.00     0.028 C 
ATOM     12  C   LIG d   1     -17.907  75.084 121.251  0.00  0.00     0.006 C 
ENDBRANCH   8  11
ENDBRANCH   7   8
ENDBRANCH   1   7
BRANCH   6  13
ATOM     13  N   LIG d   1     -17.700  78.505 122.372  0.00  0.00    -0.311 N 
ATOM     14  C   LIG d   1     -16.464  78.364 122.847  0.00  0.00     0.210 C 
ATOM     15  C   LIG d   1     -16.296  77.259 123.896  0.00  0.00     0.109 C 
ATOM     16  O   LIG d   1     -15.496  79.069 122.524  0.00  0.00    -0.276 OA
ATOM     17  H   LIG d   1     -18.430  77.912 122.713  0.00  0.00     0.149 HD
ENDBRANCH   6  13
BRANCH   5  18
ATOM     18  N   LIG d   1     -17.769  81.528 122.810  0.00  0.00     0.381 N 
ATOM     19  H   LIG d   1     -17.202  82.134 122.253  0.00  0.00    -0.090 HD
ATOM     20  H   LIG d   1     -17.166  80.876 123.281  0.00  0.00    -0.090 HD
ATOM     21  H   LIG d   1     -18.280  82.061 123.479  0.00  0.00    -0.090 HD
ENDBRANCH   5  18
BRANCH   3  22
ATOM     22  C   LIG d   1     -20.856  81.838 119.162  0.00  0.00     0.382 C 
ATOM     23  O   LIG d   1     -22.078  81.580 119.281  0.00  0.00    -0.241 OA
ATOM     24  O   LIG d   1     -20.494  82.750 118.395  0.00  0.00    -0.241 OA
ENDBRANCH   3  22
TORSDOF 7
ENDMDL
MODEL 9
REMARK VINA RESULT:      -4.0     20.428     22.715
REMARK  7 active torsions:
REMARK  status: ('A' for Active; 'I' for Inactive)
REMARK    1  A    between atoms: C_2  and  C_3 
REMARK    2  A    between atoms: C_3  and  O_6 
REMARK    3  A    between atoms: C_3  and  C_4 
REMARK    4  A    between atoms: C_7  and  O_6 
REMARK    5  A    between atoms: C_9  and  C_10 
REMARK    6  A    between atoms: N_15  and  C_14 
REMARK    7  A    between atoms: N_20  and  C_19 
REMARK       I    between atoms: C_22  and  N_20 
ROOT
ATOM      1  C   LIG d   1     -20.212  77.076 120.671  0.00  0.00     0.161 C 
ATOM      2  C   LIG d   1     -21.241  77.966 120.324  0.00  0.00     0.016 C 
ATOM      3  C   LIG d   1     -21.042  79.354 120.143  0.00  0.00     0.038 C 
ATOM      4  C   LIG d   1     -19.762  79.927 120.150  0.00  0.00     0.028 C 
ATOM      5  C   LIG d   1     -18.756  79.151 120.995  0.00  0.00    -0.047 C 
ATOM      6  C   LIG d   1     -18.788  77.664 120.574  0.00  0.00     0.091 C 
ENDROOT
BRANCH   1   7
ATOM      7  O   LIG d   1     -20.313  75.877 119.878  0.00  0.00    -0.368 OA
BRANCH   7   8
ATOM      8  C   LIG d   1     -20.991  74.757 120.499  0.00  0.00     0.119 C 
BRANCH   8   9
ATOM      9  C   LIG d   1     -19.909  73.770 120.978  0.00  0.00     0.028 C 
ATOM     10  C   LIG d   1     -19.127  73.144 119.810  0.00  0.00     0.006 C 
ENDBRANCH   8   9
BRANCH   8  11
ATOM     11  C   LIG d   1     -21.829  73.978 119.481  0.00  0.00     0.028 C 
ATOM     12  C   LIG d   1     -23.323  73.945 119.840  0.00  0.00     0.006 C 
ENDBRANCH   8  11
ENDBRANCH   7   8
ENDBRANCH   1   7
BRANCH   6  13
ATOM     13  N   LIG d   1     -17.895  76.820 121.409  0.00  0.00    -0.311 N 
ATOM     14  C   LIG d   1     -16.970  76.006 120.901  0.00  0.00     0.210 C 
ATOM     15  C   LIG d   1     -16.170  75.210 121.937  0.00  0.00     0.109 C 
ATOM     16  O   LIG d   1     -16.715  75.892 119.693  0.00  0.00    -0.276 OA
ATOM     17  H   LIG d   1     -18.012  76.874 122.401  0.00  0.00     0.149 HD
ENDBRANCH   6  13
BRANCH   5  18
ATOM     18  N   LIG d   1     -17.435  79.778 120.802  0.00  0.00     0.381 N 
ATOM     19  H   LIG d   1     -16.774  79.376 121.436  0.00  0.00    -0.090 HD
ATOM     20  H   LIG d   1     -17.509  80.760 121.004  0.00  0.00    -0.090 HD
ATOM     21  H   LIG d   1     -17.129  79.647 119.863  0.00  0.00    -0.090 HD
ENDBRANCH   5  18
BRANCH   3  22
ATOM     22  C   LIG d   1     -22.137  80.191 119.993  0.00  0.00     0.382 C 
ATOM     23  O   LIG d   1     -23.279  79.704 119.809  0.00  0.00    -0.241 OA
ATOM     24  O   LIG d   1     -21.992  81.428 119.994  0.00  0.00    -0.241 OA
ENDBRANCH   3  22
TORSDOF 7
ENDMDL
