MODEL 1
REMARK VINA RESULT:      -6.0      0.000      0.000
REMARK  7 active torsions:
REMARK  status: ('A' for Active; 'I' for Inactive)
REMARK    1  A    between atoms: C_2  and  C_3 
REMARK    2  A    between atoms: C_3  and  O_6 
REMARK    3  A    between atoms: C_3  and  C_4 
REMARK    4  A    between atoms: C_7  and  O_6 
REMARK    5  A    between atoms: C_9  and  C_10 
REMARK    6  A    between atoms: N_15  and  C_14 
REMARK    7  A    between atoms: N_20  and  C_19 
REMARK       I    between atoms: C_22  and  N_20 
ROOT
ATOM      1  C   LIG d   1      -8.144  75.348 117.557  0.00  0.00     0.161 C 
ATOM      2  C   LIG d   1      -9.290  76.029 118.002  0.00  0.00     0.016 C 
ATOM      3  C   LIG d   1      -9.358  77.435 118.132  0.00  0.00     0.038 C 
ATOM      4  C   LIG d   1      -8.327  78.273 117.679  0.00  0.00     0.028 C 
ATOM      5  C   LIG d   1      -6.955  77.606 117.693  0.00  0.00    -0.047 C 
ATOM      6  C   LIG d   1      -7.048  76.252 116.954  0.00  0.00     0.091 C 
ENDROOT
BRANCH   1   7
ATOM      7  O   LIG d   1      -8.519  74.321 116.619  0.00  0.00    -0.368 OA
BRANCH   7   8
ATOM      8  C   LIG d   1      -8.583  72.972 117.142  0.00  0.00     0.119 C 
BRANCH   8   9
ATOM      9  C   LIG d   1      -7.173  72.362 117.024  0.00  0.00     0.028 C 
ATOM     10  C   LIG d   1      -6.679  72.303 115.568  0.00  0.00     0.006 C 
ENDBRANCH   8   9
BRANCH   8  11
ATOM     11  C   LIG d   1      -9.483  72.082 116.280  0.00  0.00     0.028 C 
ATOM     12  C   LIG d   1      -9.678  70.678 116.875  0.00  0.00     0.006 C 
ENDBRANCH   8  11
ENDBRANCH   7   8
ENDBRANCH   1   7
BRANCH   6  13
ATOM     13  N   LIG d   1      -5.769  75.495 116.994  0.00  0.00    -0.311 N 
ATOM     14  C   LIG d   1      -4.848  75.562 116.035  0.00  0.00     0.210 C 
ATOM     15  C   LIG d   1      -3.612  74.686 116.264  0.00  0.00     0.109 C 
ATOM     16  O   LIG d   1      -4.923  76.287 115.031  0.00  0.00    -0.276 OA
ATOM     17  H   LIG d   1      -5.613  74.906 117.789  0.00  0.00     0.149 HD
ENDBRANCH   6  13
BRANCH   5  18
ATOM     18  N   LIG d   1      -6.000  78.541 117.070  0.00  0.00     0.381 N 
ATOM     19  H   LIG d   1      -5.097  78.432 117.488  0.00  0.00    -0.090 HD
ATOM     20  H   LIG d   1      -6.311  79.482 117.234  0.00  0.00    -0.090 HD
ATOM     21  H   LIG d   1      -5.943  78.368 116.091  0.00  0.00    -0.090 HD
ENDBRANCH   5  18
BRANCH   3  22
ATOM     22  C   LIG d   1     -10.451  78.016 118.757  0.00  0.00     0.382 C 
ATOM     23  O   LIG d   1     -10.480  79.255 118.946  0.00  0.00    -0.241 OA
ATOM     24  O   LIG d   1     -11.389  77.309 119.173  0.00  0.00    -0.241 OA
ENDBRANCH   3  22
TORSDOF 7
ENDMDL
MODEL 2
REMARK VINA RESULT:      -5.6      2.263      4.932
REMARK  7 active torsions:
REMARK  status: ('A' for Active; 'I' for Inactive)
REMARK    1  A    between atoms: C_2  and  C_3 
REMARK    2  A    between atoms: C_3  and  O_6 
REMARK    3  A    between atoms: C_3  and  C_4 
REMARK    4  A    between atoms: C_7  and  O_6 
REMARK    5  A    between atoms: C_9  and  C_10 
REMARK    6  A    between atoms: N_15  and  C_14 
REMARK    7  A    between atoms: N_20  and  C_19 
REMARK       I    between atoms: C_22  and  N_20 
ROOT
ATOM      1  C   LIG d   1      -6.428  74.839 117.800  0.00  0.00     0.161 C 
ATOM      2  C   LIG d   1      -6.811  73.599 117.262  0.00  0.00     0.016 C 
ATOM      3  C   LIG d   1      -8.141  73.287 116.897  0.00  0.00     0.038 C 
ATOM      4  C   LIG d   1      -9.158  74.252 116.906  0.00  0.00     0.028 C 
ATOM      5  C   LIG d   1      -8.925  75.369 117.917  0.00  0.00    -0.047 C 
ATOM      6  C   LIG d   1      -7.504  75.942 117.713  0.00  0.00     0.091 C 
ENDROOT
BRANCH   1   7
ATOM      7  O   LIG d   1      -5.204  75.283 117.182  0.00  0.00    -0.368 OA
BRANCH   7   8
ATOM      8  C   LIG d   1      -4.713  74.473 116.086  0.00  0.00     0.119 C 
BRANCH   8   9
ATOM      9  C   LIG d   1      -3.240  74.134 116.384  0.00  0.00     0.028 C 
ATOM     10  C   LIG d   1      -2.263  75.009 115.580  0.00  0.00     0.006 C 
ENDBRANCH   8   9
BRANCH   8  11
ATOM     11  C   LIG d   1      -4.691  75.264 114.775  0.00  0.00     0.028 C 
ATOM     12  C   LIG d   1      -6.094  75.481 114.186  0.00  0.00     0.006 C 
ENDBRANCH   8  11
ENDBRANCH   7   8
ENDBRANCH   1   7
BRANCH   6  13
ATOM     13  N   LIG d   1      -7.162  76.983 118.717  0.00  0.00    -0.311 N 
ATOM     14  C   LIG d   1      -6.864  78.241 118.397  0.00  0.00     0.210 C 
ATOM     15  C   LIG d   1      -6.522  79.147 119.583  0.00  0.00     0.109 C 
ATOM     16  O   LIG d   1      -6.880  78.700 117.245  0.00  0.00    -0.276 OA
ATOM     17  H   LIG d   1      -7.155  76.705 119.679  0.00  0.00     0.149 HD
ENDBRANCH   6  13
BRANCH   5  18
ATOM     18  N   LIG d   1      -9.986  76.375 117.724  0.00  0.00     0.381 N 
ATOM     19  H   LIG d   1     -10.631  76.058 117.027  0.00  0.00    -0.090 HD
ATOM     20  H   LIG d   1      -9.569  77.230 117.401  0.00  0.00    -0.090 HD
ATOM     21  H   LIG d   1     -10.466  76.534 118.582  0.00  0.00    -0.090 HD
ENDBRANCH   5  18
BRANCH   3  22
ATOM     22  C   LIG d   1      -8.472  71.984 116.556  0.00  0.00     0.382 C 
ATOM     23  O   LIG d   1      -7.603  71.081 116.612  0.00  0.00    -0.241 OA
ATOM     24  O   LIG d   1      -9.617  71.709 116.151  0.00  0.00    -0.241 OA
ENDBRANCH   3  22
TORSDOF 7
ENDMDL
MODEL 3
REMARK VINA RESULT:      -5.5      2.169      5.484
REMARK  7 active torsions:
REMARK  status: ('A' for Active; 'I' for Inactive)
REMARK    1  A    between atoms: C_2  and  C_3 
REMARK    2  A    between atoms: C_3  and  O_6 
REMARK    3  A    between atoms: C_3  and  C_4 
REMARK    4  A    between atoms: C_7  and  O_6 
REMARK    5  A    between atoms: C_9  and  C_10 
REMARK    6  A    between atoms: N_15  and  C_14 
REMARK    7  A    between atoms: N_20  and  C_19 
REMARK       I    between atoms: C_22  and  N_20 
ROOT
ATOM      1  C   LIG d   1      -5.536  74.975 116.646  0.00  0.00     0.161 C 
ATOM      2  C   LIG d   1      -4.378  74.238 116.348  0.00  0.00     0.016 C 
ATOM      3  C   LIG d   1      -3.069  74.710 116.601  0.00  0.00     0.038 C 
ATOM      4  C   LIG d   1      -2.833  75.896 117.313  0.00  0.00     0.028 C 
ATOM      5  C   LIG d   1      -3.961  76.914 117.185  0.00  0.00    -0.047 C 
ATOM      6  C   LIG d   1      -5.302  76.222 117.524  0.00  0.00     0.091 C 
ENDROOT
BRANCH   1   7
ATOM      7  O   LIG d   1      -6.520  74.113 117.252  0.00  0.00    -0.368 OA
BRANCH   7   8
ATOM      8  C   LIG d   1      -7.586  73.654 116.385  0.00  0.00     0.119 C 
BRANCH   8   9
ATOM      9  C   LIG d   1      -8.907  73.782 117.167  0.00  0.00     0.028 C 
ATOM     10  C   LIG d   1      -9.416  75.232 117.226  0.00  0.00     0.006 C 
ENDBRANCH   8   9
BRANCH   8  11
ATOM     11  C   LIG d   1      -7.444  72.161 116.071  0.00  0.00     0.028 C 
ATOM     12  C   LIG d   1      -8.770  71.397 116.199  0.00  0.00     0.006 C 
ENDBRANCH   8  11
ENDBRANCH   7   8
ENDBRANCH   1   7
BRANCH   6  13
ATOM     13  N   LIG d   1      -6.468  77.125 117.343  0.00  0.00    -0.311 N 
ATOM     14  C   LIG d   1      -6.982  77.865 118.324  0.00  0.00     0.210 C 
ATOM     15  C   LIG d   1      -8.196  78.711 117.928  0.00  0.00     0.109 C 
ATOM     16  O   LIG d   1      -6.528  77.924 119.477  0.00  0.00    -0.276 OA
ATOM     17  H   LIG d   1      -6.879  77.162 116.431  0.00  0.00     0.149 HD
ENDBRANCH   6  13
BRANCH   5  18
ATOM     18  N   LIG d   1      -3.649  78.040 118.084  0.00  0.00     0.381 N 
ATOM     19  H   LIG d   1      -4.485  78.360 118.530  0.00  0.00    -0.090 HD
ATOM     20  H   LIG d   1      -3.273  78.796 117.539  0.00  0.00    -0.090 HD
ATOM     21  H   LIG d   1      -2.986  77.755 118.771  0.00  0.00    -0.090 HD
ENDBRANCH   5  18
BRANCH   3  22
ATOM     22  C   LIG d   1      -1.979  74.012 116.104  0.00  0.00     0.382 C 
ATOM     23  O   LIG d   1      -1.699  74.074 114.883  0.00  0.00    -0.241 OA
ATOM     24  O   LIG d   1      -1.299  73.286 116.853  0.00  0.00    -0.241 OA
ENDBRANCH   3  22
TORSDOF 7
ENDMDL
MODEL 4
REMARK VINA RESULT:      -5.2      2.209      5.174
REMARK  7 active torsions:
REMARK  status: ('A' for Active; 'I' for Inactive)
REMARK    1  A    between atoms: C_2  and  C_3 
REMARK    2  A    between atoms: C_3  and  O_6 
REMARK    3  A    between atoms: C_3  and  C_4 
REMARK    4  A    between atoms: C_7  and  O_6 
REMARK    5  A    between atoms: C_9  and  C_10 
REMARK    6  A    between atoms: N_15  and  C_14 
REMARK    7  A    between atoms: N_20  and  C_19 
REMARK       I    between atoms: C_22  and  N_20 
ROOT
ATOM      1  C   LIG d   1      -6.208  76.322 116.482  0.00  0.00     0.161 C 
ATOM      2  C   LIG d   1      -5.216  76.024 115.533  0.00  0.00     0.016 C 
ATOM      3  C   LIG d   1      -4.067  76.823 115.331  0.00  0.00     0.038 C 
ATOM      4  C   LIG d   1      -3.756  77.900 116.174  0.00  0.00     0.028 C 
ATOM      5  C   LIG d   1      -4.981  78.538 116.820  0.00  0.00    -0.047 C 
ATOM      6  C   LIG d   1      -5.830  77.431 117.486  0.00  0.00     0.091 C 
ENDROOT
BRANCH   1   7
ATOM      7  O   LIG d   1      -6.591  75.122 117.182  0.00  0.00    -0.368 OA
BRANCH   7   8
ATOM      8  C   LIG d   1      -7.411  74.186 116.440  0.00  0.00     0.119 C 
BRANCH   8   9
ATOM      9  C   LIG d   1      -8.748  74.042 117.193  0.00  0.00     0.028 C 
ATOM     10  C   LIG d   1      -9.518  75.371 117.278  0.00  0.00     0.006 C 
ENDBRANCH   8   9
BRANCH   8  11
ATOM     11  C   LIG d   1      -6.794  72.784 116.439  0.00  0.00     0.028 C 
ATOM     12  C   LIG d   1      -7.781  71.698 115.982  0.00  0.00     0.006 C 
ENDBRANCH   8  11
ENDBRANCH   7   8
ENDBRANCH   1   7
BRANCH   6  13
ATOM     13  N   LIG d   1      -7.091  77.959 118.069  0.00  0.00    -0.311 N 
ATOM     14  C   LIG d   1      -7.456  77.753 119.333  0.00  0.00     0.210 C 
ATOM     15  C   LIG d   1      -8.804  78.367 119.725  0.00  0.00     0.109 C 
ATOM     16  O   LIG d   1      -6.777  77.147 120.176  0.00  0.00    -0.276 OA
ATOM     17  H   LIG d   1      -7.688  78.488 117.464  0.00  0.00     0.149 HD
ENDBRANCH   6  13
BRANCH   5  18
ATOM     18  N   LIG d   1      -4.503  79.554 117.776  0.00  0.00     0.381 N 
ATOM     19  H   LIG d   1      -5.269  79.892 118.322  0.00  0.00    -0.090 HD
ATOM     20  H   LIG d   1      -4.116  80.327 117.263  0.00  0.00    -0.090 HD
ATOM     21  H   LIG d   1      -3.808  79.161 118.372  0.00  0.00    -0.090 HD
ENDBRANCH   5  18
BRANCH   3  22
ATOM     22  C   LIG d   1      -3.236  76.571 114.250  0.00  0.00     0.382 C 
ATOM     23  O   LIG d   1      -2.133  76.000 114.427  0.00  0.00    -0.241 OA
ATOM     24  O   LIG d   1      -3.555  76.946 113.106  0.00  0.00    -0.241 OA
ENDBRANCH   3  22
TORSDOF 7
ENDMDL
MODEL 5
REMARK VINA RESULT:      -5.1      1.952      5.053
REMARK  7 active torsions:
REMARK  status: ('A' for Active; 'I' for Inactive)
REMARK    1  A    between atoms: C_2  and  C_3 
REMARK    2  A    between atoms: C_3  and  O_6 
REMARK    3  A    between atoms: C_3  and  C_4 
REMARK    4  A    between atoms: C_7  and  O_6 
REMARK    5  A    between atoms: C_9  and  C_10 
REMARK    6  A    between atoms: N_15  and  C_14 
REMARK    7  A    between atoms: N_20  and  C_19 
REMARK       I    between atoms: C_22  and  N_20 
ROOT
ATOM      1  C   LIG d   1      -7.388  75.939 116.857  0.00  0.00     0.161 C 
ATOM      2  C   LIG d   1      -8.110  74.734 116.850  0.00  0.00     0.016 C 
ATOM      3  C   LIG d   1      -7.523  73.476 116.580  0.00  0.00     0.038 C 
ATOM      4  C   LIG d   1      -6.135  73.319 116.446  0.00  0.00     0.028 C 
ATOM      5  C   LIG d   1      -5.429  74.574 115.944  0.00  0.00    -0.047 C 
ATOM      6  C   LIG d   1      -5.854  75.774 116.822  0.00  0.00     0.091 C 
ENDROOT
BRANCH   1   7
ATOM      7  O   LIG d   1      -7.780  76.738 117.990  0.00  0.00    -0.368 OA
BRANCH   7   8
ATOM      8  C   LIG d   1      -8.352  78.035 117.689  0.00  0.00     0.119 C 
BRANCH   8   9
ATOM      9  C   LIG d   1      -7.371  79.104 118.207  0.00  0.00     0.028 C 
ATOM     10  C   LIG d   1      -6.585  78.632 119.441  0.00  0.00     0.006 C 
ENDBRANCH   8   9
BRANCH   8  11
ATOM     11  C   LIG d   1      -9.651  78.265 118.467  0.00  0.00     0.028 C 
ATOM     12  C   LIG d   1     -10.499  76.991 118.603  0.00  0.00     0.006 C 
ENDBRANCH   8  11
ENDBRANCH   7   8
ENDBRANCH   1   7
BRANCH   6  13
ATOM     13  N   LIG d   1      -5.274  77.057 116.347  0.00  0.00    -0.311 N 
ATOM     14  C   LIG d   1      -4.155  77.583 116.842  0.00  0.00     0.210 C 
ATOM     15  C   LIG d   1      -3.743  78.924 116.225  0.00  0.00     0.109 C 
ATOM     16  O   LIG d   1      -3.447  77.052 117.711  0.00  0.00    -0.276 OA
ATOM     17  H   LIG d   1      -5.767  77.540 115.622  0.00  0.00     0.149 HD
ENDBRANCH   6  13
BRANCH   5  18
ATOM     18  N   LIG d   1      -3.978  74.315 115.983  0.00  0.00     0.381 N 
ATOM     19  H   LIG d   1      -3.735  73.875 116.848  0.00  0.00    -0.090 HD
ATOM     20  H   LIG d   1      -3.489  75.191 115.927  0.00  0.00    -0.090 HD
ATOM     21  H   LIG d   1      -3.716  73.731 115.219  0.00  0.00    -0.090 HD
ENDBRANCH   5  18
BRANCH   3  22
ATOM     22  C   LIG d   1      -8.332  72.364 116.402  0.00  0.00     0.382 C 
ATOM     23  O   LIG d   1      -9.436  72.291 116.994  0.00  0.00    -0.241 OA
ATOM     24  O   LIG d   1      -7.952  71.414 115.692  0.00  0.00    -0.241 OA
ENDBRANCH   3  22
TORSDOF 7
ENDMDL
MODEL 6
REMARK VINA RESULT:      -5.1      2.082      5.339
REMARK  7 active torsions:
REMARK  status: ('A' for Active; 'I' for Inactive)
REMARK    1  A    between atoms: C_2  and  C_3 
REMARK    2  A    between atoms: C_3  and  O_6 
REMARK    3  A    between atoms: C_3  and  C_4 
REMARK    4  A    between atoms: C_7  and  O_6 
REMARK    5  A    between atoms: C_9  and  C_10 
REMARK    6  A    between atoms: N_15  and  C_14 
REMARK    7  A    between atoms: N_20  and  C_19 
REMARK       I    between atoms: C_22  and  N_20 
ROOT
ATOM      1  C   LIG d   1      -6.264  74.977 117.075  0.00  0.00     0.161 C 
ATOM      2  C   LIG d   1      -6.758  73.728 116.661  0.00  0.00     0.016 C 
ATOM      3  C   LIG d   1      -8.126  73.374 116.720  0.00  0.00     0.038 C 
ATOM      4  C   LIG d   1      -9.119  74.305 117.058  0.00  0.00     0.028 C 
ATOM      5  C   LIG d   1      -8.617  75.423 117.966  0.00  0.00    -0.047 C 
ATOM      6  C   LIG d   1      -7.346  76.044 117.343  0.00  0.00     0.091 C 
ENDROOT
BRANCH   1   7
ATOM      7  O   LIG d   1      -5.305  75.465 116.117  0.00  0.00    -0.368 OA
BRANCH   7   8
ATOM      8  C   LIG d   1      -3.945  75.611 116.594  0.00  0.00     0.119 C 
BRANCH   8   9
ATOM      9  C   LIG d   1      -3.524  77.074 116.352  0.00  0.00     0.028 C 
ATOM     10  C   LIG d   1      -3.156  77.802 117.656  0.00  0.00     0.006 C 
ENDBRANCH   8   9
BRANCH   8  11
ATOM     11  C   LIG d   1      -2.971  74.767 115.768  0.00  0.00     0.028 C 
ATOM     12  C   LIG d   1      -1.984  73.972 116.638  0.00  0.00     0.006 C 
ENDBRANCH   8  11
ENDBRANCH   7   8
ENDBRANCH   1   7
BRANCH   6  13
ATOM     13  N   LIG d   1      -6.742  77.089 118.210  0.00  0.00    -0.311 N 
ATOM     14  C   LIG d   1      -7.018  78.387 118.094  0.00  0.00     0.210 C 
ATOM     15  C   LIG d   1      -6.271  79.297 119.074  0.00  0.00     0.109 C 
ATOM     16  O   LIG d   1      -7.835  78.868 117.294  0.00  0.00    -0.276 OA
ATOM     17  H   LIG d   1      -6.092  76.784 118.907  0.00  0.00     0.149 HD
ENDBRANCH   6  13
BRANCH   5  18
ATOM     18  N   LIG d   1      -9.716  76.394 118.127  0.00  0.00     0.381 N 
ATOM     19  H   LIG d   1     -10.334  76.339 117.342  0.00  0.00    -0.090 HD
ATOM     20  H   LIG d   1      -9.329  77.320 118.159  0.00  0.00    -0.090 HD
ATOM     21  H   LIG d   1     -10.217  76.206 118.967  0.00  0.00    -0.090 HD
ENDBRANCH   5  18
BRANCH   3  22
ATOM     22  C   LIG d   1      -8.507  72.064 116.476  0.00  0.00     0.382 C 
ATOM     23  O   LIG d   1      -9.660  71.816 116.047  0.00  0.00    -0.241 OA
ATOM     24  O   LIG d   1      -7.728  71.123 116.722  0.00  0.00    -0.241 OA
ENDBRANCH   3  22
TORSDOF 7
ENDMDL
MODEL 7
REMARK VINA RESULT:      -5.0     15.946     18.240
REMARK  7 active torsions:
REMARK  status: ('A' for Active; 'I' for Inactive)
REMARK    1  A    between atoms: C_2  and  C_3 
REMARK    2  A    between atoms: C_3  and  O_6 
REMARK    3  A    between atoms: C_3  and  C_4 
REMARK    4  A    between atoms: C_7  and  O_6 
REMARK    5  A    between atoms: C_9  and  C_10 
REMARK    6  A    between atoms: N_15  and  C_14 
REMARK    7  A    between atoms: N_20  and  C_19 
REMARK       I    between atoms: C_22  and  N_20 
ROOT
ATOM      1  C   LIG d   1     -23.268  83.708 116.146  0.00  0.00     0.161 C 
ATOM      2  C   LIG d   1     -22.801  84.992 115.817  0.00  0.00     0.016 C 
ATOM      3  C   LIG d   1     -22.985  85.585 114.547  0.00  0.00     0.038 C 
ATOM      4  C   LIG d   1     -23.786  84.992 113.561  0.00  0.00     0.028 C 
ATOM      5  C   LIG d   1     -23.856  83.473 113.670  0.00  0.00    -0.047 C 
ATOM      6  C   LIG d   1     -24.240  83.091 115.118  0.00  0.00     0.091 C 
ENDROOT
BRANCH   1   7
ATOM      7  O   LIG d   1     -23.869  83.728 117.456  0.00  0.00    -0.368 OA
BRANCH   7   8
ATOM      8  C   LIG d   1     -23.003  83.369 118.560  0.00  0.00     0.119 C 
BRANCH   8   9
ATOM      9  C   LIG d   1     -22.185  82.137 118.126  0.00  0.00     0.028 C 
ATOM     10  C   LIG d   1     -20.828  82.051 118.845  0.00  0.00     0.006 C 
ENDBRANCH   8   9
BRANCH   8  11
ATOM     11  C   LIG d   1     -23.812  82.911 119.777  0.00  0.00     0.028 C 
ATOM     12  C   LIG d   1     -24.482  81.545 119.567  0.00  0.00     0.006 C 
ENDBRANCH   8  11
ENDBRANCH   7   8
ENDBRANCH   1   7
BRANCH   6  13
ATOM     13  N   LIG d   1     -24.249  81.621 115.334  0.00  0.00    -0.311 N 
ATOM     14  C   LIG d   1     -25.221  80.981 115.982  0.00  0.00     0.210 C 
ATOM     15  C   LIG d   1     -25.024  79.467 116.110  0.00  0.00     0.109 C 
ATOM     16  O   LIG d   1     -26.243  81.518 116.434  0.00  0.00    -0.276 OA
ATOM     17  H   LIG d   1     -23.473  81.102 114.972  0.00  0.00     0.149 HD
ENDBRANCH   6  13
BRANCH   5  18
ATOM     18  N   LIG d   1     -24.831  82.998 112.670  0.00  0.00     0.381 N 
ATOM     19  H   LIG d   1     -24.543  83.282 111.755  0.00  0.00    -0.090 HD
ATOM     20  H   LIG d   1     -25.724  83.416 112.863  0.00  0.00    -0.090 HD
ATOM     21  H   LIG d   1     -24.905  82.005 112.710  0.00  0.00    -0.090 HD
ENDBRANCH   5  18
BRANCH   3  22
ATOM     22  C   LIG d   1     -22.330  86.769 114.241  0.00  0.00     0.382 C 
ATOM     23  O   LIG d   1     -22.698  87.844 114.771  0.00  0.00    -0.241 OA
ATOM     24  O   LIG d   1     -21.406  86.781 113.406  0.00  0.00    -0.241 OA
ENDBRANCH   3  22
TORSDOF 7
ENDMDL
MODEL 8
REMARK VINA RESULT:      -4.7      2.397      5.526
REMARK  7 active torsions:
REMARK  status: ('A' for Active; 'I' for Inactive)
REMARK    1  A    between atoms: C_2  and  C_3 
REMARK    2  A    between atoms: C_3  and  O_6 
REMARK    3  A    between atoms: C_3  and  C_4 
REMARK    4  A    between atoms: C_7  and  O_6 
REMARK    5  A    between atoms: C_9  and  C_10 
REMARK    6  A    between atoms: N_15  and  C_14 
REMARK    7  A    between atoms: N_20  and  C_19 
REMARK       I    between atoms: C_22  and  N_20 
ROOT
ATOM      1  C   LIG d   1      -6.132  76.456 115.816  0.00  0.00     0.161 C 
ATOM      2  C   LIG d   1      -6.940  75.311 115.923  0.00  0.00     0.016 C 
ATOM      3  C   LIG d   1      -6.424  74.012 116.132  0.00  0.00     0.038 C 
ATOM      4  C   LIG d   1      -5.065  73.788 116.400  0.00  0.00     0.028 C 
ATOM      5  C   LIG d   1      -4.147  74.848 115.801  0.00  0.00    -0.047 C 
ATOM      6  C   LIG d   1      -4.657  76.246 116.217  0.00  0.00     0.091 C 
ENDROOT
BRANCH   1   7
ATOM      7  O   LIG d   1      -6.710  77.534 116.578  0.00  0.00    -0.368 OA
BRANCH   7   8
ATOM      8  C   LIG d   1      -6.481  77.499 118.008  0.00  0.00     0.119 C 
BRANCH   8   9
ATOM      9  C   LIG d   1      -7.839  77.233 118.688  0.00  0.00     0.028 C 
ATOM     10  C   LIG d   1      -9.005  77.918 117.956  0.00  0.00     0.006 C 
ENDBRANCH   8   9
BRANCH   8  11
ATOM     11  C   LIG d   1      -6.024  78.863 118.533  0.00  0.00     0.028 C 
ATOM     12  C   LIG d   1      -5.781  79.883 117.410  0.00  0.00     0.006 C 
ENDBRANCH   8  11
ENDBRANCH   7   8
ENDBRANCH   1   7
BRANCH   6  13
ATOM     13  N   LIG d   1      -3.864  77.344 115.604  0.00  0.00    -0.311 N 
ATOM     14  C   LIG d   1      -2.871  77.970 116.232  0.00  0.00     0.210 C 
ATOM     15  C   LIG d   1      -2.197  79.086 115.427  0.00  0.00     0.109 C 
ATOM     16  O   LIG d   1      -2.462  77.685 117.368  0.00  0.00    -0.276 OA
ATOM     17  H   LIG d   1      -4.109  77.618 114.672  0.00  0.00     0.149 HD
ENDBRANCH   6  13
BRANCH   5  18
ATOM     18  N   LIG d   1      -2.777  74.568 116.272  0.00  0.00     0.381 N 
ATOM     19  H   LIG d   1      -2.812  74.063 117.135  0.00  0.00    -0.090 HD
ATOM     20  H   LIG d   1      -2.306  75.440 116.436  0.00  0.00    -0.090 HD
ATOM     21  H   LIG d   1      -2.283  74.038 115.589  0.00  0.00    -0.090 HD
ENDBRANCH   5  18
BRANCH   3  22
ATOM     22  C   LIG d   1      -7.265  72.914 116.034  0.00  0.00     0.382 C 
ATOM     23  O   LIG d   1      -8.417  72.961 116.529  0.00  0.00    -0.241 OA
ATOM     24  O   LIG d   1      -6.872  71.862 115.494  0.00  0.00    -0.241 OA
ENDBRANCH   3  22
TORSDOF 7
ENDMDL
MODEL 9
REMARK VINA RESULT:      -4.6      2.120      4.677
REMARK  7 active torsions:
REMARK  status: ('A' for Active; 'I' for Inactive)
REMARK    1  A    between atoms: C_2  and  C_3 
REMARK    2  A    between atoms: C_3  and  O_6 
REMARK    3  A    between atoms: C_3  and  C_4 
REMARK    4  A    between atoms: C_7  and  O_6 
REMARK    5  A    between atoms: C_9  and  C_10 
REMARK    6  A    between atoms: N_15  and  C_14 
REMARK    7  A    between atoms: N_20  and  C_19 
REMARK       I    between atoms: C_22  and  N_20 
ROOT
ATOM      1  C   LIG d   1      -6.098  76.764 116.537  0.00  0.00     0.161 C 
ATOM      2  C   LIG d   1      -6.353  78.066 116.997  0.00  0.00     0.016 C 
ATOM      3  C   LIG d   1      -7.519  78.425 117.712  0.00  0.00     0.038 C 
ATOM      4  C   LIG d   1      -8.444  77.466 118.150  0.00  0.00     0.028 C 
ATOM      5  C   LIG d   1      -8.482  76.217 117.276  0.00  0.00    -0.047 C 
ATOM      6  C   LIG d   1      -7.043  75.682 117.102  0.00  0.00     0.091 C 
ENDROOT
BRANCH   1   7
ATOM      7  O   LIG d   1      -4.724  76.414 116.797  0.00  0.00    -0.368 OA
BRANCH   7   8
ATOM      8  C   LIG d   1      -3.906  76.137 115.633  0.00  0.00     0.119 C 
BRANCH   8   9
ATOM      9  C   LIG d   1      -2.885  75.054 116.033  0.00  0.00     0.028 C 
ATOM     10  C   LIG d   1      -2.366  75.239 117.469  0.00  0.00     0.006 C 
ENDBRANCH   8   9
BRANCH   8  11
ATOM     11  C   LIG d   1      -3.070  77.357 115.237  0.00  0.00     0.028 C 
ATOM     12  C   LIG d   1      -2.691  77.361 113.747  0.00  0.00     0.006 C 
ENDBRANCH   8  11
ENDBRANCH   7   8
ENDBRANCH   1   7
BRANCH   6  13
ATOM     13  N   LIG d   1      -6.980  74.510 116.191  0.00  0.00    -0.311 N 
ATOM     14  C   LIG d   1      -6.918  73.250 116.620  0.00  0.00     0.210 C 
ATOM     15  C   LIG d   1      -6.840  72.193 115.514  0.00  0.00     0.109 C 
ATOM     16  O   LIG d   1      -6.954  72.906 117.811  0.00  0.00    -0.276 OA
ATOM     17  H   LIG d   1      -6.978  74.696 115.207  0.00  0.00     0.149 HD
ENDBRANCH   6  13
BRANCH   5  18
ATOM     18  N   LIG d   1      -9.385  75.247 117.924  0.00  0.00     0.381 N 
ATOM     19  H   LIG d   1      -9.282  74.349 117.495  0.00  0.00    -0.090 HD
ATOM     20  H   LIG d   1     -10.335  75.551 117.795  0.00  0.00    -0.090 HD
ATOM     21  H   LIG d   1      -9.178  75.185 118.896  0.00  0.00    -0.090 HD
ENDBRANCH   5  18
BRANCH   3  22
ATOM     22  C   LIG d   1      -7.788  79.762 117.961  0.00  0.00     0.382 C 
ATOM     23  O   LIG d   1      -8.204  80.118 119.090  0.00  0.00    -0.241 OA
ATOM     24  O   LIG d   1      -7.663  80.611 117.058  0.00  0.00    -0.241 OA
ENDBRANCH   3  22
TORSDOF 7
ENDMDL
