MODEL 1
REMARK VINA RESULT:      -5.9      0.000      0.000
REMARK  7 active torsions:
REMARK  status: ('A' for Active; 'I' for Inactive)
REMARK    1  A    between atoms: C_2  and  C_3 
REMARK    2  A    between atoms: C_3  and  O_6 
REMARK    3  A    between atoms: C_3  and  C_4 
REMARK    4  A    between atoms: C_7  and  O_6 
REMARK    5  A    between atoms: C_9  and  C_10 
REMARK    6  A    between atoms: N_15  and  C_14 
REMARK    7  A    between atoms: N_20  and  C_19 
REMARK       I    between atoms: C_22  and  N_20 
ROOT
ATOM      1  C   LIG d   1      -8.011  75.531 117.562  0.00  0.00     0.161 C 
ATOM      2  C   LIG d   1      -9.175  76.193 117.987  0.00  0.00     0.016 C 
ATOM      3  C   LIG d   1      -9.265  77.597 118.124  0.00  0.00     0.038 C 
ATOM      4  C   LIG d   1      -8.237  78.452 117.698  0.00  0.00     0.028 C 
ATOM      5  C   LIG d   1      -6.857  77.804 117.736  0.00  0.00    -0.047 C 
ATOM      6  C   LIG d   1      -6.916  76.454 116.986  0.00  0.00     0.091 C 
ENDROOT
BRANCH   1   7
ATOM      7  O   LIG d   1      -8.353  74.505 116.609  0.00  0.00    -0.368 OA
BRANCH   7   8
ATOM      8  C   LIG d   1      -8.481  73.162 117.137  0.00  0.00     0.119 C 
BRANCH   8   9
ATOM      9  C   LIG d   1      -7.120  72.462 116.958  0.00  0.00     0.028 C 
ATOM     10  C   LIG d   1      -6.553  72.637 115.539  0.00  0.00     0.006 C 
ENDBRANCH   8   9
BRANCH   8  11
ATOM     11  C   LIG d   1      -9.474  72.333 116.318  0.00  0.00     0.028 C 
ATOM     12  C   LIG d   1      -9.564  70.873 116.790  0.00  0.00     0.006 C 
ENDBRANCH   8  11
ENDBRANCH   7   8
ENDBRANCH   1   7
BRANCH   6  13
ATOM     13  N   LIG d   1      -5.628  75.715 117.048  0.00  0.00    -0.311 N 
ATOM     14  C   LIG d   1      -4.689  75.800 116.107  0.00  0.00     0.210 C 
ATOM     15  C   LIG d   1      -3.445  74.940 116.355  0.00  0.00     0.109 C 
ATOM     16  O   LIG d   1      -4.754  76.529 115.106  0.00  0.00    -0.276 OA
ATOM     17  H   LIG d   1      -5.478  75.123 117.841  0.00  0.00     0.149 HD
ENDBRANCH   6  13
BRANCH   5  18
ATOM     18  N   LIG d   1      -5.902  78.756 117.137  0.00  0.00     0.381 N 
ATOM     19  H   LIG d   1      -5.131  78.258 116.740  0.00  0.00    -0.090 HD
ATOM     20  H   LIG d   1      -5.549  79.360 117.859  0.00  0.00    -0.090 HD
ATOM     21  H   LIG d   1      -6.355  79.297 116.434  0.00  0.00    -0.090 HD
ENDBRANCH   5  18
BRANCH   3  22
ATOM     22  C   LIG d   1     -10.379  78.158 118.731  0.00  0.00     0.382 C 
ATOM     23  O   LIG d   1     -11.322  77.423 119.111  0.00  0.00    -0.241 OA
ATOM     24  O   LIG d   1     -10.472  79.393 118.862  0.00  0.00    -0.241 OA
ENDBRANCH   3  22
TORSDOF 7
ENDMDL
MODEL 2
REMARK VINA RESULT:      -5.5      2.157      5.447
REMARK  7 active torsions:
REMARK  status: ('A' for Active; 'I' for Inactive)
REMARK    1  A    between atoms: C_2  and  C_3 
REMARK    2  A    between atoms: C_3  and  O_6 
REMARK    3  A    between atoms: C_3  and  C_4 
REMARK    4  A    between atoms: C_7  and  O_6 
REMARK    5  A    between atoms: C_9  and  C_10 
REMARK    6  A    between atoms: N_15  and  C_14 
REMARK    7  A    between atoms: N_20  and  C_19 
REMARK       I    between atoms: C_22  and  N_20 
ROOT
ATOM      1  C   LIG d   1      -5.548  74.955 116.654  0.00  0.00     0.161 C 
ATOM      2  C   LIG d   1      -4.389  74.220 116.353  0.00  0.00     0.016 C 
ATOM      3  C   LIG d   1      -3.081  74.690 116.613  0.00  0.00     0.038 C 
ATOM      4  C   LIG d   1      -2.846  75.870 117.334  0.00  0.00     0.028 C 
ATOM      5  C   LIG d   1      -3.973  76.889 117.211  0.00  0.00    -0.047 C 
ATOM      6  C   LIG d   1      -5.315  76.196 117.541  0.00  0.00     0.091 C 
ENDROOT
BRANCH   1   7
ATOM      7  O   LIG d   1      -6.534  74.090 117.251  0.00  0.00    -0.368 OA
BRANCH   7   8
ATOM      8  C   LIG d   1      -7.599  73.640 116.378  0.00  0.00     0.119 C 
BRANCH   8   9
ATOM      9  C   LIG d   1      -8.923  73.777 117.153  0.00  0.00     0.028 C 
ATOM     10  C   LIG d   1      -9.439  75.226 117.182  0.00  0.00     0.006 C 
ENDBRANCH   8   9
BRANCH   8  11
ATOM     11  C   LIG d   1      -7.467  72.147 116.062  0.00  0.00     0.028 C 
ATOM     12  C   LIG d   1      -8.786  71.380 116.248  0.00  0.00     0.006 C 
ENDBRANCH   8  11
ENDBRANCH   7   8
ENDBRANCH   1   7
BRANCH   6  13
ATOM     13  N   LIG d   1      -6.480  77.102 117.364  0.00  0.00    -0.311 N 
ATOM     14  C   LIG d   1      -7.005  77.824 118.352  0.00  0.00     0.210 C 
ATOM     15  C   LIG d   1      -8.215  78.676 117.958  0.00  0.00     0.109 C 
ATOM     16  O   LIG d   1      -6.563  77.864 119.510  0.00  0.00    -0.276 OA
ATOM     17  H   LIG d   1      -6.881  77.154 116.448  0.00  0.00     0.149 HD
ENDBRANCH   6  13
BRANCH   5  18
ATOM     18  N   LIG d   1      -3.662  78.009 118.119  0.00  0.00     0.381 N 
ATOM     19  H   LIG d   1      -4.354  78.726 118.023  0.00  0.00    -0.090 HD
ATOM     20  H   LIG d   1      -2.770  78.396 117.865  0.00  0.00    -0.090 HD
ATOM     21  H   LIG d   1      -3.637  77.687 119.062  0.00  0.00    -0.090 HD
ENDBRANCH   5  18
BRANCH   3  22
ATOM     22  C   LIG d   1      -1.990  73.994 116.114  0.00  0.00     0.382 C 
ATOM     23  O   LIG d   1      -1.277  73.309 116.886  0.00  0.00    -0.241 OA
ATOM     24  O   LIG d   1      -1.683  74.080 114.910  0.00  0.00    -0.241 OA
ENDBRANCH   3  22
TORSDOF 7
ENDMDL
MODEL 3
REMARK VINA RESULT:      -5.4      1.874      5.138
REMARK  7 active torsions:
REMARK  status: ('A' for Active; 'I' for Inactive)
REMARK    1  A    between atoms: C_2  and  C_3 
REMARK    2  A    between atoms: C_3  and  O_6 
REMARK    3  A    between atoms: C_3  and  C_4 
REMARK    4  A    between atoms: C_7  and  O_6 
REMARK    5  A    between atoms: C_9  and  C_10 
REMARK    6  A    between atoms: N_15  and  C_14 
REMARK    7  A    between atoms: N_20  and  C_19 
REMARK       I    between atoms: C_22  and  N_20 
ROOT
ATOM      1  C   LIG d   1      -7.917  75.741 117.088  0.00  0.00     0.161 C 
ATOM      2  C   LIG d   1      -8.498  74.471 116.944  0.00  0.00     0.016 C 
ATOM      3  C   LIG d   1      -7.769  73.319 116.568  0.00  0.00     0.038 C 
ATOM      4  C   LIG d   1      -6.370  73.331 116.457  0.00  0.00     0.028 C 
ATOM      5  C   LIG d   1      -5.803  74.701 116.100  0.00  0.00    -0.047 C 
ATOM      6  C   LIG d   1      -6.374  75.752 117.079  0.00  0.00     0.091 C 
ENDROOT
BRANCH   1   7
ATOM      7  O   LIG d   1      -8.416  76.374 118.283  0.00  0.00    -0.368 OA
BRANCH   7   8
ATOM      8  C   LIG d   1      -9.315  77.493 118.084  0.00  0.00     0.119 C 
BRANCH   8   9
ATOM      9  C   LIG d   1      -8.680  78.723 118.761  0.00  0.00     0.028 C 
ATOM     10  C   LIG d   1      -8.263  79.801 117.746  0.00  0.00     0.006 C 
ENDBRANCH   8   9
BRANCH   8  11
ATOM     11  C   LIG d   1     -10.646  77.273 118.809  0.00  0.00     0.028 C 
ATOM     12  C   LIG d   1     -10.841  78.227 119.998  0.00  0.00     0.006 C 
ENDBRANCH   8  11
ENDBRANCH   7   8
ENDBRANCH   1   7
BRANCH   6  13
ATOM     13  N   LIG d   1      -5.935  77.133 116.748  0.00  0.00    -0.311 N 
ATOM     14  C   LIG d   1      -4.881  77.721 117.310  0.00  0.00     0.210 C 
ATOM     15  C   LIG d   1      -4.615  79.155 116.841  0.00  0.00     0.109 C 
ATOM     16  O   LIG d   1      -4.122  77.180 118.128  0.00  0.00    -0.276 OA
ATOM     17  H   LIG d   1      -6.477  77.633 116.071  0.00  0.00     0.149 HD
ENDBRANCH   6  13
BRANCH   5  18
ATOM     18  N   LIG d   1      -4.332  74.601 116.153  0.00  0.00     0.381 N 
ATOM     19  H   LIG d   1      -3.943  74.860 115.268  0.00  0.00    -0.090 HD
ATOM     20  H   LIG d   1      -4.077  73.648 116.342  0.00  0.00    -0.090 HD
ATOM     21  H   LIG d   1      -3.975  75.197 116.867  0.00  0.00    -0.090 HD
ENDBRANCH   5  18
BRANCH   3  22
ATOM     22  C   LIG d   1      -8.444  72.148 116.260  0.00  0.00     0.382 C 
ATOM     23  O   LIG d   1      -7.834  71.198 115.713  0.00  0.00    -0.241 OA
ATOM     24  O   LIG d   1      -9.665  72.046 116.482  0.00  0.00    -0.241 OA
ENDBRANCH   3  22
TORSDOF 7
ENDMDL
MODEL 4
REMARK VINA RESULT:      -5.3     14.901     17.392
REMARK  7 active torsions:
REMARK  status: ('A' for Active; 'I' for Inactive)
REMARK    1  A    between atoms: C_2  and  C_3 
REMARK    2  A    between atoms: C_3  and  O_6 
REMARK    3  A    between atoms: C_3  and  C_4 
REMARK    4  A    between atoms: C_7  and  O_6 
REMARK    5  A    between atoms: C_9  and  C_10 
REMARK    6  A    between atoms: N_15  and  C_14 
REMARK    7  A    between atoms: N_20  and  C_19 
REMARK       I    between atoms: C_22  and  N_20 
ROOT
ATOM      1  C   LIG d   1      -4.420  91.782 117.876  0.00  0.00     0.161 C 
ATOM      2  C   LIG d   1      -5.075  91.263 116.747  0.00  0.00     0.016 C 
ATOM      3  C   LIG d   1      -6.372  91.660 116.348  0.00  0.00     0.038 C 
ATOM      4  C   LIG d   1      -7.046  92.722 116.970  0.00  0.00     0.028 C 
ATOM      5  C   LIG d   1      -6.635  92.931 118.424  0.00  0.00    -0.047 C 
ATOM      6  C   LIG d   1      -5.094  93.021 118.502  0.00  0.00     0.091 C 
ENDROOT
BRANCH   1   7
ATOM      7  O   LIG d   1      -3.045  92.069 117.554  0.00  0.00    -0.368 OA
BRANCH   7   8
ATOM      8  C   LIG d   1      -2.047  91.350 118.319  0.00  0.00     0.119 C 
BRANCH   8   9
ATOM      9  C   LIG d   1      -0.754  92.188 118.299  0.00  0.00     0.028 C 
ATOM     10  C   LIG d   1      -1.005  93.642 117.863  0.00  0.00     0.006 C 
ENDBRANCH   8   9
BRANCH   8  11
ATOM     11  C   LIG d   1      -1.680  90.022 117.649  0.00  0.00     0.028 C 
ATOM     12  C   LIG d   1      -2.321  88.808 118.339  0.00  0.00     0.006 C 
ENDBRANCH   8  11
ENDBRANCH   7   8
ENDBRANCH   1   7
BRANCH   6  13
ATOM     13  N   LIG d   1      -4.603  93.141 119.900  0.00  0.00    -0.311 N 
ATOM     14  C   LIG d   1      -3.898  94.181 120.342  0.00  0.00     0.210 C 
ATOM     15  C   LIG d   1      -3.474  94.097 121.811  0.00  0.00     0.109 C 
ATOM     16  O   LIG d   1      -3.611  95.180 119.665  0.00  0.00    -0.276 OA
ATOM     17  H   LIG d   1      -4.818  92.390 120.525  0.00  0.00     0.149 HD
ENDBRANCH   6  13
BRANCH   5  18
ATOM     18  N   LIG d   1      -7.310  94.151 118.906  0.00  0.00     0.381 N 
ATOM     19  H   LIG d   1      -8.298  93.998 118.947  0.00  0.00    -0.090 HD
ATOM     20  H   LIG d   1      -7.133  94.898 118.259  0.00  0.00    -0.090 HD
ATOM     21  H   LIG d   1      -6.968  94.396 119.809  0.00  0.00    -0.090 HD
ENDBRANCH   5  18
BRANCH   3  22
ATOM     22  C   LIG d   1      -7.025  90.966 115.341  0.00  0.00     0.382 C 
ATOM     23  O   LIG d   1      -7.893  91.542 114.643  0.00  0.00    -0.241 OA
ATOM     24  O   LIG d   1      -6.788  89.758 115.151  0.00  0.00    -0.241 OA
ENDBRANCH   3  22
TORSDOF 7
ENDMDL
MODEL 5
REMARK VINA RESULT:      -5.2     15.370     17.871
REMARK  7 active torsions:
REMARK  status: ('A' for Active; 'I' for Inactive)
REMARK    1  A    between atoms: C_2  and  C_3 
REMARK    2  A    between atoms: C_3  and  O_6 
REMARK    3  A    between atoms: C_3  and  C_4 
REMARK    4  A    between atoms: C_7  and  O_6 
REMARK    5  A    between atoms: C_9  and  C_10 
REMARK    6  A    between atoms: N_15  and  C_14 
REMARK    7  A    between atoms: N_20  and  C_19 
REMARK       I    between atoms: C_22  and  N_20 
ROOT
ATOM      1  C   LIG d   1      -5.096  92.180 118.099  0.00  0.00     0.161 C 
ATOM      2  C   LIG d   1      -5.187  91.324 116.989  0.00  0.00     0.016 C 
ATOM      3  C   LIG d   1      -6.306  91.286 116.125  0.00  0.00     0.038 C 
ATOM      4  C   LIG d   1      -7.353  92.215 116.226  0.00  0.00     0.028 C 
ATOM      5  C   LIG d   1      -7.540  92.765 117.636  0.00  0.00    -0.047 C 
ATOM      6  C   LIG d   1      -6.179  93.277 118.160  0.00  0.00     0.091 C 
ENDROOT
BRANCH   1   7
ATOM      7  O   LIG d   1      -3.782  92.769 118.155  0.00  0.00    -0.368 OA
BRANCH   7   8
ATOM      8  C   LIG d   1      -2.672  91.843 118.254  0.00  0.00     0.119 C 
BRANCH   8   9
ATOM      9  C   LIG d   1      -2.620  91.335 119.708  0.00  0.00     0.028 C 
ATOM     10  C   LIG d   1      -2.688  92.481 120.732  0.00  0.00     0.006 C 
ENDBRANCH   8   9
BRANCH   8  11
ATOM     11  C   LIG d   1      -1.334  92.550 118.023  0.00  0.00     0.028 C 
ATOM     12  C   LIG d   1      -1.501  94.001 117.545  0.00  0.00     0.006 C 
ENDBRANCH   8  11
ENDBRANCH   7   8
ENDBRANCH   1   7
BRANCH   6  13
ATOM     13  N   LIG d   1      -6.256  93.755 119.565  0.00  0.00    -0.311 N 
ATOM     14  C   LIG d   1      -6.460  95.029 119.896  0.00  0.00     0.210 C 
ATOM     15  C   LIG d   1      -6.485  95.310 121.402  0.00  0.00     0.109 C 
ATOM     16  O   LIG d   1      -6.655  95.948 119.086  0.00  0.00    -0.276 OA
ATOM     17  H   LIG d   1      -6.140  93.071 120.287  0.00  0.00     0.149 HD
ENDBRANCH   6  13
BRANCH   5  18
ATOM     18  N   LIG d   1      -8.568  93.821 117.570  0.00  0.00     0.381 N 
ATOM     19  H   LIG d   1      -9.080  93.849 118.429  0.00  0.00    -0.090 HD
ATOM     20  H   LIG d   1      -9.210  93.603 116.827  0.00  0.00    -0.090 HD
ATOM     21  H   LIG d   1      -8.140  94.704 117.400  0.00  0.00    -0.090 HD
ENDBRANCH   5  18
BRANCH   3  22
ATOM     22  C   LIG d   1      -6.404  90.285 115.171  0.00  0.00     0.382 C 
ATOM     23  O   LIG d   1      -7.493  90.088 114.579  0.00  0.00    -0.241 OA
ATOM     24  O   LIG d   1      -5.431  89.548 114.926  0.00  0.00    -0.241 OA
ENDBRANCH   3  22
TORSDOF 7
ENDMDL
MODEL 6
REMARK VINA RESULT:      -5.1      2.080      5.155
REMARK  7 active torsions:
REMARK  status: ('A' for Active; 'I' for Inactive)
REMARK    1  A    between atoms: C_2  and  C_3 
REMARK    2  A    between atoms: C_3  and  O_6 
REMARK    3  A    between atoms: C_3  and  C_4 
REMARK    4  A    between atoms: C_7  and  O_6 
REMARK    5  A    between atoms: C_9  and  C_10 
REMARK    6  A    between atoms: N_15  and  C_14 
REMARK    7  A    between atoms: N_20  and  C_19 
REMARK       I    between atoms: C_22  and  N_20 
ROOT
ATOM      1  C   LIG d   1      -7.179  75.690 117.330  0.00  0.00     0.161 C 
ATOM      2  C   LIG d   1      -7.896  74.482 117.304  0.00  0.00     0.016 C 
ATOM      3  C   LIG d   1      -7.521  73.372 116.512  0.00  0.00     0.038 C 
ATOM      4  C   LIG d   1      -6.311  73.342 115.803  0.00  0.00     0.028 C 
ATOM      5  C   LIG d   1      -5.811  74.725 115.400  0.00  0.00    -0.047 C 
ATOM      6  C   LIG d   1      -5.796  75.637 116.648  0.00  0.00     0.091 C 
ENDROOT
BRANCH   1   7
ATOM      7  O   LIG d   1      -7.050  76.153 118.689  0.00  0.00    -0.368 OA
BRANCH   7   8
ATOM      8  C   LIG d   1      -7.872  77.288 119.056  0.00  0.00     0.119 C 
BRANCH   8   9
ATOM      9  C   LIG d   1      -8.952  77.449 117.970  0.00  0.00     0.028 C 
ATOM     10  C   LIG d   1     -10.363  77.133 118.494  0.00  0.00     0.006 C 
ENDBRANCH   8   9
BRANCH   8  11
ATOM     11  C   LIG d   1      -7.068  78.592 119.024  0.00  0.00     0.028 C 
ATOM     12  C   LIG d   1      -7.515  79.540 117.901  0.00  0.00     0.006 C 
ENDBRANCH   8  11
ENDBRANCH   7   8
ENDBRANCH   1   7
BRANCH   6  13
ATOM     13  N   LIG d   1      -5.398  77.032 116.326  0.00  0.00    -0.311 N 
ATOM     14  C   LIG d   1      -4.308  77.616 116.821  0.00  0.00     0.210 C 
ATOM     15  C   LIG d   1      -4.094  79.067 116.377  0.00  0.00     0.109 C 
ATOM     16  O   LIG d   1      -3.481  77.061 117.559  0.00  0.00    -0.276 OA
ATOM     17  H   LIG d   1      -5.997  77.546 115.710  0.00  0.00     0.149 HD
ENDBRANCH   6  13
BRANCH   5  18
ATOM     18  N   LIG d   1      -4.478  74.557 114.791  0.00  0.00     0.381 N 
ATOM     19  H   LIG d   1      -4.196  73.598 114.851  0.00  0.00    -0.090 HD
ATOM     20  H   LIG d   1      -3.814  75.113 115.302  0.00  0.00    -0.090 HD
ATOM     21  H   LIG d   1      -4.499  74.845 113.838  0.00  0.00    -0.090 HD
ENDBRANCH   5  18
BRANCH   3  22
ATOM     22  C   LIG d   1      -8.382  72.292 116.393  0.00  0.00     0.382 C 
ATOM     23  O   LIG d   1      -8.058  71.307 115.686  0.00  0.00    -0.241 OA
ATOM     24  O   LIG d   1      -9.497  72.308 116.948  0.00  0.00    -0.241 OA
ENDBRANCH   3  22
TORSDOF 7
ENDMDL
MODEL 7
REMARK VINA RESULT:      -5.1     15.465     18.110
REMARK  7 active torsions:
REMARK  status: ('A' for Active; 'I' for Inactive)
REMARK    1  A    between atoms: C_2  and  C_3 
REMARK    2  A    between atoms: C_3  and  O_6 
REMARK    3  A    between atoms: C_3  and  C_4 
REMARK    4  A    between atoms: C_7  and  O_6 
REMARK    5  A    between atoms: C_9  and  C_10 
REMARK    6  A    between atoms: N_15  and  C_14 
REMARK    7  A    between atoms: N_20  and  C_19 
REMARK       I    between atoms: C_22  and  N_20 
ROOT
ATOM      1  C   LIG d   1      -5.933  93.200 118.195  0.00  0.00     0.161 C 
ATOM      2  C   LIG d   1      -6.753  92.514 117.283  0.00  0.00     0.016 C 
ATOM      3  C   LIG d   1      -6.296  91.447 116.475  0.00  0.00     0.038 C 
ATOM      4  C   LIG d   1      -5.018  90.891 116.636  0.00  0.00     0.028 C 
ATOM      5  C   LIG d   1      -3.993  91.876 117.188  0.00  0.00    -0.047 C 
ATOM      6  C   LIG d   1      -4.567  92.535 118.463  0.00  0.00     0.091 C 
ENDROOT
BRANCH   1   7
ATOM      7  O   LIG d   1      -6.643  93.403 119.432  0.00  0.00    -0.368 OA
BRANCH   7   8
ATOM      8  C   LIG d   1      -6.969  94.776 119.762  0.00  0.00     0.119 C 
BRANCH   8   9
ATOM      9  C   LIG d   1      -6.849  94.927 121.291  0.00  0.00     0.028 C 
ATOM     10  C   LIG d   1      -5.475  95.467 121.721  0.00  0.00     0.006 C 
ENDBRANCH   8   9
BRANCH   8  11
ATOM     11  C   LIG d   1      -8.431  95.095 119.436  0.00  0.00     0.028 C 
ATOM     12  C   LIG d   1      -8.595  95.841 118.103  0.00  0.00     0.006 C 
ENDBRANCH   8  11
ENDBRANCH   7   8
ENDBRANCH   1   7
BRANCH   6  13
ATOM     13  N   LIG d   1      -3.662  93.574 119.020  0.00  0.00    -0.311 N 
ATOM     14  C   LIG d   1      -2.769  93.332 119.978  0.00  0.00     0.210 C 
ATOM     15  C   LIG d   1      -1.951  94.548 120.423  0.00  0.00     0.109 C 
ATOM     16  O   LIG d   1      -2.555  92.218 120.480  0.00  0.00    -0.276 OA
ATOM     17  H   LIG d   1      -3.747  94.499 118.648  0.00  0.00     0.149 HD
ENDBRANCH   6  13
BRANCH   5  18
ATOM     18  N   LIG d   1      -2.745  91.129 117.434  0.00  0.00     0.381 N 
ATOM     19  H   LIG d   1      -2.134  91.672 118.011  0.00  0.00    -0.090 HD
ATOM     20  H   LIG d   1      -2.285  90.966 116.555  0.00  0.00    -0.090 HD
ATOM     21  H   LIG d   1      -2.949  90.261 117.877  0.00  0.00    -0.090 HD
ENDBRANCH   5  18
BRANCH   3  22
ATOM     22  C   LIG d   1      -7.108  90.952 115.467  0.00  0.00     0.382 C 
ATOM     23  O   LIG d   1      -7.194  89.713 115.282  0.00  0.00    -0.241 OA
ATOM     24  O   LIG d   1      -7.722  91.728 114.711  0.00  0.00    -0.241 OA
ENDBRANCH   3  22
TORSDOF 7
ENDMDL
MODEL 8
REMARK VINA RESULT:      -4.7      2.542      5.132
REMARK  7 active torsions:
REMARK  status: ('A' for Active; 'I' for Inactive)
REMARK    1  A    between atoms: C_2  and  C_3 
REMARK    2  A    between atoms: C_3  and  O_6 
REMARK    3  A    between atoms: C_3  and  C_4 
REMARK    4  A    between atoms: C_7  and  O_6 
REMARK    5  A    between atoms: C_9  and  C_10 
REMARK    6  A    between atoms: N_15  and  C_14 
REMARK    7  A    between atoms: N_20  and  C_19 
REMARK       I    between atoms: C_22  and  N_20 
ROOT
ATOM      1  C   LIG d   1      -6.492  77.507 117.557  0.00  0.00     0.161 C 
ATOM      2  C   LIG d   1      -5.238  77.635 116.937  0.00  0.00     0.016 C 
ATOM      3  C   LIG d   1      -4.571  78.872 116.779  0.00  0.00     0.038 C 
ATOM      4  C   LIG d   1      -5.047  80.052 117.370  0.00  0.00     0.028 C 
ATOM      5  C   LIG d   1      -6.559  80.061 117.571  0.00  0.00    -0.047 C 
ATOM      6  C   LIG d   1      -6.975  78.766 118.305  0.00  0.00     0.091 C 
ENDROOT
BRANCH   1   7
ATOM      7  O   LIG d   1      -6.485  76.369 118.442  0.00  0.00    -0.368 OA
BRANCH   7   8
ATOM      8  C   LIG d   1      -7.263  75.225 118.016  0.00  0.00     0.119 C 
BRANCH   8   9
ATOM      9  C   LIG d   1      -6.281  74.181 117.449  0.00  0.00     0.028 C 
ATOM     10  C   LIG d   1      -6.622  73.776 116.006  0.00  0.00     0.006 C 
ENDBRANCH   8   9
BRANCH   8  11
ATOM     11  C   LIG d   1      -8.190  75.584 116.850  0.00  0.00     0.028 C 
ATOM     12  C   LIG d   1      -9.678  75.473 117.216  0.00  0.00     0.006 C 
ENDBRANCH   8  11
ENDBRANCH   7   8
ENDBRANCH   1   7
BRANCH   6  13
ATOM     13  N   LIG d   1      -8.449  78.656 118.468  0.00  0.00    -0.311 N 
ATOM     14  C   LIG d   1      -9.039  78.374 119.628  0.00  0.00     0.210 C 
ATOM     15  C   LIG d   1     -10.568  78.287 119.571  0.00  0.00     0.109 C 
ATOM     16  O   LIG d   1      -8.445  78.221 120.705  0.00  0.00    -0.276 OA
ATOM     17  H   LIG d   1      -9.009  78.796 117.650  0.00  0.00     0.149 HD
ENDBRANCH   6  13
BRANCH   5  18
ATOM     18  N   LIG d   1      -6.902  81.286 118.318  0.00  0.00     0.381 N 
ATOM     19  H   LIG d   1      -7.292  81.042 119.206  0.00  0.00    -0.090 HD
ATOM     20  H   LIG d   1      -7.593  81.800 117.800  0.00  0.00    -0.090 HD
ATOM     21  H   LIG d   1      -6.088  81.846 118.446  0.00  0.00    -0.090 HD
ENDBRANCH   5  18
BRANCH   3  22
ATOM     22  C   LIG d   1      -3.434  78.943 115.989  0.00  0.00     0.382 C 
ATOM     23  O   LIG d   1      -2.385  78.354 116.346  0.00  0.00    -0.241 OA
ATOM     24  O   LIG d   1      -3.430  79.626 114.948  0.00  0.00    -0.241 OA
ENDBRANCH   3  22
TORSDOF 7
ENDMDL
MODEL 9
REMARK VINA RESULT:      -4.6      2.153      4.607
REMARK  7 active torsions:
REMARK  status: ('A' for Active; 'I' for Inactive)
REMARK    1  A    between atoms: C_2  and  C_3 
REMARK    2  A    between atoms: C_3  and  O_6 
REMARK    3  A    between atoms: C_3  and  C_4 
REMARK    4  A    between atoms: C_7  and  O_6 
REMARK    5  A    between atoms: C_9  and  C_10 
REMARK    6  A    between atoms: N_15  and  C_14 
REMARK    7  A    between atoms: N_20  and  C_19 
REMARK       I    between atoms: C_22  and  N_20 
ROOT
ATOM      1  C   LIG d   1      -6.938  77.798 117.167  0.00  0.00     0.161 C 
ATOM      2  C   LIG d   1      -7.756  78.792 117.730  0.00  0.00     0.016 C 
ATOM      3  C   LIG d   1      -9.062  78.545 118.211  0.00  0.00     0.038 C 
ATOM      4  C   LIG d   1      -9.586  77.246 118.299  0.00  0.00     0.028 C 
ATOM      5  C   LIG d   1      -8.993  76.283 117.278  0.00  0.00    -0.047 C 
ATOM      6  C   LIG d   1      -7.450  76.355 117.357  0.00  0.00     0.091 C 
ENDROOT
BRANCH   1   7
ATOM      7  O   LIG d   1      -5.595  77.924 117.676  0.00  0.00    -0.368 OA
BRANCH   7   8
ATOM      8  C   LIG d   1      -4.573  78.252 116.703  0.00  0.00     0.119 C 
BRANCH   8   9
ATOM      9  C   LIG d   1      -3.585  77.071 116.652  0.00  0.00     0.028 C 
ATOM     10  C   LIG d   1      -3.591  76.246 117.950  0.00  0.00     0.006 C 
ENDBRANCH   8   9
BRANCH   8  11
ATOM     11  C   LIG d   1      -3.742  79.457 117.153  0.00  0.00     0.028 C 
ATOM     12  C   LIG d   1      -4.325  80.154 118.393  0.00  0.00     0.006 C 
ENDBRANCH   8  11
ENDBRANCH   7   8
ENDBRANCH   1   7
BRANCH   6  13
ATOM     13  N   LIG d   1      -6.790  75.505 116.332  0.00  0.00    -0.311 N 
ATOM     14  C   LIG d   1      -6.430  74.241 116.550  0.00  0.00     0.210 C 
ATOM     15  C   LIG d   1      -5.745  73.551 115.366  0.00  0.00     0.109 C 
ATOM     16  O   LIG d   1      -6.642  73.616 117.600  0.00  0.00    -0.276 OA
ATOM     17  H   LIG d   1      -6.608  75.923 115.441  0.00  0.00     0.149 HD
ENDBRANCH   6  13
BRANCH   5  18
ATOM     18  N   LIG d   1      -9.524  74.938 117.571  0.00  0.00     0.381 N 
ATOM     19  H   LIG d   1      -9.329  74.697 118.522  0.00  0.00    -0.090 HD
ATOM     20  H   LIG d   1      -9.067  74.271 116.976  0.00  0.00    -0.090 HD
ATOM     21  H   LIG d   1     -10.507  74.918 117.411  0.00  0.00    -0.090 HD
ENDBRANCH   5  18
BRANCH   3  22
ATOM     22  C   LIG d   1      -9.874  79.609 118.572  0.00  0.00     0.382 C 
ATOM     23  O   LIG d   1     -10.285  79.711 119.754  0.00  0.00    -0.241 OA
ATOM     24  O   LIG d   1     -10.237  80.444 117.722  0.00  0.00    -0.241 OA
ENDBRANCH   3  22
TORSDOF 7
ENDMDL
