MODEL 1
REMARK VINA RESULT:      -5.9      0.000      0.000
REMARK  7 active torsions:
REMARK  status: ('A' for Active; 'I' for Inactive)
REMARK    1  A    between atoms: C_2  and  C_3 
REMARK    2  A    between atoms: C_3  and  O_6 
REMARK    3  A    between atoms: C_3  and  C_4 
REMARK    4  A    between atoms: C_7  and  O_6 
REMARK    5  A    between atoms: C_9  and  C_10 
REMARK    6  A    between atoms: N_15  and  C_14 
REMARK    7  A    between atoms: N_20  and  C_19 
REMARK       I    between atoms: C_22  and  N_20 
ROOT
ATOM      1  C   LIG d   1      -7.349  75.136 118.126  0.00  0.00     0.161 C 
ATOM      2  C   LIG d   1      -7.345  73.831 117.605  0.00  0.00     0.016 C 
ATOM      3  C   LIG d   1      -8.482  73.219 117.030  0.00  0.00     0.038 C 
ATOM      4  C   LIG d   1      -9.669  73.931 116.798  0.00  0.00     0.028 C 
ATOM      5  C   LIG d   1      -9.878  75.092 117.764  0.00  0.00    -0.047 C 
ATOM      6  C   LIG d   1      -8.603  75.966 117.782  0.00  0.00     0.091 C 
ENDROOT
BRANCH   1   7
ATOM      7  O   LIG d   1      -6.157  75.832 117.710  0.00  0.00    -0.368 OA
BRANCH   7   8
ATOM      8  C   LIG d   1      -5.120  75.017 117.110  0.00  0.00     0.119 C 
BRANCH   8   9
ATOM      9  C   LIG d   1      -3.871  75.124 118.007  0.00  0.00     0.028 C 
ATOM     10  C   LIG d   1      -2.826  74.042 117.689  0.00  0.00     0.006 C 
ENDBRANCH   8   9
BRANCH   8  11
ATOM     11  C   LIG d   1      -4.692  75.573 115.749  0.00  0.00     0.028 C 
ATOM     12  C   LIG d   1      -5.373  74.858 114.572  0.00  0.00     0.006 C 
ENDBRANCH   8  11
ENDBRANCH   7   8
ENDBRANCH   1   7
BRANCH   6  13
ATOM     13  N   LIG d   1      -8.691  77.077 118.765  0.00  0.00    -0.311 N 
ATOM     14  C   LIG d   1      -8.298  78.322 118.501  0.00  0.00     0.210 C 
ATOM     15  C   LIG d   1      -8.457  79.310 119.661  0.00  0.00     0.109 C 
ATOM     16  O   LIG d   1      -7.863  78.709 117.406  0.00  0.00    -0.276 OA
ATOM     17  H   LIG d   1      -9.062  76.858 119.669  0.00  0.00     0.149 HD
ENDBRANCH   6  13
BRANCH   5  18
ATOM     18  N   LIG d   1     -11.078  75.828 117.323  0.00  0.00     0.381 N 
ATOM     19  H   LIG d   1     -11.865  75.554 117.876  0.00  0.00    -0.090 HD
ATOM     20  H   LIG d   1     -11.268  75.595 116.365  0.00  0.00    -0.090 HD
ATOM     21  H   LIG d   1     -10.927  76.809 117.411  0.00  0.00    -0.090 HD
ENDBRANCH   5  18
BRANCH   3  22
ATOM     22  C   LIG d   1      -8.452  71.869 116.716  0.00  0.00     0.382 C 
ATOM     23  O   LIG d   1      -7.477  71.394 116.084  0.00  0.00    -0.241 OA
ATOM     24  O   LIG d   1      -9.406  71.128 117.018  0.00  0.00    -0.241 OA
ENDBRANCH   3  22
TORSDOF 7
ENDMDL
MODEL 2
REMARK VINA RESULT:      -5.8     11.827     14.141
REMARK  7 active torsions:
REMARK  status: ('A' for Active; 'I' for Inactive)
REMARK    1  A    between atoms: C_2  and  C_3 
REMARK    2  A    between atoms: C_3  and  O_6 
REMARK    3  A    between atoms: C_3  and  C_4 
REMARK    4  A    between atoms: C_7  and  O_6 
REMARK    5  A    between atoms: C_9  and  C_10 
REMARK    6  A    between atoms: N_15  and  C_14 
REMARK    7  A    between atoms: N_20  and  C_19 
REMARK       I    between atoms: C_22  and  N_20 
ROOT
ATOM      1  C   LIG d   1      -0.036  83.815 111.409  0.00  0.00     0.161 C 
ATOM      2  C   LIG d   1       0.133  84.785 112.411  0.00  0.00     0.016 C 
ATOM      3  C   LIG d   1       0.539  84.480 113.730  0.00  0.00     0.038 C 
ATOM      4  C   LIG d   1       0.953  83.191 114.098  0.00  0.00     0.028 C 
ATOM      5  C   LIG d   1       0.318  82.088 113.258  0.00  0.00    -0.047 C 
ATOM      6  C   LIG d   1       0.518  82.419 111.762  0.00  0.00     0.091 C 
ENDROOT
BRANCH   1   7
ATOM      7  O   LIG d   1       0.538  84.284 110.173  0.00  0.00    -0.368 OA
BRANCH   7   8
ATOM      8  C   LIG d   1       1.881  84.822 110.257  0.00  0.00     0.119 C 
BRANCH   8   9
ATOM      9  C   LIG d   1       1.841  86.255 109.692  0.00  0.00     0.028 C 
ATOM     10  C   LIG d   1       2.187  87.313 110.754  0.00  0.00     0.006 C 
ENDBRANCH   8   9
BRANCH   8  11
ATOM     11  C   LIG d   1       2.846  84.054 109.349  0.00  0.00     0.028 C 
ATOM     12  C   LIG d   1       3.879  83.233 110.136  0.00  0.00     0.006 C 
ENDBRANCH   8  11
ENDBRANCH   7   8
ENDBRANCH   1   7
BRANCH   6  13
ATOM     13  N   LIG d   1      -0.147  81.433 110.870  0.00  0.00    -0.311 N 
ATOM     14  C   LIG d   1       0.515  80.505 110.181  0.00  0.00     0.210 C 
ATOM     15  C   LIG d   1      -0.360  79.602 109.306  0.00  0.00     0.109 C 
ATOM     16  O   LIG d   1       1.740  80.322 110.237  0.00  0.00    -0.276 OA
ATOM     17  H   LIG d   1      -1.143  81.489 110.790  0.00  0.00     0.149 HD
ENDBRANCH   6  13
BRANCH   5  18
ATOM     18  N   LIG d   1       0.940  80.811 113.656  0.00  0.00     0.381 N 
ATOM     19  H   LIG d   1       1.714  80.610 113.056  0.00  0.00    -0.090 HD
ATOM     20  H   LIG d   1       0.263  80.074 113.556  0.00  0.00    -0.090 HD
ATOM     21  H   LIG d   1       1.248  80.862 114.602  0.00  0.00    -0.090 HD
ENDBRANCH   5  18
BRANCH   3  22
ATOM     22  C   LIG d   1       0.496  85.462 114.707  0.00  0.00     0.382 C 
ATOM     23  O   LIG d   1      -0.576  86.075 114.933  0.00  0.00    -0.241 OA
ATOM     24  O   LIG d   1       1.525  85.774 115.335  0.00  0.00    -0.241 OA
ENDBRANCH   3  22
TORSDOF 7
ENDMDL
MODEL 3
REMARK VINA RESULT:      -5.8      1.529      4.873
REMARK  7 active torsions:
REMARK  status: ('A' for Active; 'I' for Inactive)
REMARK    1  A    between atoms: C_2  and  C_3 
REMARK    2  A    between atoms: C_3  and  O_6 
REMARK    3  A    between atoms: C_3  and  C_4 
REMARK    4  A    between atoms: C_7  and  O_6 
REMARK    5  A    between atoms: C_9  and  C_10 
REMARK    6  A    between atoms: N_15  and  C_14 
REMARK    7  A    between atoms: N_20  and  C_19 
REMARK       I    between atoms: C_22  and  N_20 
ROOT
ATOM      1  C   LIG d   1      -7.094  76.259 117.224  0.00  0.00     0.161 C 
ATOM      2  C   LIG d   1      -7.257  77.626 117.503  0.00  0.00     0.016 C 
ATOM      3  C   LIG d   1      -8.483  78.195 117.918  0.00  0.00     0.038 C 
ATOM      4  C   LIG d   1      -9.599  77.404 118.231  0.00  0.00     0.028 C 
ATOM      5  C   LIG d   1      -9.629  76.076 117.481  0.00  0.00    -0.047 C 
ATOM      6  C   LIG d   1      -8.270  75.364 117.667  0.00  0.00     0.091 C 
ENDROOT
BRANCH   1   7
ATOM      7  O   LIG d   1      -5.860  75.787 117.801  0.00  0.00    -0.368 OA
BRANCH   7   8
ATOM      8  C   LIG d   1      -4.772  75.551 116.874  0.00  0.00     0.119 C 
BRANCH   8   9
ATOM      9  C   LIG d   1      -5.352  75.631 115.449  0.00  0.00     0.028 C 
ATOM     10  C   LIG d   1      -5.223  74.300 114.688  0.00  0.00     0.006 C 
ENDBRANCH   8   9
BRANCH   8  11
ATOM     11  C   LIG d   1      -4.223  74.128 117.010  0.00  0.00     0.028 C 
ATOM     12  C   LIG d   1      -2.786  74.093 117.555  0.00  0.00     0.006 C 
ENDBRANCH   8  11
ENDBRANCH   7   8
ENDBRANCH   1   7
BRANCH   6  13
ATOM     13  N   LIG d   1      -8.185  74.096 116.897  0.00  0.00    -0.311 N 
ATOM     14  C   LIG d   1      -7.633  72.982 117.376  0.00  0.00     0.210 C 
ATOM     15  C   LIG d   1      -7.631  71.794 116.410  0.00  0.00     0.109 C 
ATOM     16  O   LIG d   1      -7.175  72.857 118.522  0.00  0.00    -0.276 OA
ATOM     17  H   LIG d   1      -8.560  74.100 115.969  0.00  0.00     0.149 HD
ENDBRANCH   6  13
BRANCH   5  18
ATOM     18  N   LIG d   1     -10.767  75.295 118.004  0.00  0.00     0.381 N 
ATOM     19  H   LIG d   1     -11.124  74.696 117.287  0.00  0.00    -0.090 HD
ATOM     20  H   LIG d   1     -11.497  75.929 118.277  0.00  0.00    -0.090 HD
ATOM     21  H   LIG d   1     -10.477  74.753 118.787  0.00  0.00    -0.090 HD
ENDBRANCH   5  18
BRANCH   3  22
ATOM     22  C   LIG d   1      -8.614  79.573 117.986  0.00  0.00     0.382 C 
ATOM     23  O   LIG d   1      -7.713  80.312 117.519  0.00  0.00    -0.241 OA
ATOM     24  O   LIG d   1      -9.599  80.088 118.547  0.00  0.00    -0.241 OA
ENDBRANCH   3  22
TORSDOF 7
ENDMDL
MODEL 4
REMARK VINA RESULT:      -5.2      1.850      2.423
REMARK  7 active torsions:
REMARK  status: ('A' for Active; 'I' for Inactive)
REMARK    1  A    between atoms: C_2  and  C_3 
REMARK    2  A    between atoms: C_3  and  O_6 
REMARK    3  A    between atoms: C_3  and  C_4 
REMARK    4  A    between atoms: C_7  and  O_6 
REMARK    5  A    between atoms: C_9  and  C_10 
REMARK    6  A    between atoms: N_15  and  C_14 
REMARK    7  A    between atoms: N_20  and  C_19 
REMARK       I    between atoms: C_22  and  N_20 
ROOT
ATOM      1  C   LIG d   1      -5.312  75.048 117.295  0.00  0.00     0.161 C 
ATOM      2  C   LIG d   1      -5.743  73.787 116.849  0.00  0.00     0.016 C 
ATOM      3  C   LIG d   1      -7.105  73.423 116.740  0.00  0.00     0.038 C 
ATOM      4  C   LIG d   1      -8.138  74.354 116.926  0.00  0.00     0.028 C 
ATOM      5  C   LIG d   1      -7.763  75.495 117.866  0.00  0.00    -0.047 C 
ATOM      6  C   LIG d   1      -6.425  76.112 117.397  0.00  0.00     0.091 C 
ENDROOT
BRANCH   1   7
ATOM      7  O   LIG d   1      -4.240  75.523 116.457  0.00  0.00    -0.368 OA
BRANCH   7   8
ATOM      8  C   LIG d   1      -2.897  75.265 116.934  0.00  0.00     0.119 C 
BRANCH   8   9
ATOM      9  C   LIG d   1      -2.515  76.415 117.886  0.00  0.00     0.028 C 
ATOM     10  C   LIG d   1      -2.505  77.782 117.181  0.00  0.00     0.006 C 
ENDBRANCH   8   9
BRANCH   8  11
ATOM     11  C   LIG d   1      -1.878  75.329 115.792  0.00  0.00     0.028 C 
ATOM     12  C   LIG d   1      -1.232  73.968 115.492  0.00  0.00     0.006 C 
ENDBRANCH   8  11
ENDBRANCH   7   8
ENDBRANCH   1   7
BRANCH   6  13
ATOM     13  N   LIG d   1      -5.943  77.181 118.310  0.00  0.00    -0.311 N 
ATOM     14  C   LIG d   1      -6.120  78.480 118.075  0.00  0.00     0.210 C 
ATOM     15  C   LIG d   1      -5.527  79.415 119.134  0.00  0.00     0.109 C 
ATOM     16  O   LIG d   1      -6.739  78.946 117.107  0.00  0.00    -0.276 OA
ATOM     17  H   LIG d   1      -5.457  76.890 119.135  0.00  0.00     0.149 HD
ENDBRANCH   6  13
BRANCH   5  18
ATOM     18  N   LIG d   1      -8.878  76.461 117.861  0.00  0.00     0.381 N 
ATOM     19  H   LIG d   1      -9.403  76.367 117.015  0.00  0.00    -0.090 HD
ATOM     20  H   LIG d   1      -8.502  77.392 117.898  0.00  0.00    -0.090 HD
ATOM     21  H   LIG d   1      -9.469  76.302 118.647  0.00  0.00    -0.090 HD
ENDBRANCH   5  18
BRANCH   3  22
ATOM     22  C   LIG d   1      -7.445  72.105 116.479  0.00  0.00     0.382 C 
ATOM     23  O   LIG d   1      -8.346  71.545 117.149  0.00  0.00    -0.241 OA
ATOM     24  O   LIG d   1      -6.832  71.454 115.612  0.00  0.00    -0.241 OA
ENDBRANCH   3  22
TORSDOF 7
ENDMDL
MODEL 5
REMARK VINA RESULT:      -5.2      4.370      7.287
REMARK  7 active torsions:
REMARK  status: ('A' for Active; 'I' for Inactive)
REMARK    1  A    between atoms: C_2  and  C_3 
REMARK    2  A    between atoms: C_3  and  O_6 
REMARK    3  A    between atoms: C_3  and  C_4 
REMARK    4  A    between atoms: C_7  and  O_6 
REMARK    5  A    between atoms: C_9  and  C_10 
REMARK    6  A    between atoms: N_15  and  C_14 
REMARK    7  A    between atoms: N_20  and  C_19 
REMARK       I    between atoms: C_22  and  N_20 
ROOT
ATOM      1  C   LIG d   1      -2.724  75.724 116.116  0.00  0.00     0.161 C 
ATOM      2  C   LIG d   1      -2.267  75.303 117.376  0.00  0.00     0.016 C 
ATOM      3  C   LIG d   1      -1.110  75.824 117.999  0.00  0.00     0.038 C 
ATOM      4  C   LIG d   1      -0.410  76.918 117.466  0.00  0.00     0.028 C 
ATOM      5  C   LIG d   1      -0.540  77.040 115.952  0.00  0.00    -0.047 C 
ATOM      6  C   LIG d   1      -2.037  76.994 115.571  0.00  0.00     0.091 C 
ENDROOT
BRANCH   1   7
ATOM      7  O   LIG d   1      -4.153  75.903 116.149  0.00  0.00    -0.368 OA
BRANCH   7   8
ATOM      8  C   LIG d   1      -4.948  74.692 116.106  0.00  0.00     0.119 C 
BRANCH   8   9
ATOM      9  C   LIG d   1      -5.254  74.392 114.626  0.00  0.00     0.028 C 
ATOM     10  C   LIG d   1      -5.665  75.650 113.844  0.00  0.00     0.006 C 
ENDBRANCH   8   9
BRANCH   8  11
ATOM     11  C   LIG d   1      -6.314  74.899 116.768  0.00  0.00     0.028 C 
ATOM     12  C   LIG d   1      -7.136  73.603 116.853  0.00  0.00     0.006 C 
ENDBRANCH   8  11
ENDBRANCH   7   8
ENDBRANCH   1   7
BRANCH   6  13
ATOM     13  N   LIG d   1      -2.248  77.023 114.100  0.00  0.00    -0.311 N 
ATOM     14  C   LIG d   1      -2.542  78.132 113.423  0.00  0.00     0.210 C 
ATOM     15  C   LIG d   1      -2.740  77.937 111.917  0.00  0.00     0.109 C 
ATOM     16  O   LIG d   1      -2.627  79.264 113.923  0.00  0.00    -0.276 OA
ATOM     17  H   LIG d   1      -2.168  76.153 113.610  0.00  0.00     0.149 HD
ENDBRANCH   6  13
BRANCH   5  18
ATOM     18  N   LIG d   1       0.121  78.296 115.548  0.00  0.00     0.381 N 
ATOM     19  H   LIG d   1       0.497  78.200 114.626  0.00  0.00    -0.090 HD
ATOM     20  H   LIG d   1       0.880  78.482 116.180  0.00  0.00    -0.090 HD
ATOM     21  H   LIG d   1      -0.532  79.048 115.572  0.00  0.00    -0.090 HD
ENDBRANCH   5  18
BRANCH   3  22
ATOM     22  C   LIG d   1      -0.618  75.224 119.148  0.00  0.00     0.382 C 
ATOM     23  O   LIG d   1       0.538  75.498 119.553  0.00  0.00    -0.241 OA
ATOM     24  O   LIG d   1      -1.299  74.379 119.760  0.00  0.00    -0.241 OA
ENDBRANCH   3  22
TORSDOF 7
ENDMDL
MODEL 6
REMARK VINA RESULT:      -5.1      4.438      7.047
REMARK  7 active torsions:
REMARK  status: ('A' for Active; 'I' for Inactive)
REMARK    1  A    between atoms: C_2  and  C_3 
REMARK    2  A    between atoms: C_3  and  O_6 
REMARK    3  A    between atoms: C_3  and  C_4 
REMARK    4  A    between atoms: C_7  and  O_6 
REMARK    5  A    between atoms: C_9  and  C_10 
REMARK    6  A    between atoms: N_15  and  C_14 
REMARK    7  A    between atoms: N_20  and  C_19 
REMARK       I    between atoms: C_22  and  N_20 
ROOT
ATOM      1  C   LIG d   1      -3.387  76.069 115.249  0.00  0.00     0.161 C 
ATOM      2  C   LIG d   1      -3.315  75.307 116.427  0.00  0.00     0.016 C 
ATOM      3  C   LIG d   1      -2.148  75.205 117.218  0.00  0.00     0.038 C 
ATOM      4  C   LIG d   1      -1.010  75.986 116.965  0.00  0.00     0.028 C 
ATOM      5  C   LIG d   1      -0.864  76.386 115.500  0.00  0.00    -0.047 C 
ATOM      6  C   LIG d   1      -2.190  77.015 115.017  0.00  0.00     0.091 C 
ENDROOT
BRANCH   1   7
ATOM      7  O   LIG d   1      -4.623  76.809 115.220  0.00  0.00    -0.368 OA
BRANCH   7   8
ATOM      8  C   LIG d   1      -5.597  76.463 116.236  0.00  0.00     0.119 C 
BRANCH   8   9
ATOM      9  C   LIG d   1      -6.866  75.971 115.512  0.00  0.00     0.028 C 
ATOM     10  C   LIG d   1      -7.886  75.344 116.478  0.00  0.00     0.006 C 
ENDBRANCH   8   9
BRANCH   8  11
ATOM     11  C   LIG d   1      -6.036  77.696 117.031  0.00  0.00     0.028 C 
ATOM     12  C   LIG d   1      -4.891  78.317 117.847  0.00  0.00     0.006 C 
ENDBRANCH   8  11
ENDBRANCH   7   8
ENDBRANCH   1   7
BRANCH   6  13
ATOM     13  N   LIG d   1      -2.161  77.358 113.571  0.00  0.00    -0.311 N 
ATOM     14  C   LIG d   1      -1.778  78.546 113.107  0.00  0.00     0.210 C 
ATOM     15  C   LIG d   1      -1.842  78.696 111.584  0.00  0.00     0.109 C 
ATOM     16  O   LIG d   1      -1.360  79.479 113.809  0.00  0.00    -0.276 OA
ATOM     17  H   LIG d   1      -2.455  76.648 112.928  0.00  0.00     0.149 HD
ENDBRANCH   6  13
BRANCH   5  18
ATOM     18  N   LIG d   1       0.283  77.308 115.403  0.00  0.00     0.381 N 
ATOM     19  H   LIG d   1       0.997  77.030 116.047  0.00  0.00    -0.090 HD
ATOM     20  H   LIG d   1      -0.021  78.233 115.650  0.00  0.00    -0.090 HD
ATOM     21  H   LIG d   1       0.645  77.306 114.474  0.00  0.00    -0.090 HD
ENDBRANCH   5  18
BRANCH   3  22
ATOM     22  C   LIG d   1      -2.098  74.285 118.254  0.00  0.00     0.382 C 
ATOM     23  O   LIG d   1      -1.744  74.651 119.401  0.00  0.00    -0.241 OA
ATOM     24  O   LIG d   1      -2.359  73.085 118.046  0.00  0.00    -0.241 OA
ENDBRANCH   3  22
TORSDOF 7
ENDMDL
MODEL 7
REMARK VINA RESULT:      -5.0      4.195      6.045
REMARK  7 active torsions:
REMARK  status: ('A' for Active; 'I' for Inactive)
REMARK    1  A    between atoms: C_2  and  C_3 
REMARK    2  A    between atoms: C_3  and  O_6 
REMARK    3  A    between atoms: C_3  and  C_4 
REMARK    4  A    between atoms: C_7  and  O_6 
REMARK    5  A    between atoms: C_9  and  C_10 
REMARK    6  A    between atoms: N_15  and  C_14 
REMARK    7  A    between atoms: N_20  and  C_19 
REMARK       I    between atoms: C_22  and  N_20 
ROOT
ATOM      1  C   LIG d   1      -2.983  77.441 115.441  0.00  0.00     0.161 C 
ATOM      2  C   LIG d   1      -2.115  76.406 115.055  0.00  0.00     0.016 C 
ATOM      3  C   LIG d   1      -2.174  75.100 115.594  0.00  0.00     0.038 C 
ATOM      4  C   LIG d   1      -3.209  74.697 116.450  0.00  0.00     0.028 C 
ATOM      5  C   LIG d   1      -3.809  75.844 117.257  0.00  0.00    -0.047 C 
ATOM      6  C   LIG d   1      -4.189  76.990 116.292  0.00  0.00     0.091 C 
ENDROOT
BRANCH   1   7
ATOM      7  O   LIG d   1      -3.433  78.161 114.276  0.00  0.00    -0.368 OA
BRANCH   7   8
ATOM      8  C   LIG d   1      -2.406  78.550 113.331  0.00  0.00     0.119 C 
BRANCH   8   9
ATOM      9  C   LIG d   1      -2.454  80.085 113.202  0.00  0.00     0.028 C 
ATOM     10  C   LIG d   1      -1.108  80.679 112.754  0.00  0.00     0.006 C 
ENDBRANCH   8   9
BRANCH   8  11
ATOM     11  C   LIG d   1      -2.708  78.016 111.928  0.00  0.00     0.028 C 
ATOM     12  C   LIG d   1      -1.463  77.454 111.224  0.00  0.00     0.006 C 
ENDBRANCH   8  11
ENDBRANCH   7   8
ENDBRANCH   1   7
BRANCH   6  13
ATOM     13  N   LIG d   1      -4.706  78.186 117.008  0.00  0.00    -0.311 N 
ATOM     14  C   LIG d   1      -5.996  78.378 117.277  0.00  0.00     0.210 C 
ATOM     15  C   LIG d   1      -6.316  79.687 118.006  0.00  0.00     0.109 C 
ATOM     16  O   LIG d   1      -6.902  77.574 117.010  0.00  0.00    -0.276 OA
ATOM     17  H   LIG d   1      -4.035  78.874 117.289  0.00  0.00     0.149 HD
ENDBRANCH   6  13
BRANCH   5  18
ATOM     18  N   LIG d   1      -4.964  75.308 118.002  0.00  0.00     0.381 N 
ATOM     19  H   LIG d   1      -4.815  75.422 118.985  0.00  0.00    -0.090 HD
ATOM     20  H   LIG d   1      -5.049  74.326 117.807  0.00  0.00    -0.090 HD
ATOM     21  H   LIG d   1      -5.796  75.783 117.728  0.00  0.00    -0.090 HD
ENDBRANCH   5  18
BRANCH   3  22
ATOM     22  C   LIG d   1      -1.166  74.192 115.306  0.00  0.00     0.382 C 
ATOM     23  O   LIG d   1      -0.535  74.277 114.225  0.00  0.00    -0.241 OA
ATOM     24  O   LIG d   1      -0.909  73.263 116.095  0.00  0.00    -0.241 OA
ENDBRANCH   3  22
TORSDOF 7
ENDMDL
MODEL 8
REMARK VINA RESULT:      -4.9     19.175     21.917
REMARK  7 active torsions:
REMARK  status: ('A' for Active; 'I' for Inactive)
REMARK    1  A    between atoms: C_2  and  C_3 
REMARK    2  A    between atoms: C_3  and  O_6 
REMARK    3  A    between atoms: C_3  and  C_4 
REMARK    4  A    between atoms: C_7  and  O_6 
REMARK    5  A    between atoms: C_9  and  C_10 
REMARK    6  A    between atoms: N_15  and  C_14 
REMARK    7  A    between atoms: N_20  and  C_19 
REMARK       I    between atoms: C_22  and  N_20 
ROOT
ATOM      1  C   LIG d   1     -25.752  85.345 113.231  0.00  0.00     0.161 C 
ATOM      2  C   LIG d   1     -24.686  86.239 113.424  0.00  0.00     0.016 C 
ATOM      3  C   LIG d   1     -23.336  85.830 113.521  0.00  0.00     0.038 C 
ATOM      4  C   LIG d   1     -22.943  84.505 113.279  0.00  0.00     0.028 C 
ATOM      5  C   LIG d   1     -24.036  83.485 113.581  0.00  0.00    -0.047 C 
ATOM      6  C   LIG d   1     -25.333  83.909 112.854  0.00  0.00     0.091 C 
ENDROOT
BRANCH   1   7
ATOM      7  O   LIG d   1     -26.662  85.876 112.248  0.00  0.00    -0.368 OA
BRANCH   7   8
ATOM      8  C   LIG d   1     -27.869  86.491 112.762  0.00  0.00     0.119 C 
BRANCH   8   9
ATOM      9  C   LIG d   1     -29.041  85.537 112.458  0.00  0.00     0.028 C 
ATOM     10  C   LIG d   1     -28.896  84.846 111.092  0.00  0.00     0.006 C 
ENDBRANCH   8   9
BRANCH   8  11
ATOM     11  C   LIG d   1     -28.197  87.787 112.014  0.00  0.00     0.028 C 
ATOM     12  C   LIG d   1     -26.941  88.570 111.601  0.00  0.00     0.006 C 
ENDBRANCH   8  11
ENDBRANCH   7   8
ENDBRANCH   1   7
BRANCH   6  13
ATOM     13  N   LIG d   1     -26.475  83.011 113.163  0.00  0.00    -0.311 N 
ATOM     14  C   LIG d   1     -26.783  81.938 112.435  0.00  0.00     0.210 C 
ATOM     15  C   LIG d   1     -28.012  81.161 112.916  0.00  0.00     0.109 C 
ATOM     16  O   LIG d   1     -26.135  81.539 111.456  0.00  0.00    -0.276 OA
ATOM     17  H   LIG d   1     -27.036  83.243 113.960  0.00  0.00     0.149 HD
ENDBRANCH   6  13
BRANCH   5  18
ATOM     18  N   LIG d   1     -23.541  82.162 113.155  0.00  0.00     0.381 N 
ATOM     19  H   LIG d   1     -22.543  82.136 113.223  0.00  0.00    -0.090 HD
ATOM     20  H   LIG d   1     -23.795  82.014 112.194  0.00  0.00    -0.090 HD
ATOM     21  H   LIG d   1     -23.939  81.449 113.725  0.00  0.00    -0.090 HD
ENDBRANCH   5  18
BRANCH   3  22
ATOM     22  C   LIG d   1     -22.366  86.745 113.904  0.00  0.00     0.382 C 
ATOM     23  O   LIG d   1     -22.595  87.545 114.843  0.00  0.00    -0.241 OA
ATOM     24  O   LIG d   1     -21.283  86.810 113.292  0.00  0.00    -0.241 OA
ENDBRANCH   3  22
TORSDOF 7
ENDMDL
MODEL 9
REMARK VINA RESULT:      -4.8      2.185      5.075
REMARK  7 active torsions:
REMARK  status: ('A' for Active; 'I' for Inactive)
REMARK    1  A    between atoms: C_2  and  C_3 
REMARK    2  A    between atoms: C_3  and  O_6 
REMARK    3  A    between atoms: C_3  and  C_4 
REMARK    4  A    between atoms: C_7  and  O_6 
REMARK    5  A    between atoms: C_9  and  C_10 
REMARK    6  A    between atoms: N_15  and  C_14 
REMARK    7  A    between atoms: N_20  and  C_19 
REMARK       I    between atoms: C_22  and  N_20 
ROOT
ATOM      1  C   LIG d   1      -7.776  77.124 117.996  0.00  0.00     0.161 C 
ATOM      2  C   LIG d   1      -7.615  78.516 117.899  0.00  0.00     0.016 C 
ATOM      3  C   LIG d   1      -8.652  79.440 118.168  0.00  0.00     0.038 C 
ATOM      4  C   LIG d   1      -9.884  79.036 118.703  0.00  0.00     0.028 C 
ATOM      5  C   LIG d   1     -10.262  77.603 118.340  0.00  0.00    -0.047 C 
ATOM      6  C   LIG d   1      -9.080  76.670 118.685  0.00  0.00     0.091 C 
ENDROOT
BRANCH   1   7
ATOM      7  O   LIG d   1      -6.632  76.546 118.657  0.00  0.00    -0.368 OA
BRANCH   7   8
ATOM      8  C   LIG d   1      -5.596  76.019 117.792  0.00  0.00     0.119 C 
BRANCH   8   9
ATOM      9  C   LIG d   1      -5.624  74.484 117.918  0.00  0.00     0.028 C 
ATOM     10  C   LIG d   1      -5.853  73.788 116.565  0.00  0.00     0.006 C 
ENDBRANCH   8   9
BRANCH   8  11
ATOM     11  C   LIG d   1      -4.203  76.440 118.271  0.00  0.00     0.028 C 
ATOM     12  C   LIG d   1      -3.174  76.499 117.132  0.00  0.00     0.006 C 
ENDBRANCH   8  11
ENDBRANCH   7   8
ENDBRANCH   1   7
BRANCH   6  13
ATOM     13  N   LIG d   1      -9.333  75.261 118.283  0.00  0.00    -0.311 N 
ATOM     14  C   LIG d   1      -9.391  74.860 117.015  0.00  0.00     0.210 C 
ATOM     15  C   LIG d   1      -9.683  73.369 116.821  0.00  0.00     0.109 C 
ATOM     16  O   LIG d   1      -9.195  75.591 116.032  0.00  0.00    -0.276 OA
ATOM     17  H   LIG d   1      -9.472  74.595 119.018  0.00  0.00     0.149 HD
ENDBRANCH   6  13
BRANCH   5  18
ATOM     18  N   LIG d   1     -11.497  77.268 119.073  0.00  0.00     0.381 N 
ATOM     19  H   LIG d   1     -11.269  76.960 119.997  0.00  0.00    -0.090 HD
ATOM     20  H   LIG d   1     -11.965  76.518 118.597  0.00  0.00    -0.090 HD
ATOM     21  H   LIG d   1     -12.093  78.065 119.119  0.00  0.00    -0.090 HD
ENDBRANCH   5  18
BRANCH   3  22
ATOM     22  C   LIG d   1      -8.474  80.781 117.864  0.00  0.00     0.382 C 
ATOM     23  O   LIG d   1      -7.423  81.160 117.293  0.00  0.00    -0.241 OA
ATOM     24  O   LIG d   1      -9.330  81.622 118.194  0.00  0.00    -0.241 OA
ENDBRANCH   3  22
TORSDOF 7
ENDMDL
