MODEL 1
REMARK VINA RESULT:      -5.3      0.000      0.000
REMARK  7 active torsions:
REMARK  status: ('A' for Active; 'I' for Inactive)
REMARK    1  A    between atoms: C_2  and  C_3 
REMARK    2  A    between atoms: C_3  and  O_6 
REMARK    3  A    between atoms: C_3  and  C_4 
REMARK    4  A    between atoms: C_7  and  O_6 
REMARK    5  A    between atoms: C_9  and  C_10 
REMARK    6  A    between atoms: N_15  and  C_14 
REMARK    7  A    between atoms: N_20  and  C_19 
REMARK       I    between atoms: C_22  and  N_20 
ROOT
ATOM      1  C   LIG d   1      -6.655  77.019 117.585  0.00  0.00     0.161 C 
ATOM      2  C   LIG d   1      -7.891  77.521 118.024  0.00  0.00     0.016 C 
ATOM      3  C   LIG d   1      -8.134  78.894 118.259  0.00  0.00     0.038 C 
ATOM      4  C   LIG d   1      -7.195  79.881 117.925  0.00  0.00     0.028 C 
ATOM      5  C   LIG d   1      -5.754  79.381 117.955  0.00  0.00    -0.047 C 
ATOM      6  C   LIG d   1      -5.653  78.091 117.109  0.00  0.00     0.091 C 
ENDROOT
BRANCH   1   7
ATOM      7  O   LIG d   1      -6.866  76.036 116.552  0.00  0.00    -0.368 OA
BRANCH   7   8
ATOM      8  C   LIG d   1      -6.485  74.677 116.878  0.00  0.00     0.119 C 
BRANCH   8   9
ATOM      9  C   LIG d   1      -5.414  74.240 115.859  0.00  0.00     0.028 C 
ATOM     10  C   LIG d   1      -5.476  75.054 114.556  0.00  0.00     0.006 C 
ENDBRANCH   8   9
BRANCH   8  11
ATOM     11  C   LIG d   1      -7.654  73.707 116.679  0.00  0.00     0.028 C 
ATOM     12  C   LIG d   1      -7.208  72.237 116.639  0.00  0.00     0.006 C 
ENDBRANCH   8  11
ENDBRANCH   7   8
ENDBRANCH   1   7
BRANCH   6  13
ATOM     13  N   LIG d   1      -4.295  77.489 117.153  0.00  0.00    -0.311 N 
ATOM     14  C   LIG d   1      -3.376  77.683 116.209  0.00  0.00     0.210 C 
ATOM     15  C   LIG d   1      -2.049  76.954 116.439  0.00  0.00     0.109 C 
ATOM     16  O   LIG d   1      -3.523  78.415 115.218  0.00  0.00    -0.276 OA
ATOM     17  H   LIG d   1      -4.080  76.906 117.938  0.00  0.00     0.149 HD
ENDBRANCH   6  13
BRANCH   5  18
ATOM     18  N   LIG d   1      -4.894  80.470 117.454  0.00  0.00     0.381 N 
ATOM     19  H   LIG d   1      -5.020  81.287 118.017  0.00  0.00    -0.090 HD
ATOM     20  H   LIG d   1      -5.165  80.691 116.512  0.00  0.00    -0.090 HD
ATOM     21  H   LIG d   1      -3.939  80.187 117.475  0.00  0.00    -0.090 HD
ENDBRANCH   5  18
BRANCH   3  22
ATOM     22  C   LIG d   1      -9.313  79.288 118.873  0.00  0.00     0.382 C 
ATOM     23  O   LIG d   1      -9.585  78.881 120.028  0.00  0.00    -0.241 OA
ATOM     24  O   LIG d   1     -10.129  80.010 118.269  0.00  0.00    -0.241 OA
ENDBRANCH   3  22
TORSDOF 7
ENDMDL
MODEL 2
REMARK VINA RESULT:      -5.1     12.831     15.030
REMARK  7 active torsions:
REMARK  status: ('A' for Active; 'I' for Inactive)
REMARK    1  A    between atoms: C_2  and  C_3 
REMARK    2  A    between atoms: C_3  and  O_6 
REMARK    3  A    between atoms: C_3  and  C_4 
REMARK    4  A    between atoms: C_7  and  O_6 
REMARK    5  A    between atoms: C_9  and  C_10 
REMARK    6  A    between atoms: N_15  and  C_14 
REMARK    7  A    between atoms: N_20  and  C_19 
REMARK       I    between atoms: C_22  and  N_20 
ROOT
ATOM      1  C   LIG d   1      -4.197  92.319 116.895  0.00  0.00     0.161 C 
ATOM      2  C   LIG d   1      -5.515  92.067 116.480  0.00  0.00     0.016 C 
ATOM      3  C   LIG d   1      -5.954  90.811 116.001  0.00  0.00     0.038 C 
ATOM      4  C   LIG d   1      -5.135  89.673 116.049  0.00  0.00     0.028 C 
ATOM      5  C   LIG d   1      -3.646  89.995 115.988  0.00  0.00    -0.047 C 
ATOM      6  C   LIG d   1      -3.319  91.061 117.059  0.00  0.00     0.091 C 
ENDROOT
BRANCH   1   7
ATOM      7  O   LIG d   1      -4.208  93.084 118.117  0.00  0.00    -0.368 OA
BRANCH   7   8
ATOM      8  C   LIG d   1      -5.218  92.719 119.089  0.00  0.00     0.119 C 
BRANCH   8   9
ATOM      9  C   LIG d   1      -5.746  94.022 119.720  0.00  0.00     0.028 C 
ATOM     10  C   LIG d   1      -7.042  94.514 119.053  0.00  0.00     0.006 C 
ENDBRANCH   8   9
BRANCH   8  11
ATOM     11  C   LIG d   1      -4.613  91.923 120.249  0.00  0.00     0.028 C 
ATOM     12  C   LIG d   1      -3.224  92.436 120.663  0.00  0.00     0.006 C 
ENDBRANCH   8  11
ENDBRANCH   7   8
ENDBRANCH   1   7
BRANCH   6  13
ATOM     13  N   LIG d   1      -1.898  91.494 117.012  0.00  0.00    -0.311 N 
ATOM     14  C   LIG d   1      -0.952  90.992 117.802  0.00  0.00     0.210 C 
ATOM     15  C   LIG d   1       0.443  91.593 117.604  0.00  0.00     0.109 C 
ATOM     16  O   LIG d   1      -1.128  90.082 118.627  0.00  0.00    -0.276 OA
ATOM     17  H   LIG d   1      -1.661  92.207 116.349  0.00  0.00     0.149 HD
ENDBRANCH   6  13
BRANCH   5  18
ATOM     18  N   LIG d   1      -2.909  88.732 116.185  0.00  0.00     0.381 N 
ATOM     19  H   LIG d   1      -1.932  88.923 116.286  0.00  0.00    -0.090 HD
ATOM     20  H   LIG d   1      -3.035  88.152 115.375  0.00  0.00    -0.090 HD
ATOM     21  H   LIG d   1      -3.248  88.262 116.996  0.00  0.00    -0.090 HD
ENDBRANCH   5  18
BRANCH   3  22
ATOM     22  C   LIG d   1      -7.212  90.694 115.431  0.00  0.00     0.382 C 
ATOM     23  O   LIG d   1      -7.966  89.748 115.764  0.00  0.00    -0.241 OA
ATOM     24  O   LIG d   1      -7.586  91.497 114.555  0.00  0.00    -0.241 OA
ENDBRANCH   3  22
TORSDOF 7
ENDMDL
MODEL 3
REMARK VINA RESULT:      -5.1     18.170     19.937
REMARK  7 active torsions:
REMARK  status: ('A' for Active; 'I' for Inactive)
REMARK    1  A    between atoms: C_2  and  C_3 
REMARK    2  A    between atoms: C_3  and  O_6 
REMARK    3  A    between atoms: C_3  and  C_4 
REMARK    4  A    between atoms: C_7  and  O_6 
REMARK    5  A    between atoms: C_9  and  C_10 
REMARK    6  A    between atoms: N_15  and  C_14 
REMARK    7  A    between atoms: N_20  and  C_19 
REMARK       I    between atoms: C_22  and  N_20 
ROOT
ATOM      1  C   LIG d   1       0.228  59.432 119.704  0.00  0.00     0.161 C 
ATOM      2  C   LIG d   1       1.624  59.575 119.660  0.00  0.00     0.016 C 
ATOM      3  C   LIG d   1       2.398  59.307 118.508  0.00  0.00     0.038 C 
ATOM      4  C   LIG d   1       1.808  59.021 117.268  0.00  0.00     0.028 C 
ATOM      5  C   LIG d   1       0.432  58.373 117.388  0.00  0.00    -0.047 C 
ATOM      6  C   LIG d   1      -0.445  59.228 118.330  0.00  0.00     0.091 C 
ENDROOT
BRANCH   1   7
ATOM      7  O   LIG d   1      -0.358  60.559 120.386  0.00  0.00    -0.368 OA
BRANCH   7   8
ATOM      8  C   LIG d   1      -0.788  60.325 121.750  0.00  0.00     0.119 C 
BRANCH   8   9
ATOM      9  C   LIG d   1      -2.316  60.520 121.793  0.00  0.00     0.028 C 
ATOM     10  C   LIG d   1      -3.063  59.225 122.155  0.00  0.00     0.006 C 
ENDBRANCH   8   9
BRANCH   8  11
ATOM     11  C   LIG d   1      -0.218  61.380 122.703  0.00  0.00     0.028 C 
ATOM     12  C   LIG d   1       1.270  61.156 123.017  0.00  0.00     0.006 C 
ENDBRANCH   8  11
ENDBRANCH   7   8
ENDBRANCH   1   7
BRANCH   6  13
ATOM     13  N   LIG d   1      -1.780  58.621 118.569  0.00  0.00    -0.311 N 
ATOM     14  C   LIG d   1      -2.927  59.258 118.340  0.00  0.00     0.210 C 
ATOM     15  C   LIG d   1      -4.189  58.456 118.672  0.00  0.00     0.109 C 
ATOM     16  O   LIG d   1      -3.019  60.399 117.864  0.00  0.00    -0.276 OA
ATOM     17  H   LIG d   1      -1.798  57.685 118.926  0.00  0.00     0.149 HD
ENDBRANCH   6  13
BRANCH   5  18
ATOM     18  N   LIG d   1      -0.125  58.257 116.027  0.00  0.00     0.381 N 
ATOM     19  H   LIG d   1      -0.279  57.293 115.805  0.00  0.00    -0.090 HD
ATOM     20  H   LIG d   1       0.539  58.629 115.371  0.00  0.00    -0.090 HD
ATOM     21  H   LIG d   1      -0.983  58.760 115.965  0.00  0.00    -0.090 HD
ENDBRANCH   5  18
BRANCH   3  22
ATOM     22  C   LIG d   1       3.782  59.284 118.599  0.00  0.00     0.382 C 
ATOM     23  O   LIG d   1       4.469  58.902 117.621  0.00  0.00    -0.241 OA
ATOM     24  O   LIG d   1       4.350  59.600 119.662  0.00  0.00    -0.241 OA
ENDBRANCH   3  22
TORSDOF 7
ENDMDL
MODEL 4
REMARK VINA RESULT:      -5.1      3.631      5.316
REMARK  7 active torsions:
REMARK  status: ('A' for Active; 'I' for Inactive)
REMARK    1  A    between atoms: C_2  and  C_3 
REMARK    2  A    between atoms: C_3  and  O_6 
REMARK    3  A    between atoms: C_3  and  C_4 
REMARK    4  A    between atoms: C_7  and  O_6 
REMARK    5  A    between atoms: C_9  and  C_10 
REMARK    6  A    between atoms: N_15  and  C_14 
REMARK    7  A    between atoms: N_20  and  C_19 
REMARK       I    between atoms: C_22  and  N_20 
ROOT
ATOM      1  C   LIG d   1      -2.993  76.596 117.199  0.00  0.00     0.161 C 
ATOM      2  C   LIG d   1      -3.306  77.842 116.630  0.00  0.00     0.016 C 
ATOM      3  C   LIG d   1      -2.428  78.552 115.779  0.00  0.00     0.038 C 
ATOM      4  C   LIG d   1      -1.229  77.990 115.316  0.00  0.00     0.028 C 
ATOM      5  C   LIG d   1      -0.642  76.950 116.264  0.00  0.00    -0.047 C 
ATOM      6  C   LIG d   1      -1.736  75.917 116.616  0.00  0.00     0.091 C 
ENDROOT
BRANCH   1   7
ATOM      7  O   LIG d   1      -4.130  75.715 117.101  0.00  0.00    -0.368 OA
BRANCH   7   8
ATOM      8  C   LIG d   1      -5.138  76.080 116.126  0.00  0.00     0.119 C 
BRANCH   8   9
ATOM      9  C   LIG d   1      -6.514  75.759 116.741  0.00  0.00     0.028 C 
ATOM     10  C   LIG d   1      -6.448  75.579 118.267  0.00  0.00     0.006 C 
ENDBRANCH   8   9
BRANCH   8  11
ATOM     11  C   LIG d   1      -5.040  75.208 114.871  0.00  0.00     0.028 C 
ATOM     12  C   LIG d   1      -5.998  74.007 114.904  0.00  0.00     0.006 C 
ENDBRANCH   8  11
ENDBRANCH   7   8
ENDBRANCH   1   7
BRANCH   6  13
ATOM     13  N   LIG d   1      -1.270  74.911 117.606  0.00  0.00    -0.311 N 
ATOM     14  C   LIG d   1      -0.819  73.704 117.267  0.00  0.00     0.210 C 
ATOM     15  C   LIG d   1      -0.407  72.814 118.444  0.00  0.00     0.109 C 
ATOM     16  O   LIG d   1      -0.692  73.297 116.103  0.00  0.00    -0.276 OA
ATOM     17  H   LIG d   1      -1.309  75.169 118.572  0.00  0.00     0.149 HD
ENDBRANCH   6  13
BRANCH   5  18
ATOM     18  N   LIG d   1       0.528  76.348 115.596  0.00  0.00     0.381 N 
ATOM     19  H   LIG d   1       0.249  75.522 115.104  0.00  0.00    -0.090 HD
ATOM     20  H   LIG d   1       1.202  76.086 116.294  0.00  0.00    -0.090 HD
ATOM     21  H   LIG d   1       0.932  77.001 114.962  0.00  0.00    -0.090 HD
ENDBRANCH   5  18
BRANCH   3  22
ATOM     22  C   LIG d   1      -2.727  79.856 115.415  0.00  0.00     0.382 C 
ATOM     23  O   LIG d   1      -3.724  80.432 115.913  0.00  0.00    -0.241 OA
ATOM     24  O   LIG d   1      -2.039  80.448 114.562  0.00  0.00    -0.241 OA
ENDBRANCH   3  22
TORSDOF 7
ENDMDL
MODEL 5
REMARK VINA RESULT:      -5.0     13.039     15.360
REMARK  7 active torsions:
REMARK  status: ('A' for Active; 'I' for Inactive)
REMARK    1  A    between atoms: C_2  and  C_3 
REMARK    2  A    between atoms: C_3  and  O_6 
REMARK    3  A    between atoms: C_3  and  C_4 
REMARK    4  A    between atoms: C_7  and  O_6 
REMARK    5  A    between atoms: C_9  and  C_10 
REMARK    6  A    between atoms: N_15  and  C_14 
REMARK    7  A    between atoms: N_20  and  C_19 
REMARK       I    between atoms: C_22  and  N_20 
ROOT
ATOM      1  C   LIG d   1      -3.569  91.250 117.615  0.00  0.00     0.161 C 
ATOM      2  C   LIG d   1      -4.343  90.665 116.599  0.00  0.00     0.016 C 
ATOM      3  C   LIG d   1      -5.582  91.191 116.165  0.00  0.00     0.038 C 
ATOM      4  C   LIG d   1      -6.061  92.430 116.615  0.00  0.00     0.028 C 
ATOM      5  C   LIG d   1      -5.560  92.803 118.006  0.00  0.00    -0.047 C 
ATOM      6  C   LIG d   1      -4.021  92.663 118.041  0.00  0.00     0.091 C 
ENDROOT
BRANCH   1   7
ATOM      7  O   LIG d   1      -2.182  91.264 117.225  0.00  0.00    -0.368 OA
BRANCH   7   8
ATOM      8  C   LIG d   1      -1.298  90.402 117.982  0.00  0.00     0.119 C 
BRANCH   8   9
ATOM      9  C   LIG d   1      -2.158  89.650 119.016  0.00  0.00     0.028 C 
ATOM     10  C   LIG d   1      -1.537  88.305 119.430  0.00  0.00     0.006 C 
ENDBRANCH   8   9
BRANCH   8  11
ATOM     11  C   LIG d   1      -0.295  91.216 118.805  0.00  0.00     0.028 C 
ATOM     12  C   LIG d   1       0.022  92.582 118.176  0.00  0.00     0.006 C 
ENDBRANCH   8  11
ENDBRANCH   7   8
ENDBRANCH   1   7
BRANCH   6  13
ATOM     13  N   LIG d   1      -3.457  92.928 119.390  0.00  0.00    -0.311 N 
ATOM     14  C   LIG d   1      -2.985  94.115 119.767  0.00  0.00     0.210 C 
ATOM     15  C   LIG d   1      -2.431  94.167 121.194  0.00  0.00     0.109 C 
ATOM     16  O   LIG d   1      -3.002  95.138 119.066  0.00  0.00    -0.276 OA
ATOM     17  H   LIG d   1      -3.434  92.161 120.033  0.00  0.00     0.149 HD
ENDBRANCH   6  13
BRANCH   5  18
ATOM     18  N   LIG d   1      -6.022  94.174 118.293  0.00  0.00     0.381 N 
ATOM     19  H   LIG d   1      -5.931  94.365 119.271  0.00  0.00    -0.090 HD
ATOM     20  H   LIG d   1      -6.993  94.248 118.047  0.00  0.00    -0.090 HD
ATOM     21  H   LIG d   1      -5.488  94.831 117.768  0.00  0.00    -0.090 HD
ENDBRANCH   5  18
BRANCH   3  22
ATOM     22  C   LIG d   1      -6.375  90.454 115.298  0.00  0.00     0.382 C 
ATOM     23  O   LIG d   1      -5.869  89.527 114.620  0.00  0.00    -0.241 OA
ATOM     24  O   LIG d   1      -7.580  90.733 115.153  0.00  0.00    -0.241 OA
ENDBRANCH   3  22
TORSDOF 7
ENDMDL
MODEL 6
REMARK VINA RESULT:      -5.0      3.088      5.131
REMARK  7 active torsions:
REMARK  status: ('A' for Active; 'I' for Inactive)
REMARK    1  A    between atoms: C_2  and  C_3 
REMARK    2  A    between atoms: C_3  and  O_6 
REMARK    3  A    between atoms: C_3  and  C_4 
REMARK    4  A    between atoms: C_7  and  O_6 
REMARK    5  A    between atoms: C_9  and  C_10 
REMARK    6  A    between atoms: N_15  and  C_14 
REMARK    7  A    between atoms: N_20  and  C_19 
REMARK       I    between atoms: C_22  and  N_20 
ROOT
ATOM      1  C   LIG d   1      -4.291  75.268 116.731  0.00  0.00     0.161 C 
ATOM      2  C   LIG d   1      -4.904  74.022 116.519  0.00  0.00     0.016 C 
ATOM      3  C   LIG d   1      -6.304  73.828 116.547  0.00  0.00     0.038 C 
ATOM      4  C   LIG d   1      -7.199  74.904 116.641  0.00  0.00     0.028 C 
ATOM      5  C   LIG d   1      -6.618  76.115 117.362  0.00  0.00    -0.047 C 
ATOM      6  C   LIG d   1      -5.256  76.472 116.724  0.00  0.00     0.091 C 
ENDROOT
BRANCH   1   7
ATOM      7  O   LIG d   1      -3.237  75.465 115.767  0.00  0.00    -0.368 OA
BRANCH   7   8
ATOM      8  C   LIG d   1      -1.886  75.461 116.290  0.00  0.00     0.119 C 
BRANCH   8   9
ATOM      9  C   LIG d   1      -1.052  76.426 115.425  0.00  0.00     0.028 C 
ATOM     10  C   LIG d   1      -0.461  77.586 116.244  0.00  0.00     0.006 C 
ENDBRANCH   8   9
BRANCH   8  11
ATOM     11  C   LIG d   1      -1.226  74.090 116.119  0.00  0.00     0.028 C 
ATOM     12  C   LIG d   1      -0.574  73.577 117.413  0.00  0.00     0.006 C 
ENDBRANCH   8  11
ENDBRANCH   7   8
ENDBRANCH   1   7
BRANCH   6  13
ATOM     13  N   LIG d   1      -4.579  77.595 117.424  0.00  0.00    -0.311 N 
ATOM     14  C   LIG d   1      -3.981  78.601 116.788  0.00  0.00     0.210 C 
ATOM     15  C   LIG d   1      -3.326  79.644 117.700  0.00  0.00     0.109 C 
ATOM     16  O   LIG d   1      -3.958  78.746 115.557  0.00  0.00    -0.276 OA
ATOM     17  H   LIG d   1      -4.577  77.573 118.425  0.00  0.00     0.149 HD
ENDBRANCH   6  13
BRANCH   5  18
ATOM     18  N   LIG d   1      -7.605  77.207 117.266  0.00  0.00     0.381 N 
ATOM     19  H   LIG d   1      -8.159  77.092 116.441  0.00  0.00    -0.090 HD
ATOM     20  H   LIG d   1      -7.116  78.082 117.198  0.00  0.00    -0.090 HD
ATOM     21  H   LIG d   1      -8.191  77.208 118.071  0.00  0.00    -0.090 HD
ENDBRANCH   5  18
BRANCH   3  22
ATOM     22  C   LIG d   1      -6.820  72.541 116.522  0.00  0.00     0.382 C 
ATOM     23  O   LIG d   1      -7.176  72.030 115.433  0.00  0.00    -0.241 OA
ATOM     24  O   LIG d   1      -6.976  71.902 117.580  0.00  0.00    -0.241 OA
ENDBRANCH   3  22
TORSDOF 7
ENDMDL
MODEL 7
REMARK VINA RESULT:      -4.9     18.225     19.980
REMARK  7 active torsions:
REMARK  status: ('A' for Active; 'I' for Inactive)
REMARK    1  A    between atoms: C_2  and  C_3 
REMARK    2  A    between atoms: C_3  and  O_6 
REMARK    3  A    between atoms: C_3  and  C_4 
REMARK    4  A    between atoms: C_7  and  O_6 
REMARK    5  A    between atoms: C_9  and  C_10 
REMARK    6  A    between atoms: N_15  and  C_14 
REMARK    7  A    between atoms: N_20  and  C_19 
REMARK       I    between atoms: C_22  and  N_20 
ROOT
ATOM      1  C   LIG d   1      -0.323  59.532 118.467  0.00  0.00     0.161 C 
ATOM      2  C   LIG d   1      -1.724  59.631 118.486  0.00  0.00     0.016 C 
ATOM      3  C   LIG d   1      -2.580  58.681 117.882  0.00  0.00     0.038 C 
ATOM      4  C   LIG d   1      -2.092  57.481 117.343  0.00  0.00     0.028 C 
ATOM      5  C   LIG d   1      -0.651  57.578 116.854  0.00  0.00    -0.047 C 
ATOM      6  C   LIG d   1       0.223  58.173 117.981  0.00  0.00     0.091 C 
ENDROOT
BRANCH   1   7
ATOM      7  O   LIG d   1       0.207  59.848 119.769  0.00  0.00    -0.368 OA
BRANCH   7   8
ATOM      8  C   LIG d   1      -0.676  59.608 120.892  0.00  0.00     0.119 C 
BRANCH   8   9
ATOM      9  C   LIG d   1      -0.472  60.759 121.897  0.00  0.00     0.028 C 
ATOM     10  C   LIG d   1      -1.775  61.148 122.616  0.00  0.00     0.006 C 
ENDBRANCH   8   9
BRANCH   8  11
ATOM     11  C   LIG d   1      -0.282  58.336 121.649  0.00  0.00     0.028 C 
ATOM     12  C   LIG d   1      -1.173  57.134 121.298  0.00  0.00     0.006 C 
ENDBRANCH   8  11
ENDBRANCH   7   8
ENDBRANCH   1   7
BRANCH   6  13
ATOM     13  N   LIG d   1       1.632  58.380 117.556  0.00  0.00    -0.311 N 
ATOM     14  C   LIG d   1       2.681  58.016 118.292  0.00  0.00     0.210 C 
ATOM     15  C   LIG d   1       4.046  58.340 117.677  0.00  0.00     0.109 C 
ATOM     16  O   LIG d   1       2.610  57.426 119.381  0.00  0.00    -0.276 OA
ATOM     17  H   LIG d   1       1.781  58.824 116.671  0.00  0.00     0.149 HD
ENDBRANCH   6  13
BRANCH   5  18
ATOM     18  N   LIG d   1      -0.227  56.225 116.446  0.00  0.00     0.381 N 
ATOM     19  H   LIG d   1      -0.952  55.789 115.913  0.00  0.00    -0.090 HD
ATOM     20  H   LIG d   1      -0.066  55.673 117.270  0.00  0.00    -0.090 HD
ATOM     21  H   LIG d   1       0.608  56.278 115.905  0.00  0.00    -0.090 HD
ENDBRANCH   5  18
BRANCH   3  22
ATOM     22  C   LIG d   1      -3.936  58.947 117.776  0.00  0.00     0.382 C 
ATOM     23  O   LIG d   1      -4.334  59.907 117.074  0.00  0.00    -0.241 OA
ATOM     24  O   LIG d   1      -4.765  58.266 118.410  0.00  0.00    -0.241 OA
ENDBRANCH   3  22
TORSDOF 7
ENDMDL
MODEL 8
REMARK VINA RESULT:      -4.9      2.570      6.101
REMARK  7 active torsions:
REMARK  status: ('A' for Active; 'I' for Inactive)
REMARK    1  A    between atoms: C_2  and  C_3 
REMARK    2  A    between atoms: C_3  and  O_6 
REMARK    3  A    between atoms: C_3  and  C_4 
REMARK    4  A    between atoms: C_7  and  O_6 
REMARK    5  A    between atoms: C_9  and  C_10 
REMARK    6  A    between atoms: N_15  and  C_14 
REMARK    7  A    between atoms: N_20  and  C_19 
REMARK       I    between atoms: C_22  and  N_20 
ROOT
ATOM      1  C   LIG d   1      -4.666  78.436 116.757  0.00  0.00     0.161 C 
ATOM      2  C   LIG d   1      -4.596  77.256 115.998  0.00  0.00     0.016 C 
ATOM      3  C   LIG d   1      -5.681  76.363 115.845  0.00  0.00     0.038 C 
ATOM      4  C   LIG d   1      -6.965  76.669 116.320  0.00  0.00     0.028 C 
ATOM      5  C   LIG d   1      -6.958  77.607 117.523  0.00  0.00    -0.047 C 
ATOM      6  C   LIG d   1      -6.090  78.842 117.191  0.00  0.00     0.091 C 
ENDROOT
BRANCH   1   7
ATOM      7  O   LIG d   1      -4.033  79.515 116.042  0.00  0.00    -0.368 OA
BRANCH   7   8
ATOM      8  C   LIG d   1      -2.704  79.883 116.487  0.00  0.00     0.119 C 
BRANCH   8   9
ATOM      9  C   LIG d   1      -2.849  81.102 117.419  0.00  0.00     0.028 C 
ATOM     10  C   LIG d   1      -2.382  80.803 118.853  0.00  0.00     0.006 C 
ENDBRANCH   8   9
BRANCH   8  11
ATOM     11  C   LIG d   1      -1.839  80.365 115.319  0.00  0.00     0.028 C 
ATOM     12  C   LIG d   1      -1.787  81.897 115.209  0.00  0.00     0.006 C 
ENDBRANCH   8  11
ENDBRANCH   7   8
ENDBRANCH   1   7
BRANCH   6  13
ATOM     13  N   LIG d   1      -5.961  79.770 118.344  0.00  0.00    -0.311 N 
ATOM     14  C   LIG d   1      -6.455  81.007 118.348  0.00  0.00     0.210 C 
ATOM     15  C   LIG d   1      -6.194  81.804 119.630  0.00  0.00     0.109 C 
ATOM     16  O   LIG d   1      -7.113  81.509 117.424  0.00  0.00    -0.276 OA
ATOM     17  H   LIG d   1      -5.469  79.434 119.148  0.00  0.00     0.149 HD
ENDBRANCH   6  13
BRANCH   5  18
ATOM     18  N   LIG d   1      -8.360  77.950 117.828  0.00  0.00     0.381 N 
ATOM     19  H   LIG d   1      -8.665  77.444 118.635  0.00  0.00    -0.090 HD
ATOM     20  H   LIG d   1      -8.937  77.682 117.050  0.00  0.00    -0.090 HD
ATOM     21  H   LIG d   1      -8.443  78.930 117.990  0.00  0.00    -0.090 HD
ENDBRANCH   5  18
BRANCH   3  22
ATOM     22  C   LIG d   1      -5.478  75.130 115.244  0.00  0.00     0.382 C 
ATOM     23  O   LIG d   1      -6.301  74.201 115.425  0.00  0.00    -0.241 OA
ATOM     24  O   LIG d   1      -4.458  74.922 114.559  0.00  0.00    -0.241 OA
ENDBRANCH   3  22
TORSDOF 7
ENDMDL
MODEL 9
REMARK VINA RESULT:      -4.8      2.120      4.918
REMARK  7 active torsions:
REMARK  status: ('A' for Active; 'I' for Inactive)
REMARK    1  A    between atoms: C_2  and  C_3 
REMARK    2  A    between atoms: C_3  and  O_6 
REMARK    3  A    between atoms: C_3  and  C_4 
REMARK    4  A    between atoms: C_7  and  O_6 
REMARK    5  A    between atoms: C_9  and  C_10 
REMARK    6  A    between atoms: N_15  and  C_14 
REMARK    7  A    between atoms: N_20  and  C_19 
REMARK       I    between atoms: C_22  and  N_20 
ROOT
ATOM      1  C   LIG d   1      -6.207  76.546 115.996  0.00  0.00     0.161 C 
ATOM      2  C   LIG d   1      -6.990  75.425 116.320  0.00  0.00     0.016 C 
ATOM      3  C   LIG d   1      -6.450  74.139 116.549  0.00  0.00     0.038 C 
ATOM      4  C   LIG d   1      -5.067  73.917 116.619  0.00  0.00     0.028 C 
ATOM      5  C   LIG d   1      -4.251  74.913 115.801  0.00  0.00    -0.047 C 
ATOM      6  C   LIG d   1      -4.688  76.347 116.177  0.00  0.00     0.091 C 
ENDROOT
BRANCH   1   7
ATOM      7  O   LIG d   1      -6.656  77.690 116.749  0.00  0.00    -0.368 OA
BRANCH   7   8
ATOM      8  C   LIG d   1      -7.470  77.406 117.914  0.00  0.00     0.119 C 
BRANCH   8   9
ATOM      9  C   LIG d   1      -8.562  78.491 117.990  0.00  0.00     0.028 C 
ATOM     10  C   LIG d   1      -8.669  79.119 119.390  0.00  0.00     0.006 C 
ENDBRANCH   8   9
BRANCH   8  11
ATOM     11  C   LIG d   1      -6.663  77.551 119.207  0.00  0.00     0.028 C 
ATOM     12  C   LIG d   1      -6.407  76.206 119.904  0.00  0.00     0.006 C 
ENDBRANCH   8  11
ENDBRANCH   7   8
ENDBRANCH   1   7
BRANCH   6  13
ATOM     13  N   LIG d   1      -3.998  77.381 115.362  0.00  0.00    -0.311 N 
ATOM     14  C   LIG d   1      -2.891  78.008 115.757  0.00  0.00     0.210 C 
ATOM     15  C   LIG d   1      -2.355  79.053 114.774  0.00  0.00     0.109 C 
ATOM     16  O   LIG d   1      -2.285  77.775 116.813  0.00  0.00    -0.276 OA
ATOM     17  H   LIG d   1      -4.405  77.610 114.477  0.00  0.00     0.149 HD
ENDBRANCH   6  13
BRANCH   5  18
ATOM     18  N   LIG d   1      -2.825  74.652 116.074  0.00  0.00     0.381 N 
ATOM     19  H   LIG d   1      -2.328  75.518 116.136  0.00  0.00    -0.090 HD
ATOM     20  H   LIG d   1      -2.441  74.121 115.312  0.00  0.00    -0.090 HD
ATOM     21  H   LIG d   1      -2.729  74.143 116.925  0.00  0.00    -0.090 HD
ENDBRANCH   5  18
BRANCH   3  22
ATOM     22  C   LIG d   1      -7.299  73.049 116.671  0.00  0.00     0.382 C 
ATOM     23  O   LIG d   1      -8.542  73.217 116.651  0.00  0.00    -0.241 OA
ATOM     24  O   LIG d   1      -6.838  71.905 116.846  0.00  0.00    -0.241 OA
ENDBRANCH   3  22
TORSDOF 7
ENDMDL
