MODEL 1
REMARK VINA RESULT:      -5.3      0.000      0.000
REMARK  7 active torsions:
REMARK  status: ('A' for Active; 'I' for Inactive)
REMARK    1  A    between atoms: C_2  and  C_3 
REMARK    2  A    between atoms: C_3  and  O_6 
REMARK    3  A    between atoms: C_3  and  C_4 
REMARK    4  A    between atoms: C_7  and  O_6 
REMARK    5  A    between atoms: C_9  and  C_10 
REMARK    6  A    between atoms: N_15  and  C_14 
REMARK    7  A    between atoms: N_20  and  C_19 
REMARK       I    between atoms: C_22  and  N_20 
ROOT
ATOM      1  C   LIG d   1      -4.542  92.650 117.651  0.00  0.00     0.161 C 
ATOM      2  C   LIG d   1      -5.885  93.062 117.613  0.00  0.00     0.016 C 
ATOM      3  C   LIG d   1      -6.880  92.401 116.857  0.00  0.00     0.038 C 
ATOM      4  C   LIG d   1      -6.630  91.186 116.204  0.00  0.00     0.028 C 
ATOM      5  C   LIG d   1      -5.171  91.003 115.801  0.00  0.00    -0.047 C 
ATOM      6  C   LIG d   1      -4.274  91.262 117.033  0.00  0.00     0.091 C 
ENDROOT
BRANCH   1   7
ATOM      7  O   LIG d   1      -4.055  92.698 119.006  0.00  0.00    -0.368 OA
BRANCH   7   8
ATOM      8  C   LIG d   1      -3.195  93.817 119.335  0.00  0.00     0.119 C 
BRANCH   8   9
ATOM      9  C   LIG d   1      -2.581  94.331 118.019  0.00  0.00     0.028 C 
ATOM     10  C   LIG d   1      -1.057  94.129 117.963  0.00  0.00     0.006 C 
ENDBRANCH   8   9
BRANCH   8  11
ATOM     11  C   LIG d   1      -2.005  93.372 120.191  0.00  0.00     0.028 C 
ATOM     12  C   LIG d   1      -2.270  92.059 120.944  0.00  0.00     0.006 C 
ENDBRANCH   8  11
ENDBRANCH   7   8
ENDBRANCH   1   7
BRANCH   6  13
ATOM     13  N   LIG d   1      -2.826  91.187 116.707  0.00  0.00    -0.311 N 
ATOM     14  C   LIG d   1      -1.953  90.464 117.406  0.00  0.00     0.210 C 
ATOM     15  C   LIG d   1      -0.506  90.542 116.911  0.00  0.00     0.109 C 
ATOM     16  O   LIG d   1      -2.246  89.739 118.369  0.00  0.00    -0.276 OA
ATOM     17  H   LIG d   1      -2.508  91.719 115.921  0.00  0.00     0.149 HD
ENDBRANCH   6  13
BRANCH   5  18
ATOM     18  N   LIG d   1      -5.026  89.640 115.256  0.00  0.00     0.381 N 
ATOM     19  H   LIG d   1      -4.266  89.615 114.605  0.00  0.00    -0.090 HD
ATOM     20  H   LIG d   1      -5.868  89.395 114.767  0.00  0.00    -0.090 HD
ATOM     21  H   LIG d   1      -4.861  88.993 115.995  0.00  0.00    -0.090 HD
ENDBRANCH   5  18
BRANCH   3  22
ATOM     22  C   LIG d   1      -8.133  92.979 116.718  0.00  0.00     0.382 C 
ATOM     23  O   LIG d   1      -8.553  93.783 117.584  0.00  0.00    -0.241 OA
ATOM     24  O   LIG d   1      -8.867  92.672 115.759  0.00  0.00    -0.241 OA
ENDBRANCH   3  22
TORSDOF 7
ENDMDL
MODEL 2
REMARK VINA RESULT:      -5.3      2.214      3.202
REMARK  7 active torsions:
REMARK  status: ('A' for Active; 'I' for Inactive)
REMARK    1  A    between atoms: C_2  and  C_3 
REMARK    2  A    between atoms: C_3  and  O_6 
REMARK    3  A    between atoms: C_3  and  C_4 
REMARK    4  A    between atoms: C_7  and  O_6 
REMARK    5  A    between atoms: C_9  and  C_10 
REMARK    6  A    between atoms: N_15  and  C_14 
REMARK    7  A    between atoms: N_20  and  C_19 
REMARK       I    between atoms: C_22  and  N_20 
ROOT
ATOM      1  C   LIG d   1      -5.500  93.082 117.815  0.00  0.00     0.161 C 
ATOM      2  C   LIG d   1      -6.062  94.231 118.396  0.00  0.00     0.016 C 
ATOM      3  C   LIG d   1      -7.367  94.690 118.108  0.00  0.00     0.038 C 
ATOM      4  C   LIG d   1      -8.261  93.942 117.328  0.00  0.00     0.028 C 
ATOM      5  C   LIG d   1      -7.570  93.035 116.316  0.00  0.00    -0.047 C 
ATOM      6  C   LIG d   1      -6.500  92.192 117.047  0.00  0.00     0.091 C 
ENDROOT
BRANCH   1   7
ATOM      7  O   LIG d   1      -4.813  92.312 118.820  0.00  0.00    -0.368 OA
BRANCH   7   8
ATOM      8  C   LIG d   1      -3.386  92.536 118.930  0.00  0.00     0.119 C 
BRANCH   8   9
ATOM      9  C   LIG d   1      -2.890  93.041 117.561  0.00  0.00     0.028 C 
ATOM     10  C   LIG d   1      -1.595  93.863 117.673  0.00  0.00     0.006 C 
ENDBRANCH   8   9
BRANCH   8  11
ATOM     11  C   LIG d   1      -2.633  91.224 119.175  0.00  0.00     0.028 C 
ATOM     12  C   LIG d   1      -3.368  90.000 118.607  0.00  0.00     0.006 C 
ENDBRANCH   8  11
ENDBRANCH   7   8
ENDBRANCH   1   7
BRANCH   6  13
ATOM     13  N   LIG d   1      -5.718  91.337 116.116  0.00  0.00    -0.311 N 
ATOM     14  C   LIG d   1      -5.995  90.054 115.891  0.00  0.00     0.210 C 
ATOM     15  C   LIG d   1      -5.051  89.351 114.909  0.00  0.00     0.109 C 
ATOM     16  O   LIG d   1      -6.952  89.439 116.386  0.00  0.00    -0.276 OA
ATOM     17  H   LIG d   1      -4.943  91.764 115.647  0.00  0.00     0.149 HD
ENDBRANCH   6  13
BRANCH   5  18
ATOM     18  N   LIG d   1      -8.610  92.214 115.669  0.00  0.00     0.381 N 
ATOM     19  H   LIG d   1      -9.125  91.711 116.363  0.00  0.00    -0.090 HD
ATOM     20  H   LIG d   1      -8.167  91.548 115.060  0.00  0.00    -0.090 HD
ATOM     21  H   LIG d   1      -9.226  92.795 115.144  0.00  0.00    -0.090 HD
ENDBRANCH   5  18
BRANCH   3  22
ATOM     22  C   LIG d   1      -7.777  95.932 118.570  0.00  0.00     0.382 C 
ATOM     23  O   LIG d   1      -8.310  96.035 119.702  0.00  0.00    -0.241 OA
ATOM     24  O   LIG d   1      -7.660  96.943 117.853  0.00  0.00    -0.241 OA
ENDBRANCH   3  22
TORSDOF 7
ENDMDL
MODEL 3
REMARK VINA RESULT:      -5.3      2.602      4.425
REMARK  7 active torsions:
REMARK  status: ('A' for Active; 'I' for Inactive)
REMARK    1  A    between atoms: C_2  and  C_3 
REMARK    2  A    between atoms: C_3  and  O_6 
REMARK    3  A    between atoms: C_3  and  C_4 
REMARK    4  A    between atoms: C_7  and  O_6 
REMARK    5  A    between atoms: C_9  and  C_10 
REMARK    6  A    between atoms: N_15  and  C_14 
REMARK    7  A    between atoms: N_20  and  C_19 
REMARK       I    between atoms: C_22  and  N_20 
ROOT
ATOM      1  C   LIG d   1      -4.774  92.733 117.549  0.00  0.00     0.161 C 
ATOM      2  C   LIG d   1      -4.760  91.597 116.722  0.00  0.00     0.016 C 
ATOM      3  C   LIG d   1      -5.893  91.138 116.011  0.00  0.00     0.038 C 
ATOM      4  C   LIG d   1      -7.084  91.876 115.958  0.00  0.00     0.028 C 
ATOM      5  C   LIG d   1      -7.303  92.762 117.180  0.00  0.00    -0.047 C 
ATOM      6  C   LIG d   1      -6.035  93.614 117.416  0.00  0.00     0.091 C 
ENDROOT
BRANCH   1   7
ATOM      7  O   LIG d   1      -3.588  93.518 117.320  0.00  0.00    -0.368 OA
BRANCH   7   8
ATOM      8  C   LIG d   1      -2.461  93.238 118.186  0.00  0.00     0.119 C 
BRANCH   8   9
ATOM      9  C   LIG d   1      -2.589  94.149 119.422  0.00  0.00     0.028 C 
ATOM     10  C   LIG d   1      -2.759  95.630 119.044  0.00  0.00     0.006 C 
ENDBRANCH   8   9
BRANCH   8  11
ATOM     11  C   LIG d   1      -1.138  93.635 117.525  0.00  0.00     0.028 C 
ATOM     12  C   LIG d   1       0.085  93.308 118.396  0.00  0.00     0.006 C 
ENDBRANCH   8  11
ENDBRANCH   7   8
ENDBRANCH   1   7
BRANCH   6  13
ATOM     13  N   LIG d   1      -6.132  94.447 118.642  0.00  0.00    -0.311 N 
ATOM     14  C   LIG d   1      -6.652  95.673 118.656  0.00  0.00     0.210 C 
ATOM     15  C   LIG d   1      -6.637  96.367 120.022  0.00  0.00     0.109 C 
ATOM     16  O   LIG d   1      -7.155  96.239 117.673  0.00  0.00    -0.276 OA
ATOM     17  H   LIG d   1      -5.776  94.053 119.491  0.00  0.00     0.149 HD
ENDBRANCH   6  13
BRANCH   5  18
ATOM     18  N   LIG d   1      -8.508  93.576 116.931  0.00  0.00     0.381 N 
ATOM     19  H   LIG d   1      -8.243  94.518 116.724  0.00  0.00    -0.090 HD
ATOM     20  H   LIG d   1      -9.073  93.582 117.762  0.00  0.00    -0.090 HD
ATOM     21  H   LIG d   1      -9.026  93.193 116.171  0.00  0.00    -0.090 HD
ENDBRANCH   5  18
BRANCH   3  22
ATOM     22  C   LIG d   1      -5.852  89.907 115.374  0.00  0.00     0.382 C 
ATOM     23  O   LIG d   1      -6.750  89.594 114.556  0.00  0.00    -0.241 OA
ATOM     24  O   LIG d   1      -4.952  89.088 115.639  0.00  0.00    -0.241 OA
ENDBRANCH   3  22
TORSDOF 7
ENDMDL
MODEL 4
REMARK VINA RESULT:      -5.2      1.941      3.201
REMARK  7 active torsions:
REMARK  status: ('A' for Active; 'I' for Inactive)
REMARK    1  A    between atoms: C_2  and  C_3 
REMARK    2  A    between atoms: C_3  and  O_6 
REMARK    3  A    between atoms: C_3  and  C_4 
REMARK    4  A    between atoms: C_7  and  O_6 
REMARK    5  A    between atoms: C_9  and  C_10 
REMARK    6  A    between atoms: N_15  and  C_14 
REMARK    7  A    between atoms: N_20  and  C_19 
REMARK       I    between atoms: C_22  and  N_20 
ROOT
ATOM      1  C   LIG d   1      -5.444  92.990 116.917  0.00  0.00     0.161 C 
ATOM      2  C   LIG d   1      -6.589  92.246 116.588  0.00  0.00     0.016 C 
ATOM      3  C   LIG d   1      -6.584  90.842 116.422  0.00  0.00     0.038 C 
ATOM      4  C   LIG d   1      -5.457  90.064 116.726  0.00  0.00     0.028 C 
ATOM      5  C   LIG d   1      -4.141  90.819 116.574  0.00  0.00    -0.047 C 
ATOM      6  C   LIG d   1      -4.230  92.146 117.361  0.00  0.00     0.091 C 
ENDROOT
BRANCH   1   7
ATOM      7  O   LIG d   1      -5.769  93.968 117.925  0.00  0.00    -0.368 OA
BRANCH   7   8
ATOM      8  C   LIG d   1      -6.771  93.574 118.895  0.00  0.00     0.119 C 
BRANCH   8   9
ATOM      9  C   LIG d   1      -7.793  94.723 118.997  0.00  0.00     0.028 C 
ATOM     10  C   LIG d   1      -7.394  95.941 118.146  0.00  0.00     0.006 C 
ENDBRANCH   8   9
BRANCH   8  11
ATOM     11  C   LIG d   1      -6.168  93.442 120.296  0.00  0.00     0.028 C 
ATOM     12  C   LIG d   1      -4.837  94.196 120.446  0.00  0.00     0.006 C 
ENDBRANCH   8  11
ENDBRANCH   7   8
ENDBRANCH   1   7
BRANCH   6  13
ATOM     13  N   LIG d   1      -3.015  92.985 117.197  0.00  0.00    -0.311 N 
ATOM     14  C   LIG d   1      -2.006  92.993 118.067  0.00  0.00     0.210 C 
ATOM     15  C   LIG d   1      -0.858  93.945 117.718  0.00  0.00     0.109 C 
ATOM     16  O   LIG d   1      -1.939  92.277 119.077  0.00  0.00    -0.276 OA
ATOM     17  H   LIG d   1      -2.972  93.573 116.388  0.00  0.00     0.149 HD
ENDBRANCH   6  13
BRANCH   5  18
ATOM     18  N   LIG d   1      -3.062  89.934 117.053  0.00  0.00     0.381 N 
ATOM     19  H   LIG d   1      -2.941  89.172 116.416  0.00  0.00    -0.090 HD
ATOM     20  H   LIG d   1      -3.323  89.558 117.948  0.00  0.00    -0.090 HD
ATOM     21  H   LIG d   1      -2.212  90.446 117.135  0.00  0.00    -0.090 HD
ENDBRANCH   5  18
BRANCH   3  22
ATOM     22  C   LIG d   1      -7.705  90.207 115.910  0.00  0.00     0.382 C 
ATOM     23  O   LIG d   1      -8.583  90.872 115.308  0.00  0.00    -0.241 OA
ATOM     24  O   LIG d   1      -7.872  88.984 116.080  0.00  0.00    -0.241 OA
ENDBRANCH   3  22
TORSDOF 7
ENDMDL
MODEL 5
REMARK VINA RESULT:      -5.2      2.483      4.329
REMARK  7 active torsions:
REMARK  status: ('A' for Active; 'I' for Inactive)
REMARK    1  A    between atoms: C_2  and  C_3 
REMARK    2  A    between atoms: C_3  and  O_6 
REMARK    3  A    between atoms: C_3  and  C_4 
REMARK    4  A    between atoms: C_7  and  O_6 
REMARK    5  A    between atoms: C_9  and  C_10 
REMARK    6  A    between atoms: N_15  and  C_14 
REMARK    7  A    between atoms: N_20  and  C_19 
REMARK       I    between atoms: C_22  and  N_20 
ROOT
ATOM      1  C   LIG d   1      -6.198  93.508 117.693  0.00  0.00     0.161 C 
ATOM      2  C   LIG d   1      -6.990  92.456 117.205  0.00  0.00     0.016 C 
ATOM      3  C   LIG d   1      -6.460  91.218 116.772  0.00  0.00     0.038 C 
ATOM      4  C   LIG d   1      -5.106  90.893 116.941  0.00  0.00     0.028 C 
ATOM      5  C   LIG d   1      -4.188  92.110 116.962  0.00  0.00    -0.047 C 
ATOM      6  C   LIG d   1      -4.731  93.131 117.988  0.00  0.00     0.091 C 
ENDROOT
BRANCH   1   7
ATOM      7  O   LIG d   1      -6.813  94.081 118.863  0.00  0.00    -0.368 OA
BRANCH   7   8
ATOM      8  C   LIG d   1      -7.935  94.966 118.625  0.00  0.00     0.119 C 
BRANCH   8   9
ATOM      9  C   LIG d   1      -7.363  96.349 118.256  0.00  0.00     0.028 C 
ATOM     10  C   LIG d   1      -6.412  96.897 119.332  0.00  0.00     0.006 C 
ENDBRANCH   8   9
BRANCH   8  11
ATOM     11  C   LIG d   1      -8.748  95.192 119.904  0.00  0.00     0.028 C 
ATOM     12  C   LIG d   1      -9.467  93.922 120.385  0.00  0.00     0.006 C 
ENDBRANCH   8  11
ENDBRANCH   7   8
ENDBRANCH   1   7
BRANCH   6  13
ATOM     13  N   LIG d   1      -3.939  94.388 118.011  0.00  0.00    -0.311 N 
ATOM     14  C   LIG d   1      -3.326  94.848 119.100  0.00  0.00     0.210 C 
ATOM     15  C   LIG d   1      -2.580  96.173 118.911  0.00  0.00     0.109 C 
ATOM     16  O   LIG d   1      -3.303  94.269 120.197  0.00  0.00    -0.276 OA
ATOM     17  H   LIG d   1      -3.879  94.905 117.156  0.00  0.00     0.149 HD
ENDBRANCH   6  13
BRANCH   5  18
ATOM     18  N   LIG d   1      -2.827  91.637 117.282  0.00  0.00     0.381 N 
ATOM     19  H   LIG d   1      -2.838  90.647 117.424  0.00  0.00    -0.090 HD
ATOM     20  H   LIG d   1      -2.523  92.075 118.133  0.00  0.00    -0.090 HD
ATOM     21  H   LIG d   1      -2.203  91.867 116.540  0.00  0.00    -0.090 HD
ENDBRANCH   5  18
BRANCH   3  22
ATOM     22  C   LIG d   1      -7.281  90.307 116.126  0.00  0.00     0.382 C 
ATOM     23  O   LIG d   1      -8.335  90.698 115.569  0.00  0.00    -0.241 OA
ATOM     24  O   LIG d   1      -7.004  89.092 116.132  0.00  0.00    -0.241 OA
ENDBRANCH   3  22
TORSDOF 7
ENDMDL
MODEL 6
REMARK VINA RESULT:      -5.0      1.007      1.615
REMARK  7 active torsions:
REMARK  status: ('A' for Active; 'I' for Inactive)
REMARK    1  A    between atoms: C_2  and  C_3 
REMARK    2  A    between atoms: C_3  and  O_6 
REMARK    3  A    between atoms: C_3  and  C_4 
REMARK    4  A    between atoms: C_7  and  O_6 
REMARK    5  A    between atoms: C_9  and  C_10 
REMARK    6  A    between atoms: N_15  and  C_14 
REMARK    7  A    between atoms: N_20  and  C_19 
REMARK       I    between atoms: C_22  and  N_20 
ROOT
ATOM      1  C   LIG d   1      -4.421  92.866 117.509  0.00  0.00     0.161 C 
ATOM      2  C   LIG d   1      -5.789  93.169 117.403  0.00  0.00     0.016 C 
ATOM      3  C   LIG d   1      -6.729  92.319 116.778  0.00  0.00     0.038 C 
ATOM      4  C   LIG d   1      -6.389  91.028 116.346  0.00  0.00     0.028 C 
ATOM      5  C   LIG d   1      -4.916  90.882 115.976  0.00  0.00    -0.047 C 
ATOM      6  C   LIG d   1      -4.051  91.413 117.142  0.00  0.00     0.091 C 
ENDROOT
BRANCH   1   7
ATOM      7  O   LIG d   1      -3.951  93.183 118.834  0.00  0.00    -0.368 OA
BRANCH   7   8
ATOM      8  C   LIG d   1      -4.194  92.183 119.853  0.00  0.00     0.119 C 
BRANCH   8   9
ATOM      9  C   LIG d   1      -5.089  92.827 120.929  0.00  0.00     0.028 C 
ATOM     10  C   LIG d   1      -5.041  94.364 120.890  0.00  0.00     0.006 C 
ENDBRANCH   8   9
BRANCH   8  11
ATOM     11  C   LIG d   1      -2.901  91.800 120.578  0.00  0.00     0.028 C 
ATOM     12  C   LIG d   1      -1.712  92.692 120.187  0.00  0.00     0.006 C 
ENDBRANCH   8  11
ENDBRANCH   7   8
ENDBRANCH   1   7
BRANCH   6  13
ATOM     13  N   LIG d   1      -2.599  91.385 116.829  0.00  0.00    -0.311 N 
ATOM     14  C   LIG d   1      -1.775  90.430 117.258  0.00  0.00     0.210 C 
ATOM     15  C   LIG d   1      -0.312  90.601 116.838  0.00  0.00     0.109 C 
ATOM     16  O   LIG d   1      -2.123  89.440 117.919  0.00  0.00    -0.276 OA
ATOM     17  H   LIG d   1      -2.238  92.133 116.271  0.00  0.00     0.149 HD
ENDBRANCH   6  13
BRANCH   5  18
ATOM     18  N   LIG d   1      -4.671  89.458 115.677  0.00  0.00     0.381 N 
ATOM     19  H   LIG d   1      -3.927  89.115 116.250  0.00  0.00    -0.090 HD
ATOM     20  H   LIG d   1      -4.395  89.371 114.715  0.00  0.00    -0.090 HD
ATOM     21  H   LIG d   1      -5.499  88.928 115.841  0.00  0.00    -0.090 HD
ENDBRANCH   5  18
BRANCH   3  22
ATOM     22  C   LIG d   1      -8.018  92.773 116.543  0.00  0.00     0.382 C 
ATOM     23  O   LIG d   1      -8.534  93.620 117.312  0.00  0.00    -0.241 OA
ATOM     24  O   LIG d   1      -8.688  92.314 115.599  0.00  0.00    -0.241 OA
ENDBRANCH   3  22
TORSDOF 7
ENDMDL
MODEL 7
REMARK VINA RESULT:      -4.9      2.780      4.347
REMARK  7 active torsions:
REMARK  status: ('A' for Active; 'I' for Inactive)
REMARK    1  A    between atoms: C_2  and  C_3 
REMARK    2  A    between atoms: C_3  and  O_6 
REMARK    3  A    between atoms: C_3  and  C_4 
REMARK    4  A    between atoms: C_7  and  O_6 
REMARK    5  A    between atoms: C_9  and  C_10 
REMARK    6  A    between atoms: N_15  and  C_14 
REMARK    7  A    between atoms: N_20  and  C_19 
REMARK       I    between atoms: C_22  and  N_20 
ROOT
ATOM      1  C   LIG d   1      -5.598  92.225 118.773  0.00  0.00     0.161 C 
ATOM      2  C   LIG d   1      -5.932  91.263 117.804  0.00  0.00     0.016 C 
ATOM      3  C   LIG d   1      -6.901  91.478 116.797  0.00  0.00     0.038 C 
ATOM      4  C   LIG d   1      -7.498  92.731 116.597  0.00  0.00     0.028 C 
ATOM      5  C   LIG d   1      -7.564  93.580 117.863  0.00  0.00    -0.047 C 
ATOM      6  C   LIG d   1      -6.158  93.637 118.502  0.00  0.00     0.091 C 
ENDROOT
BRANCH   1   7
ATOM      7  O   LIG d   1      -4.167  92.276 118.937  0.00  0.00    -0.368 OA
BRANCH   7   8
ATOM      8  C   LIG d   1      -3.394  92.492 117.730  0.00  0.00     0.119 C 
BRANCH   8   9
ATOM      9  C   LIG d   1      -2.268  91.440 117.708  0.00  0.00     0.028 C 
ATOM     10  C   LIG d   1      -2.141  90.687 119.043  0.00  0.00     0.006 C 
ENDBRANCH   8   9
BRANCH   8  11
ATOM     11  C   LIG d   1      -2.683  93.848 117.759  0.00  0.00     0.028 C 
ATOM     12  C   LIG d   1      -2.488  94.388 119.184  0.00  0.00     0.006 C 
ENDBRANCH   8  11
ENDBRANCH   7   8
ENDBRANCH   1   7
BRANCH   6  13
ATOM     13  N   LIG d   1      -6.151  94.377 119.791  0.00  0.00    -0.311 N 
ATOM     14  C   LIG d   1      -5.842  95.669 119.892  0.00  0.00     0.210 C 
ATOM     15  C   LIG d   1      -5.877  96.232 121.317  0.00  0.00     0.109 C 
ATOM     16  O   LIG d   1      -5.572  96.409 118.935  0.00  0.00    -0.276 OA
ATOM     17  H   LIG d   1      -6.388  93.861 120.615  0.00  0.00     0.149 HD
ENDBRANCH   6  13
BRANCH   5  18
ATOM     18  N   LIG d   1      -8.081  94.908 117.482  0.00  0.00     0.381 N 
ATOM     19  H   LIG d   1      -7.760  95.595 118.135  0.00  0.00    -0.090 HD
ATOM     20  H   LIG d   1      -9.085  94.887 117.514  0.00  0.00    -0.090 HD
ATOM     21  H   LIG d   1      -7.775  95.143 116.564  0.00  0.00    -0.090 HD
ENDBRANCH   5  18
BRANCH   3  22
ATOM     22  C   LIG d   1      -7.312  90.418 116.002  0.00  0.00     0.382 C 
ATOM     23  O   LIG d   1      -8.219  90.587 115.152  0.00  0.00    -0.241 OA
ATOM     24  O   LIG d   1      -6.817  89.285 116.154  0.00  0.00    -0.241 OA
ENDBRANCH   3  22
TORSDOF 7
ENDMDL
MODEL 8
REMARK VINA RESULT:      -4.8      2.140      3.711
REMARK  7 active torsions:
REMARK  status: ('A' for Active; 'I' for Inactive)
REMARK    1  A    between atoms: C_2  and  C_3 
REMARK    2  A    between atoms: C_3  and  O_6 
REMARK    3  A    between atoms: C_3  and  C_4 
REMARK    4  A    between atoms: C_7  and  O_6 
REMARK    5  A    between atoms: C_9  and  C_10 
REMARK    6  A    between atoms: N_15  and  C_14 
REMARK    7  A    between atoms: N_20  and  C_19 
REMARK       I    between atoms: C_22  and  N_20 
ROOT
ATOM      1  C   LIG d   1      -4.490  91.562 117.465  0.00  0.00     0.161 C 
ATOM      2  C   LIG d   1      -5.307  90.836 116.582  0.00  0.00     0.016 C 
ATOM      3  C   LIG d   1      -6.480  91.364 115.995  0.00  0.00     0.038 C 
ATOM      4  C   LIG d   1      -6.835  92.714 116.132  0.00  0.00     0.028 C 
ATOM      5  C   LIG d   1      -6.317  93.349 117.419  0.00  0.00    -0.047 C 
ATOM      6  C   LIG d   1      -4.801  93.072 117.539  0.00  0.00     0.091 C 
ENDROOT
BRANCH   1   7
ATOM      7  O   LIG d   1      -3.104  91.352 117.132  0.00  0.00    -0.368 OA
BRANCH   7   8
ATOM      8  C   LIG d   1      -2.272  90.802 118.183  0.00  0.00     0.119 C 
BRANCH   8   9
ATOM      9  C   LIG d   1      -1.449  89.654 117.569  0.00  0.00     0.028 C 
ATOM     10  C   LIG d   1      -2.214  88.320 117.564  0.00  0.00     0.006 C 
ENDBRANCH   8   9
BRANCH   8  11
ATOM     11  C   LIG d   1      -3.119  90.152 119.281  0.00  0.00     0.028 C 
ATOM     12  C   LIG d   1      -2.830  90.727 120.676  0.00  0.00     0.006 C 
ENDBRANCH   8  11
ENDBRANCH   7   8
ENDBRANCH   1   7
BRANCH   6  13
ATOM     13  N   LIG d   1      -4.230  93.586 118.812  0.00  0.00    -0.311 N 
ATOM     14  C   LIG d   1      -3.101  94.289 118.877  0.00  0.00     0.210 C 
ATOM     15  C   LIG d   1      -2.680  94.705 120.290  0.00  0.00     0.109 C 
ATOM     16  O   LIG d   1      -2.425  94.635 117.897  0.00  0.00    -0.276 OA
ATOM     17  H   LIG d   1      -4.731  93.378 119.653  0.00  0.00     0.149 HD
ENDBRANCH   6  13
BRANCH   5  18
ATOM     18  N   LIG d   1      -6.640  94.787 117.368  0.00  0.00     0.381 N 
ATOM     19  H   LIG d   1      -5.807  95.316 117.199  0.00  0.00    -0.090 HD
ATOM     20  H   LIG d   1      -7.016  95.068 118.256  0.00  0.00    -0.090 HD
ATOM     21  H   LIG d   1      -7.304  94.962 116.647  0.00  0.00    -0.090 HD
ENDBRANCH   5  18
BRANCH   3  22
ATOM     22  C   LIG d   1      -7.333  90.527 115.292  0.00  0.00     0.382 C 
ATOM     23  O   LIG d   1      -8.573  90.709 115.344  0.00  0.00    -0.241 OA
ATOM     24  O   LIG d   1      -6.881  89.566 114.641  0.00  0.00    -0.241 OA
ENDBRANCH   3  22
TORSDOF 7
ENDMDL
MODEL 9
REMARK VINA RESULT:      -4.8      2.226      3.686
REMARK  7 active torsions:
REMARK  status: ('A' for Active; 'I' for Inactive)
REMARK    1  A    between atoms: C_2  and  C_3 
REMARK    2  A    between atoms: C_3  and  O_6 
REMARK    3  A    between atoms: C_3  and  C_4 
REMARK    4  A    between atoms: C_7  and  O_6 
REMARK    5  A    between atoms: C_9  and  C_10 
REMARK    6  A    between atoms: N_15  and  C_14 
REMARK    7  A    between atoms: N_20  and  C_19 
REMARK       I    between atoms: C_22  and  N_20 
ROOT
ATOM      1  C   LIG d   1      -4.694  91.724 118.044  0.00  0.00     0.161 C 
ATOM      2  C   LIG d   1      -5.492  90.835 117.305  0.00  0.00     0.016 C 
ATOM      3  C   LIG d   1      -6.654  91.231 116.604  0.00  0.00     0.038 C 
ATOM      4  C   LIG d   1      -7.014  92.580 116.469  0.00  0.00     0.028 C 
ATOM      5  C   LIG d   1      -6.523  93.457 117.616  0.00  0.00    -0.047 C 
ATOM      6  C   LIG d   1      -5.009  93.218 117.817  0.00  0.00     0.091 C 
ENDROOT
BRANCH   1   7
ATOM      7  O   LIG d   1      -3.301  91.461 117.785  0.00  0.00    -0.368 OA
BRANCH   7   8
ATOM      8  C   LIG d   1      -2.630  90.590 118.729  0.00  0.00     0.119 C 
BRANCH   8   9
ATOM      9  C   LIG d   1      -3.210  90.887 120.125  0.00  0.00     0.028 C 
ATOM     10  C   LIG d   1      -2.202  91.607 121.037  0.00  0.00     0.006 C 
ENDBRANCH   8   9
BRANCH   8  11
ATOM     11  C   LIG d   1      -1.138  90.920 118.830  0.00  0.00     0.028 C 
ATOM     12  C   LIG d   1      -0.624  91.725 117.626  0.00  0.00     0.006 C 
ENDBRANCH   8  11
ENDBRANCH   7   8
ENDBRANCH   1   7
BRANCH   6  13
ATOM     13  N   LIG d   1      -4.465  93.974 118.975  0.00  0.00    -0.311 N 
ATOM     14  C   LIG d   1      -3.290  94.602 118.954  0.00  0.00     0.210 C 
ATOM     15  C   LIG d   1      -2.909  95.304 120.261  0.00  0.00     0.109 C 
ATOM     16  O   LIG d   1      -2.543  94.671 117.967  0.00  0.00    -0.276 OA
ATOM     17  H   LIG d   1      -5.021  93.996 119.807  0.00  0.00     0.149 HD
ENDBRANCH   6  13
BRANCH   5  18
ATOM     18  N   LIG d   1      -6.848  94.855 117.279  0.00  0.00     0.381 N 
ATOM     19  H   LIG d   1      -7.553  94.878 116.569  0.00  0.00    -0.090 HD
ATOM     20  H   LIG d   1      -6.024  95.303 116.919  0.00  0.00    -0.090 HD
ATOM     21  H   LIG d   1      -7.168  95.336 118.090  0.00  0.00    -0.090 HD
ENDBRANCH   5  18
BRANCH   3  22
ATOM     22  C   LIG d   1      -7.491  90.268 116.062  0.00  0.00     0.382 C 
ATOM     23  O   LIG d   1      -7.196  89.053 116.162  0.00  0.00    -0.241 OA
ATOM     24  O   LIG d   1      -8.514  90.601 115.435  0.00  0.00    -0.241 OA
ENDBRANCH   3  22
TORSDOF 7
ENDMDL
