MODEL 1
REMARK VINA RESULT:      -6.0      0.000      0.000
REMARK  7 active torsions:
REMARK  status: ('A' for Active; 'I' for Inactive)
REMARK    1  A    between atoms: C_2  and  C_3 
REMARK    2  A    between atoms: C_3  and  O_6 
REMARK    3  A    between atoms: C_3  and  C_4 
REMARK    4  A    between atoms: C_7  and  O_6 
REMARK    5  A    between atoms: C_9  and  C_10 
REMARK    6  A    between atoms: N_15  and  C_14 
REMARK    7  A    between atoms: N_20  and  C_19 
REMARK       I    between atoms: C_22  and  N_20 
ROOT
ATOM      1  C   LIG d   1      -7.206  77.582 117.337  0.00  0.00     0.161 C 
ATOM      2  C   LIG d   1      -8.441  78.223 117.526  0.00  0.00     0.016 C 
ATOM      3  C   LIG d   1      -8.565  79.599 117.825  0.00  0.00     0.038 C 
ATOM      4  C   LIG d   1      -7.462  80.465 117.806  0.00  0.00     0.028 C 
ATOM      5  C   LIG d   1      -6.141  79.769 118.117  0.00  0.00    -0.047 C 
ATOM      6  C   LIG d   1      -5.998  78.532 117.202  0.00  0.00     0.091 C 
ENDROOT
BRANCH   1   7
ATOM      7  O   LIG d   1      -7.281  76.703 116.197  0.00  0.00    -0.368 OA
BRANCH   7   8
ATOM      8  C   LIG d   1      -7.501  75.300 116.487  0.00  0.00     0.119 C 
BRANCH   8   9
ATOM      9  C   LIG d   1      -6.358  74.506 115.825  0.00  0.00     0.028 C 
ATOM     10  C   LIG d   1      -5.826  75.191 114.555  0.00  0.00     0.006 C 
ENDBRANCH   8   9
BRANCH   8  11
ATOM     11  C   LIG d   1      -8.785  74.789 115.827  0.00  0.00     0.028 C 
ATOM     12  C   LIG d   1      -8.931  73.261 115.911  0.00  0.00     0.006 C 
ENDBRANCH   8  11
ENDBRANCH   7   8
ENDBRANCH   1   7
BRANCH   6  13
ATOM     13  N   LIG d   1      -4.772  77.746 117.499  0.00  0.00    -0.311 N 
ATOM     14  C   LIG d   1      -3.806  77.529 116.607  0.00  0.00     0.210 C 
ATOM     15  C   LIG d   1      -2.639  76.676 117.114  0.00  0.00     0.109 C 
ATOM     16  O   LIG d   1      -3.790  77.989 115.456  0.00  0.00    -0.276 OA
ATOM     17  H   LIG d   1      -4.688  77.362 118.420  0.00  0.00     0.149 HD
ENDBRANCH   6  13
BRANCH   5  18
ATOM     18  N   LIG d   1      -5.062  80.757 117.927  0.00  0.00     0.381 N 
ATOM     19  H   LIG d   1      -4.182  80.349 118.173  0.00  0.00    -0.090 HD
ATOM     20  H   LIG d   1      -5.227  81.540 118.535  0.00  0.00    -0.090 HD
ATOM     21  H   LIG d   1      -5.041  81.062 116.979  0.00  0.00    -0.090 HD
ENDBRANCH   5  18
BRANCH   3  22
ATOM     22  C   LIG d   1      -9.801  80.115 118.188  0.00  0.00     0.382 C 
ATOM     23  O   LIG d   1     -10.402  80.902 117.418  0.00  0.00    -0.241 OA
ATOM     24  O   LIG d   1     -10.301  79.837 119.294  0.00  0.00    -0.241 OA
ENDBRANCH   3  22
TORSDOF 7
ENDMDL
MODEL 2
REMARK VINA RESULT:      -5.9      2.149      5.385
REMARK  7 active torsions:
REMARK  status: ('A' for Active; 'I' for Inactive)
REMARK    1  A    between atoms: C_2  and  C_3 
REMARK    2  A    between atoms: C_3  and  O_6 
REMARK    3  A    between atoms: C_3  and  C_4 
REMARK    4  A    between atoms: C_7  and  O_6 
REMARK    5  A    between atoms: C_9  and  C_10 
REMARK    6  A    between atoms: N_15  and  C_14 
REMARK    7  A    between atoms: N_20  and  C_19 
REMARK       I    between atoms: C_22  and  N_20 
ROOT
ATOM      1  C   LIG d   1      -6.720  76.186 116.449  0.00  0.00     0.161 C 
ATOM      2  C   LIG d   1      -7.621  75.108 116.415  0.00  0.00     0.016 C 
ATOM      3  C   LIG d   1      -7.221  73.766 116.224  0.00  0.00     0.038 C 
ATOM      4  C   LIG d   1      -5.869  73.391 116.204  0.00  0.00     0.028 C 
ATOM      5  C   LIG d   1      -4.939  74.502 115.729  0.00  0.00    -0.047 C 
ATOM      6  C   LIG d   1      -5.233  75.784 116.540  0.00  0.00     0.091 C 
ENDROOT
BRANCH   1   7
ATOM      7  O   LIG d   1      -7.065  77.078 117.528  0.00  0.00    -0.368 OA
BRANCH   7   8
ATOM      8  C   LIG d   1      -7.422  78.429 117.148  0.00  0.00     0.119 C 
BRANCH   8   9
ATOM      9  C   LIG d   1      -6.326  79.367 117.689  0.00  0.00     0.028 C 
ATOM     10  C   LIG d   1      -5.712  78.856 119.004  0.00  0.00     0.006 C 
ENDBRANCH   8   9
BRANCH   8  11
ATOM     11  C   LIG d   1      -8.715  78.878 117.836  0.00  0.00     0.028 C 
ATOM     12  C   LIG d   1      -9.034  80.362 117.595  0.00  0.00     0.006 C 
ENDBRANCH   8  11
ENDBRANCH   7   8
ENDBRANCH   1   7
BRANCH   6  13
ATOM     13  N   LIG d   1      -4.425  76.944 116.081  0.00  0.00    -0.311 N 
ATOM     14  C   LIG d   1      -3.276  77.307 116.649  0.00  0.00     0.210 C 
ATOM     15  C   LIG d   1      -2.614  78.544 116.034  0.00  0.00     0.109 C 
ATOM     16  O   LIG d   1      -2.727  76.704 117.583  0.00  0.00    -0.276 OA
ATOM     17  H   LIG d   1      -4.781  77.471 115.308  0.00  0.00     0.149 HD
ENDBRANCH   6  13
BRANCH   5  18
ATOM     18  N   LIG d   1      -3.553  74.022 115.889  0.00  0.00     0.381 N 
ATOM     19  H   LIG d   1      -3.531  73.024 115.823  0.00  0.00    -0.090 HD
ATOM     20  H   LIG d   1      -3.221  74.286 116.799  0.00  0.00    -0.090 HD
ATOM     21  H   LIG d   1      -2.971  74.421 115.186  0.00  0.00    -0.090 HD
ENDBRANCH   5  18
BRANCH   3  22
ATOM     22  C   LIG d   1      -8.179  72.787 116.010  0.00  0.00     0.382 C 
ATOM     23  O   LIG d   1      -7.840  71.581 115.949  0.00  0.00    -0.241 OA
ATOM     24  O   LIG d   1      -9.372  73.099 115.834  0.00  0.00    -0.241 OA
ENDBRANCH   3  22
TORSDOF 7
ENDMDL
MODEL 3
REMARK VINA RESULT:      -5.7      3.352      5.517
REMARK  7 active torsions:
REMARK  status: ('A' for Active; 'I' for Inactive)
REMARK    1  A    between atoms: C_2  and  C_3 
REMARK    2  A    between atoms: C_3  and  O_6 
REMARK    3  A    between atoms: C_3  and  C_4 
REMARK    4  A    between atoms: C_7  and  O_6 
REMARK    5  A    between atoms: C_9  and  C_10 
REMARK    6  A    between atoms: N_15  and  C_14 
REMARK    7  A    between atoms: N_20  and  C_19 
REMARK       I    between atoms: C_22  and  N_20 
ROOT
ATOM      1  C   LIG d   1      -4.837  74.835 116.466  0.00  0.00     0.161 C 
ATOM      2  C   LIG d   1      -5.635  73.733 116.119  0.00  0.00     0.016 C 
ATOM      3  C   LIG d   1      -7.046  73.783 116.056  0.00  0.00     0.038 C 
ATOM      4  C   LIG d   1      -7.752  74.988 116.190  0.00  0.00     0.028 C 
ATOM      5  C   LIG d   1      -7.024  76.025 117.039  0.00  0.00    -0.047 C 
ATOM      6  C   LIG d   1      -5.582  76.186 116.508  0.00  0.00     0.091 C 
ENDROOT
BRANCH   1   7
ATOM      7  O   LIG d   1      -3.702  74.916 115.580  0.00  0.00    -0.368 OA
BRANCH   7   8
ATOM      8  C   LIG d   1      -2.400  74.945 116.214  0.00  0.00     0.119 C 
BRANCH   8   9
ATOM      9  C   LIG d   1      -1.498  75.872 115.375  0.00  0.00     0.028 C 
ATOM     10  C   LIG d   1      -0.623  76.787 116.248  0.00  0.00     0.006 C 
ENDBRANCH   8   9
BRANCH   8  11
ATOM     11  C   LIG d   1      -1.725  73.571 116.167  0.00  0.00     0.028 C 
ATOM     12  C   LIG d   1      -1.217  73.205 114.763  0.00  0.00     0.006 C 
ENDBRANCH   8  11
ENDBRANCH   7   8
ENDBRANCH   1   7
BRANCH   6  13
ATOM     13  N   LIG d   1      -4.774  77.120 117.334  0.00  0.00    -0.311 N 
ATOM     14  C   LIG d   1      -4.101  78.152 116.828  0.00  0.00     0.210 C 
ATOM     15  C   LIG d   1      -3.316  78.977 117.853  0.00  0.00     0.109 C 
ATOM     16  O   LIG d   1      -4.105  78.482 115.633  0.00  0.00    -0.276 OA
ATOM     17  H   LIG d   1      -4.740  76.945 118.319  0.00  0.00     0.149 HD
ENDBRANCH   6  13
BRANCH   5  18
ATOM     18  N   LIG d   1      -7.804  77.275 116.982  0.00  0.00     0.381 N 
ATOM     19  H   LIG d   1      -7.262  78.031 117.351  0.00  0.00    -0.090 HD
ATOM     20  H   LIG d   1      -8.627  77.172 117.550  0.00  0.00    -0.090 HD
ATOM     21  H   LIG d   1      -8.064  77.472 116.041  0.00  0.00    -0.090 HD
ENDBRANCH   5  18
BRANCH   3  22
ATOM     22  C   LIG d   1      -7.770  72.611 115.896  0.00  0.00     0.382 C 
ATOM     23  O   LIG d   1      -9.022  72.632 115.967  0.00  0.00    -0.241 OA
ATOM     24  O   LIG d   1      -7.183  71.525 115.725  0.00  0.00    -0.241 OA
ENDBRANCH   3  22
TORSDOF 7
ENDMDL
MODEL 4
REMARK VINA RESULT:      -5.6      2.220      5.664
REMARK  7 active torsions:
REMARK  status: ('A' for Active; 'I' for Inactive)
REMARK    1  A    between atoms: C_2  and  C_3 
REMARK    2  A    between atoms: C_3  and  O_6 
REMARK    3  A    between atoms: C_3  and  C_4 
REMARK    4  A    between atoms: C_7  and  O_6 
REMARK    5  A    between atoms: C_9  and  C_10 
REMARK    6  A    between atoms: N_15  and  C_14 
REMARK    7  A    between atoms: N_20  and  C_19 
REMARK       I    between atoms: C_22  and  N_20 
ROOT
ATOM      1  C   LIG d   1      -5.094  75.817 116.227  0.00  0.00     0.161 C 
ATOM      2  C   LIG d   1      -4.031  74.935 115.971  0.00  0.00     0.016 C 
ATOM      3  C   LIG d   1      -2.696  75.190 116.361  0.00  0.00     0.038 C 
ATOM      4  C   LIG d   1      -2.357  76.283 117.173  0.00  0.00     0.028 C 
ATOM      5  C   LIG d   1      -3.312  77.463 117.029  0.00  0.00    -0.047 C 
ATOM      6  C   LIG d   1      -4.763  76.960 117.209  0.00  0.00     0.091 C 
ENDROOT
BRANCH   1   7
ATOM      7  O   LIG d   1      -6.242  75.077 116.688  0.00  0.00    -0.368 OA
BRANCH   7   8
ATOM      8  C   LIG d   1      -6.898  74.240 115.705  0.00  0.00     0.119 C 
BRANCH   8   9
ATOM      9  C   LIG d   1      -8.391  74.620 115.696  0.00  0.00     0.028 C 
ATOM     10  C   LIG d   1      -8.679  75.887 116.518  0.00  0.00     0.006 C 
ENDBRANCH   8   9
BRANCH   8  11
ATOM     11  C   LIG d   1      -6.857  72.764 116.113  0.00  0.00     0.028 C 
ATOM     12  C   LIG d   1      -8.254  72.127 116.182  0.00  0.00     0.006 C 
ENDBRANCH   8  11
ENDBRANCH   7   8
ENDBRANCH   1   7
BRANCH   6  13
ATOM     13  N   LIG d   1      -5.766  78.037 117.000  0.00  0.00    -0.311 N 
ATOM     14  C   LIG d   1      -6.598  78.458 117.950  0.00  0.00     0.210 C 
ATOM     15  C   LIG d   1      -7.567  79.563 117.519  0.00  0.00     0.109 C 
ATOM     16  O   LIG d   1      -6.605  78.043 119.119  0.00  0.00    -0.276 OA
ATOM     17  H   LIG d   1      -5.807  78.451 116.089  0.00  0.00     0.149 HD
ENDBRANCH   6  13
BRANCH   5  18
ATOM     18  N   LIG d   1      -2.923  78.476 118.029  0.00  0.00     0.381 N 
ATOM     19  H   LIG d   1      -1.981  78.315 118.326  0.00  0.00    -0.090 HD
ATOM     20  H   LIG d   1      -3.524  78.390 118.830  0.00  0.00    -0.090 HD
ATOM     21  H   LIG d   1      -3.005  79.389 117.640  0.00  0.00    -0.090 HD
ENDBRANCH   5  18
BRANCH   3  22
ATOM     22  C   LIG d   1      -1.677  74.368 115.904  0.00  0.00     0.382 C 
ATOM     23  O   LIG d   1      -0.560  74.377 116.477  0.00  0.00    -0.241 OA
ATOM     24  O   LIG d   1      -1.846  73.651 114.901  0.00  0.00    -0.241 OA
ENDBRANCH   3  22
TORSDOF 7
ENDMDL
MODEL 5
REMARK VINA RESULT:      -5.3      1.549      4.918
REMARK  7 active torsions:
REMARK  status: ('A' for Active; 'I' for Inactive)
REMARK    1  A    between atoms: C_2  and  C_3 
REMARK    2  A    between atoms: C_3  and  O_6 
REMARK    3  A    between atoms: C_3  and  C_4 
REMARK    4  A    between atoms: C_7  and  O_6 
REMARK    5  A    between atoms: C_9  and  C_10 
REMARK    6  A    between atoms: N_15  and  C_14 
REMARK    7  A    between atoms: N_20  and  C_19 
REMARK       I    between atoms: C_22  and  N_20 
ROOT
ATOM      1  C   LIG d   1      -6.380  77.188 116.494  0.00  0.00     0.161 C 
ATOM      2  C   LIG d   1      -5.060  76.806 116.204  0.00  0.00     0.016 C 
ATOM      3  C   LIG d   1      -3.926  77.521 116.653  0.00  0.00     0.038 C 
ATOM      4  C   LIG d   1      -4.033  78.590 117.554  0.00  0.00     0.028 C 
ATOM      5  C   LIG d   1      -5.369  79.322 117.471  0.00  0.00    -0.047 C 
ATOM      6  C   LIG d   1      -6.514  78.288 117.568  0.00  0.00     0.091 C 
ENDROOT
BRANCH   1   7
ATOM      7  O   LIG d   1      -7.155  76.030 116.863  0.00  0.00    -0.368 OA
BRANCH   7   8
ATOM      8  C   LIG d   1      -7.704  75.255 115.769  0.00  0.00     0.119 C 
BRANCH   8   9
ATOM      9  C   LIG d   1      -9.199  75.027 116.067  0.00  0.00     0.028 C 
ATOM     10  C   LIG d   1      -9.643  73.585 115.771  0.00  0.00     0.006 C 
ENDBRANCH   8   9
BRANCH   8  11
ATOM     11  C   LIG d   1      -7.084  73.856 115.711  0.00  0.00     0.028 C 
ATOM     12  C   LIG d   1      -6.404  73.450 117.028  0.00  0.00     0.006 C 
ENDBRANCH   8  11
ENDBRANCH   7   8
ENDBRANCH   1   7
BRANCH   6  13
ATOM     13  N   LIG d   1      -7.854  78.910 117.410  0.00  0.00    -0.311 N 
ATOM     14  C   LIG d   1      -8.605  79.304 118.437  0.00  0.00     0.210 C 
ATOM     15  C   LIG d   1      -9.962  79.902 118.054  0.00  0.00     0.109 C 
ATOM     16  O   LIG d   1      -8.263  79.244 119.628  0.00  0.00    -0.276 OA
ATOM     17  H   LIG d   1      -8.197  79.025 116.476  0.00  0.00     0.149 HD
ENDBRANCH   6  13
BRANCH   5  18
ATOM     18  N   LIG d   1      -5.399  80.321 118.555  0.00  0.00     0.381 N 
ATOM     19  H   LIG d   1      -5.866  79.940 119.354  0.00  0.00    -0.090 HD
ATOM     20  H   LIG d   1      -5.913  81.125 118.243  0.00  0.00    -0.090 HD
ATOM     21  H   LIG d   1      -4.470  80.586 118.800  0.00  0.00    -0.090 HD
ENDBRANCH   5  18
BRANCH   3  22
ATOM     22  C   LIG d   1      -2.670  77.193 116.166  0.00  0.00     0.382 C 
ATOM     23  O   LIG d   1      -2.531  76.208 115.402  0.00  0.00    -0.241 OA
ATOM     24  O   LIG d   1      -1.667  77.842 116.518  0.00  0.00    -0.241 OA
ENDBRANCH   3  22
TORSDOF 7
ENDMDL
MODEL 6
REMARK VINA RESULT:      -5.2     12.146     14.399
REMARK  7 active torsions:
REMARK  status: ('A' for Active; 'I' for Inactive)
REMARK    1  A    between atoms: C_2  and  C_3 
REMARK    2  A    between atoms: C_3  and  O_6 
REMARK    3  A    between atoms: C_3  and  C_4 
REMARK    4  A    between atoms: C_7  and  O_6 
REMARK    5  A    between atoms: C_9  and  C_10 
REMARK    6  A    between atoms: N_15  and  C_14 
REMARK    7  A    between atoms: N_20  and  C_19 
REMARK       I    between atoms: C_22  and  N_20 
ROOT
ATOM      1  C   LIG d   1      -3.717  90.981 117.975  0.00  0.00     0.161 C 
ATOM      2  C   LIG d   1      -4.373  90.183 117.024  0.00  0.00     0.016 C 
ATOM      3  C   LIG d   1      -5.665  90.469 116.526  0.00  0.00     0.038 C 
ATOM      4  C   LIG d   1      -6.331  91.665 116.836  0.00  0.00     0.028 C 
ATOM      5  C   LIG d   1      -5.922  92.254 118.182  0.00  0.00    -0.047 C 
ATOM      6  C   LIG d   1      -4.381  92.348 118.241  0.00  0.00     0.091 C 
ENDROOT
BRANCH   1   7
ATOM      7  O   LIG d   1      -2.338  91.159 117.595  0.00  0.00    -0.368 OA
BRANCH   7   8
ATOM      8  C   LIG d   1      -1.364  90.406 118.359  0.00  0.00     0.119 C 
BRANCH   8   9
ATOM      9  C   LIG d   1      -0.888  89.236 117.476  0.00  0.00     0.028 C 
ATOM     10  C   LIG d   1      -1.518  87.896 117.888  0.00  0.00     0.006 C 
ENDBRANCH   8   9
BRANCH   8  11
ATOM     11  C   LIG d   1      -2.003  89.753 119.588  0.00  0.00     0.028 C 
ATOM     12  C   LIG d   1      -1.522  90.371 120.910  0.00  0.00     0.006 C 
ENDBRANCH   8  11
ENDBRANCH   7   8
ENDBRANCH   1   7
BRANCH   6  13
ATOM     13  N   LIG d   1      -3.893  92.837 119.557  0.00  0.00    -0.311 N 
ATOM     14  C   LIG d   1      -2.953  93.771 119.690  0.00  0.00     0.210 C 
ATOM     15  C   LIG d   1      -2.582  94.115 121.136  0.00  0.00     0.109 C 
ATOM     16  O   LIG d   1      -2.413  94.371 118.748  0.00  0.00    -0.276 OA
ATOM     17  H   LIG d   1      -4.299  92.427 120.375  0.00  0.00     0.149 HD
ENDBRANCH   6  13
BRANCH   5  18
ATOM     18  N   LIG d   1      -6.587  93.565 118.314  0.00  0.00     0.381 N 
ATOM     19  H   LIG d   1      -6.719  93.781 119.282  0.00  0.00    -0.090 HD
ATOM     20  H   LIG d   1      -7.490  93.517 117.876  0.00  0.00    -0.090 HD
ATOM     21  H   LIG d   1      -6.036  94.272 117.880  0.00  0.00    -0.090 HD
ENDBRANCH   5  18
BRANCH   3  22
ATOM     22  C   LIG d   1      -6.322  89.535 115.740  0.00  0.00     0.382 C 
ATOM     23  O   LIG d   1      -7.438  89.088 116.097  0.00  0.00    -0.241 OA
ATOM     24  O   LIG d   1      -5.791  89.100 114.700  0.00  0.00    -0.241 OA
ENDBRANCH   3  22
TORSDOF 7
ENDMDL
MODEL 7
REMARK VINA RESULT:      -5.0     12.296     15.267
REMARK  7 active torsions:
REMARK  status: ('A' for Active; 'I' for Inactive)
REMARK    1  A    between atoms: C_2  and  C_3 
REMARK    2  A    between atoms: C_3  and  O_6 
REMARK    3  A    between atoms: C_3  and  C_4 
REMARK    4  A    between atoms: C_7  and  O_6 
REMARK    5  A    between atoms: C_9  and  C_10 
REMARK    6  A    between atoms: N_15  and  C_14 
REMARK    7  A    between atoms: N_20  and  C_19 
REMARK       I    between atoms: C_22  and  N_20 
ROOT
ATOM      1  C   LIG d   1      -5.363  92.206 117.990  0.00  0.00     0.161 C 
ATOM      2  C   LIG d   1      -6.445  91.574 117.355  0.00  0.00     0.016 C 
ATOM      3  C   LIG d   1      -6.313  90.406 116.570  0.00  0.00     0.038 C 
ATOM      4  C   LIG d   1      -5.103  89.700 116.490  0.00  0.00     0.028 C 
ATOM      5  C   LIG d   1      -3.874  90.577 116.702  0.00  0.00    -0.047 C 
ATOM      6  C   LIG d   1      -4.055  91.388 118.005  0.00  0.00     0.091 C 
ENDROOT
BRANCH   1   7
ATOM      7  O   LIG d   1      -5.735  92.582 119.331  0.00  0.00    -0.368 OA
BRANCH   7   8
ATOM      8  C   LIG d   1      -5.686  93.998 119.633  0.00  0.00     0.119 C 
BRANCH   8   9
ATOM      9  C   LIG d   1      -4.954  94.159 120.980  0.00  0.00     0.028 C 
ATOM     10  C   LIG d   1      -3.927  95.303 120.956  0.00  0.00     0.006 C 
ENDBRANCH   8   9
BRANCH   8  11
ATOM     11  C   LIG d   1      -7.088  94.568 119.862  0.00  0.00     0.028 C 
ATOM     12  C   LIG d   1      -7.545  95.501 118.729  0.00  0.00     0.006 C 
ENDBRANCH   8  11
ENDBRANCH   7   8
ENDBRANCH   1   7
BRANCH   6  13
ATOM     13  N   LIG d   1      -2.935  92.335 118.244  0.00  0.00    -0.311 N 
ATOM     14  C   LIG d   1      -2.160  92.297 119.326  0.00  0.00     0.210 C 
ATOM     15  C   LIG d   1      -1.075  93.377 119.384  0.00  0.00     0.109 C 
ATOM     16  O   LIG d   1      -2.246  91.450 120.228  0.00  0.00    -0.276 OA
ATOM     17  H   LIG d   1      -2.774  93.036 117.547  0.00  0.00     0.149 HD
ENDBRANCH   6  13
BRANCH   5  18
ATOM     18  N   LIG d   1      -2.694  89.693 116.730  0.00  0.00     0.381 N 
ATOM     19  H   LIG d   1      -1.893  90.207 117.036  0.00  0.00    -0.090 HD
ATOM     20  H   LIG d   1      -2.517  89.357 115.799  0.00  0.00    -0.090 HD
ATOM     21  H   LIG d   1      -2.859  88.924 117.342  0.00  0.00    -0.090 HD
ENDBRANCH   5  18
BRANCH   3  22
ATOM     22  C   LIG d   1      -7.390  89.955 115.822  0.00  0.00     0.382 C 
ATOM     23  O   LIG d   1      -7.966  88.885 116.135  0.00  0.00    -0.241 OA
ATOM     24  O   LIG d   1      -7.764  90.581 114.813  0.00  0.00    -0.241 OA
ENDBRANCH   3  22
TORSDOF 7
ENDMDL
MODEL 8
REMARK VINA RESULT:      -4.9      2.443      6.336
REMARK  7 active torsions:
REMARK  status: ('A' for Active; 'I' for Inactive)
REMARK    1  A    between atoms: C_2  and  C_3 
REMARK    2  A    between atoms: C_3  and  O_6 
REMARK    3  A    between atoms: C_3  and  C_4 
REMARK    4  A    between atoms: C_7  and  O_6 
REMARK    5  A    between atoms: C_9  and  C_10 
REMARK    6  A    between atoms: N_15  and  C_14 
REMARK    7  A    between atoms: N_20  and  C_19 
REMARK       I    between atoms: C_22  and  N_20 
ROOT
ATOM      1  C   LIG d   1      -4.928  78.399 116.918  0.00  0.00     0.161 C 
ATOM      2  C   LIG d   1      -4.163  77.501 116.155  0.00  0.00     0.016 C 
ATOM      3  C   LIG d   1      -4.687  76.314 115.593  0.00  0.00     0.038 C 
ATOM      4  C   LIG d   1      -6.059  76.020 115.628  0.00  0.00     0.028 C 
ATOM      5  C   LIG d   1      -6.781  76.642 116.818  0.00  0.00    -0.047 C 
ATOM      6  C   LIG d   1      -6.451  78.151 116.873  0.00  0.00     0.091 C 
ENDROOT
BRANCH   1   7
ATOM      7  O   LIG d   1      -4.629  79.752 116.523  0.00  0.00    -0.368 OA
BRANCH   7   8
ATOM      8  C   LIG d   1      -4.242  80.656 117.588  0.00  0.00     0.119 C 
BRANCH   8   9
ATOM      9  C   LIG d   1      -3.074  81.514 117.065  0.00  0.00     0.028 C 
ATOM     10  C   LIG d   1      -2.889  81.389 115.543  0.00  0.00     0.006 C 
ENDBRANCH   8   9
BRANCH   8  11
ATOM     11  C   LIG d   1      -3.677  79.892 118.789  0.00  0.00     0.028 C 
ATOM     12  C   LIG d   1      -4.309  80.325 120.121  0.00  0.00     0.006 C 
ENDBRANCH   8  11
ENDBRANCH   7   8
ENDBRANCH   1   7
BRANCH   6  13
ATOM     13  N   LIG d   1      -7.050  78.820 118.057  0.00  0.00    -0.311 N 
ATOM     14  C   LIG d   1      -7.736  79.960 117.986  0.00  0.00     0.210 C 
ATOM     15  C   LIG d   1      -8.251  80.489 119.329  0.00  0.00     0.109 C 
ATOM     16  O   LIG d   1      -7.994  80.566 116.936  0.00  0.00    -0.276 OA
ATOM     17  H   LIG d   1      -6.916  78.380 118.946  0.00  0.00     0.149 HD
ENDBRANCH   6  13
BRANCH   5  18
ATOM     18  N   LIG d   1      -8.222  76.371 116.656  0.00  0.00     0.381 N 
ATOM     19  H   LIG d   1      -8.436  76.247 115.687  0.00  0.00    -0.090 HD
ATOM     20  H   LIG d   1      -8.742  77.161 116.995  0.00  0.00    -0.090 HD
ATOM     21  H   LIG d   1      -8.475  75.554 117.167  0.00  0.00    -0.090 HD
ENDBRANCH   5  18
BRANCH   3  22
ATOM     22  C   LIG d   1      -3.829  75.387 115.021  0.00  0.00     0.382 C 
ATOM     23  O   LIG d   1      -2.604  75.641 114.927  0.00  0.00    -0.241 OA
ATOM     24  O   LIG d   1      -4.272  74.319 114.557  0.00  0.00    -0.241 OA
ENDBRANCH   3  22
TORSDOF 7
ENDMDL
MODEL 9
REMARK VINA RESULT:      -4.7     12.196     14.546
REMARK  7 active torsions:
REMARK  status: ('A' for Active; 'I' for Inactive)
REMARK    1  A    between atoms: C_2  and  C_3 
REMARK    2  A    between atoms: C_3  and  O_6 
REMARK    3  A    between atoms: C_3  and  C_4 
REMARK    4  A    between atoms: C_7  and  O_6 
REMARK    5  A    between atoms: C_9  and  C_10 
REMARK    6  A    between atoms: N_15  and  C_14 
REMARK    7  A    between atoms: N_20  and  C_19 
REMARK       I    between atoms: C_22  and  N_20 
ROOT
ATOM      1  C   LIG d   1      -3.832  91.986 117.662  0.00  0.00     0.161 C 
ATOM      2  C   LIG d   1      -4.934  91.756 116.823  0.00  0.00     0.016 C 
ATOM      3  C   LIG d   1      -5.197  90.510 116.208  0.00  0.00     0.038 C 
ATOM      4  C   LIG d   1      -4.454  89.361 116.515  0.00  0.00     0.028 C 
ATOM      5  C   LIG d   1      -3.029  89.663 116.965  0.00  0.00    -0.047 C 
ATOM      6  C   LIG d   1      -3.073  90.715 118.097  0.00  0.00     0.091 C 
ENDROOT
BRANCH   1   7
ATOM      7  O   LIG d   1      -4.247  92.741 118.818  0.00  0.00    -0.368 OA
BRANCH   7   8
ATOM      8  C   LIG d   1      -4.800  91.974 119.916  0.00  0.00     0.119 C 
BRANCH   8   9
ATOM      9  C   LIG d   1      -6.264  92.417 120.099  0.00  0.00     0.028 C 
ATOM     10  C   LIG d   1      -6.515  93.843 119.581  0.00  0.00     0.006 C 
ENDBRANCH   8   9
BRANCH   8  11
ATOM     11  C   LIG d   1      -4.105  92.312 121.238  0.00  0.00     0.028 C 
ATOM     12  C   LIG d   1      -3.052  93.422 121.090  0.00  0.00     0.006 C 
ENDBRANCH   8  11
ENDBRANCH   7   8
ENDBRANCH   1   7
BRANCH   6  13
ATOM     13  N   LIG d   1      -1.716  91.130 118.538  0.00  0.00    -0.311 N 
ATOM     14  C   LIG d   1      -1.101  90.615 119.601  0.00  0.00     0.210 C 
ATOM     15  C   LIG d   1       0.286  91.198 119.892  0.00  0.00     0.109 C 
ATOM     16  O   LIG d   1      -1.558  89.707 120.311  0.00  0.00    -0.276 OA
ATOM     17  H   LIG d   1      -1.258  91.840 118.000  0.00  0.00     0.149 HD
ENDBRANCH   6  13
BRANCH   5  18
ATOM     18  N   LIG d   1      -2.414  88.389 117.383  0.00  0.00     0.381 N 
ATOM     19  H   LIG d   1      -1.581  88.225 116.853  0.00  0.00    -0.090 HD
ATOM     20  H   LIG d   1      -3.058  87.641 117.198  0.00  0.00    -0.090 HD
ATOM     21  H   LIG d   1      -2.197  88.418 118.355  0.00  0.00    -0.090 HD
ENDBRANCH   5  18
BRANCH   3  22
ATOM     22  C   LIG d   1      -6.190  90.415 115.245  0.00  0.00     0.382 C 
ATOM     23  O   LIG d   1      -6.496  91.420 114.558  0.00  0.00    -0.241 OA
ATOM     24  O   LIG d   1      -6.814  89.349 115.084  0.00  0.00    -0.241 OA
ENDBRANCH   3  22
TORSDOF 7
ENDMDL
