MODEL 1
REMARK VINA RESULT:      -5.8      0.000      0.000
REMARK  7 active torsions:
REMARK  status: ('A' for Active; 'I' for Inactive)
REMARK    1  A    between atoms: C_2  and  C_3 
REMARK    2  A    between atoms: C_3  and  O_6 
REMARK    3  A    between atoms: C_3  and  C_4 
REMARK    4  A    between atoms: C_7  and  O_6 
REMARK    5  A    between atoms: C_9  and  C_10 
REMARK    6  A    between atoms: N_15  and  C_14 
REMARK    7  A    between atoms: N_20  and  C_19 
REMARK       I    between atoms: C_22  and  N_20 
ROOT
ATOM      1  C   LIG d   1      -3.448  90.859 117.340  0.00  0.00     0.161 C 
ATOM      2  C   LIG d   1      -3.930  90.216 116.188  0.00  0.00     0.016 C 
ATOM      3  C   LIG d   1      -5.155  90.550 115.565  0.00  0.00     0.038 C 
ATOM      4  C   LIG d   1      -5.912  91.661 115.967  0.00  0.00     0.028 C 
ATOM      5  C   LIG d   1      -5.719  92.026 117.435  0.00  0.00    -0.047 C 
ATOM      6  C   LIG d   1      -4.206  92.146 117.727  0.00  0.00     0.091 C 
ENDROOT
BRANCH   1   7
ATOM      7  O   LIG d   1      -2.040  91.132 117.193  0.00  0.00    -0.368 OA
BRANCH   7   8
ATOM      8  C   LIG d   1      -1.139  90.193 117.830  0.00  0.00     0.119 C 
BRANCH   8   9
ATOM      9  C   LIG d   1      -1.968  89.362 118.829  0.00  0.00     0.028 C 
ATOM     10  C   LIG d   1      -1.483  89.533 120.279  0.00  0.00     0.006 C 
ENDBRANCH   8   9
BRANCH   8  11
ATOM     11  C   LIG d   1      -0.088  90.916 118.677  0.00  0.00     0.028 C 
ATOM     12  C   LIG d   1       0.302  92.286 118.101  0.00  0.00     0.006 C 
ENDBRANCH   8  11
ENDBRANCH   7   8
ENDBRANCH   1   7
BRANCH   6  13
ATOM     13  N   LIG d   1      -3.925  92.419 119.161  0.00  0.00    -0.311 N 
ATOM     14  C   LIG d   1      -3.123  93.398 119.577  0.00  0.00     0.210 C 
ATOM     15  C   LIG d   1      -2.955  93.493 121.097  0.00  0.00     0.109 C 
ATOM     16  O   LIG d   1      -2.561  94.216 118.834  0.00  0.00    -0.276 OA
ATOM     17  H   LIG d   1      -4.365  91.822 119.833  0.00  0.00     0.149 HD
ENDBRANCH   6  13
BRANCH   5  18
ATOM     18  N   LIG d   1      -6.456  93.280 117.683  0.00  0.00     0.381 N 
ATOM     19  H   LIG d   1      -7.359  93.232 117.253  0.00  0.00    -0.090 HD
ATOM     20  H   LIG d   1      -5.950  94.042 117.268  0.00  0.00    -0.090 HD
ATOM     21  H   LIG d   1      -6.554  93.430 118.663  0.00  0.00    -0.090 HD
ENDBRANCH   5  18
BRANCH   3  22
ATOM     22  C   LIG d   1      -5.653  89.745 114.552  0.00  0.00     0.382 C 
ATOM     23  O   LIG d   1      -4.890  88.955 113.947  0.00  0.00    -0.241 OA
ATOM     24  O   LIG d   1      -6.847  89.830 114.207  0.00  0.00    -0.241 OA
ENDBRANCH   3  22
TORSDOF 7
ENDMDL
MODEL 2
REMARK VINA RESULT:      -5.7     13.946     15.859
REMARK  7 active torsions:
REMARK  status: ('A' for Active; 'I' for Inactive)
REMARK    1  A    between atoms: C_2  and  C_3 
REMARK    2  A    between atoms: C_3  and  O_6 
REMARK    3  A    between atoms: C_3  and  C_4 
REMARK    4  A    between atoms: C_7  and  O_6 
REMARK    5  A    between atoms: C_9  and  C_10 
REMARK    6  A    between atoms: N_15  and  C_14 
REMARK    7  A    between atoms: N_20  and  C_19 
REMARK       I    between atoms: C_22  and  N_20 
ROOT
ATOM      1  C   LIG d   1      -5.276  76.210 116.343  0.00  0.00     0.161 C 
ATOM      2  C   LIG d   1      -4.145  75.466 115.969  0.00  0.00     0.016 C 
ATOM      3  C   LIG d   1      -2.822  75.845 116.292  0.00  0.00     0.038 C 
ATOM      4  C   LIG d   1      -2.547  76.922 117.149  0.00  0.00     0.028 C 
ATOM      5  C   LIG d   1      -3.630  77.997 117.136  0.00  0.00    -0.047 C 
ATOM      6  C   LIG d   1      -5.003  77.328 117.372  0.00  0.00     0.091 C 
ENDROOT
BRANCH   1   7
ATOM      7  O   LIG d   1      -6.305  75.325 116.826  0.00  0.00    -0.368 OA
BRANCH   7   8
ATOM      8  C   LIG d   1      -7.307  74.924 115.859  0.00  0.00     0.119 C 
BRANCH   8   9
ATOM      9  C   LIG d   1      -8.592  75.717 116.167  0.00  0.00     0.028 C 
ATOM     10  C   LIG d   1      -9.826  74.809 116.297  0.00  0.00     0.006 C 
ENDBRANCH   8   9
BRANCH   8  11
ATOM     11  C   LIG d   1      -7.689  73.451 116.031  0.00  0.00     0.028 C 
ATOM     12  C   LIG d   1      -6.550  72.492 115.652  0.00  0.00     0.006 C 
ENDBRANCH   8  11
ENDBRANCH   7   8
ENDBRANCH   1   7
BRANCH   6  13
ATOM     13  N   LIG d   1      -6.127  78.297 117.291  0.00  0.00    -0.311 N 
ATOM     14  C   LIG d   1      -6.653  78.900 118.356  0.00  0.00     0.210 C 
ATOM     15  C   LIG d   1      -7.817  79.848 118.053  0.00  0.00     0.109 C 
ATOM     16  O   LIG d   1      -6.244  78.765 119.519  0.00  0.00    -0.276 OA
ATOM     17  H   LIG d   1      -6.499  78.490 116.382  0.00  0.00     0.149 HD
ENDBRANCH   6  13
BRANCH   5  18
ATOM     18  N   LIG d   1      -3.284  78.989 118.172  0.00  0.00     0.381 N 
ATOM     19  H   LIG d   1      -2.435  79.455 117.924  0.00  0.00    -0.090 HD
ATOM     20  H   LIG d   1      -3.139  78.511 119.044  0.00  0.00    -0.090 HD
ATOM     21  H   LIG d   1      -4.021  79.653 118.267  0.00  0.00    -0.090 HD
ENDBRANCH   5  18
BRANCH   3  22
ATOM     22  C   LIG d   1      -1.754  75.167 115.725  0.00  0.00     0.382 C 
ATOM     23  O   LIG d   1      -1.509  75.296 114.501  0.00  0.00    -0.241 OA
ATOM     24  O   LIG d   1      -1.061  74.393 116.411  0.00  0.00    -0.241 OA
ENDBRANCH   3  22
TORSDOF 7
ENDMDL
MODEL 3
REMARK VINA RESULT:      -5.5      5.826      8.221
REMARK  7 active torsions:
REMARK  status: ('A' for Active; 'I' for Inactive)
REMARK    1  A    between atoms: C_2  and  C_3 
REMARK    2  A    between atoms: C_3  and  O_6 
REMARK    3  A    between atoms: C_3  and  C_4 
REMARK    4  A    between atoms: C_7  and  O_6 
REMARK    5  A    between atoms: C_9  and  C_10 
REMARK    6  A    between atoms: N_15  and  C_14 
REMARK    7  A    between atoms: N_20  and  C_19 
REMARK       I    between atoms: C_22  and  N_20 
ROOT
ATOM      1  C   LIG d   1       2.070  89.006 115.504  0.00  0.00     0.161 C 
ATOM      2  C   LIG d   1       0.845  89.295 116.128  0.00  0.00     0.016 C 
ATOM      3  C   LIG d   1       0.664  90.372 117.027  0.00  0.00     0.038 C 
ATOM      4  C   LIG d   1       1.665  91.330 117.247  0.00  0.00     0.028 C 
ATOM      5  C   LIG d   1       3.075  90.793 117.030  0.00  0.00    -0.047 C 
ATOM      6  C   LIG d   1       3.143  90.106 115.647  0.00  0.00     0.091 C 
ENDROOT
BRANCH   1   7
ATOM      7  O   LIG d   1       1.849  88.698 114.114  0.00  0.00    -0.368 OA
BRANCH   7   8
ATOM      8  C   LIG d   1       2.194  87.355 113.696  0.00  0.00     0.119 C 
BRANCH   8   9
ATOM      9  C   LIG d   1       2.684  87.435 112.237  0.00  0.00     0.028 C 
ATOM     10  C   LIG d   1       4.072  86.798 112.049  0.00  0.00     0.006 C 
ENDBRANCH   8   9
BRANCH   8  11
ATOM     11  C   LIG d   1       0.960  86.449 113.659  0.00  0.00     0.028 C 
ATOM     12  C   LIG d   1       1.300  84.968 113.892  0.00  0.00     0.006 C 
ENDBRANCH   8  11
ENDBRANCH   7   8
ENDBRANCH   1   7
BRANCH   6  13
ATOM     13  N   LIG d   1       4.466  89.479 115.389  0.00  0.00    -0.311 N 
ATOM     14  C   LIG d   1       5.112  89.580 114.229  0.00  0.00     0.210 C 
ATOM     15  C   LIG d   1       6.452  88.842 114.168  0.00  0.00     0.109 C 
ATOM     16  O   LIG d   1       4.717  90.239 113.255  0.00  0.00    -0.276 OA
ATOM     17  H   LIG d   1       4.874  88.952 116.136  0.00  0.00     0.149 HD
ENDBRANCH   6  13
BRANCH   5  18
ATOM     18  N   LIG d   1       4.009  91.928 117.158  0.00  0.00     0.381 N 
ATOM     19  H   LIG d   1       4.942  91.622 116.968  0.00  0.00    -0.090 HD
ATOM     20  H   LIG d   1       3.976  92.271 118.102  0.00  0.00    -0.090 HD
ATOM     21  H   LIG d   1       3.754  92.653 116.524  0.00  0.00    -0.090 HD
ENDBRANCH   5  18
BRANCH   3  22
ATOM     22  C   LIG d   1      -0.517  90.475 117.747  0.00  0.00     0.382 C 
ATOM     23  O   LIG d   1      -0.769  89.651 118.658  0.00  0.00    -0.241 OA
ATOM     24  O   LIG d   1      -1.353  91.355 117.466  0.00  0.00    -0.241 OA
ENDBRANCH   3  22
TORSDOF 7
ENDMDL
MODEL 4
REMARK VINA RESULT:      -5.4      1.652      5.008
REMARK  7 active torsions:
REMARK  status: ('A' for Active; 'I' for Inactive)
REMARK    1  A    between atoms: C_2  and  C_3 
REMARK    2  A    between atoms: C_3  and  O_6 
REMARK    3  A    between atoms: C_3  and  C_4 
REMARK    4  A    between atoms: C_7  and  O_6 
REMARK    5  A    between atoms: C_9  and  C_10 
REMARK    6  A    between atoms: N_15  and  C_14 
REMARK    7  A    between atoms: N_20  and  C_19 
REMARK       I    between atoms: C_22  and  N_20 
ROOT
ATOM      1  C   LIG d   1      -3.732  92.402 117.351  0.00  0.00     0.161 C 
ATOM      2  C   LIG d   1      -3.035  92.980 118.425  0.00  0.00     0.016 C 
ATOM      3  C   LIG d   1      -3.663  93.423 119.612  0.00  0.00     0.038 C 
ATOM      4  C   LIG d   1      -5.020  93.178 119.869  0.00  0.00     0.028 C 
ATOM      5  C   LIG d   1      -5.863  93.051 118.604  0.00  0.00    -0.047 C 
ATOM      6  C   LIG d   1      -5.197  92.026 117.658  0.00  0.00     0.091 C 
ENDROOT
BRANCH   1   7
ATOM      7  O   LIG d   1      -3.012  91.254 116.862  0.00  0.00    -0.368 OA
BRANCH   7   8
ATOM      8  C   LIG d   1      -1.940  90.767 117.706  0.00  0.00     0.119 C 
BRANCH   8   9
ATOM      9  C   LIG d   1      -0.701  90.567 116.812  0.00  0.00     0.028 C 
ATOM     10  C   LIG d   1       0.314  91.715 116.950  0.00  0.00     0.006 C 
ENDBRANCH   8   9
BRANCH   8  11
ATOM     11  C   LIG d   1      -2.261  89.380 118.270  0.00  0.00     0.028 C 
ATOM     12  C   LIG d   1      -1.936  89.255 119.767  0.00  0.00     0.006 C 
ENDBRANCH   8  11
ENDBRANCH   7   8
ENDBRANCH   1   7
BRANCH   6  13
ATOM     13  N   LIG d   1      -5.912  91.904 116.361  0.00  0.00    -0.311 N 
ATOM     14  C   LIG d   1      -6.239  90.736 115.811  0.00  0.00     0.210 C 
ATOM     15  C   LIG d   1      -6.955  90.835 114.460  0.00  0.00     0.109 C 
ATOM     16  O   LIG d   1      -6.034  89.628 116.329  0.00  0.00    -0.276 OA
ATOM     17  H   LIG d   1      -6.145  92.754 115.887  0.00  0.00     0.149 HD
ENDBRANCH   6  13
BRANCH   5  18
ATOM     18  N   LIG d   1      -7.225  92.660 119.013  0.00  0.00     0.381 N 
ATOM     19  H   LIG d   1      -7.302  91.663 119.025  0.00  0.00    -0.090 HD
ATOM     20  H   LIG d   1      -7.881  93.019 118.342  0.00  0.00    -0.090 HD
ATOM     21  H   LIG d   1      -7.428  93.027 119.917  0.00  0.00    -0.090 HD
ENDBRANCH   5  18
BRANCH   3  22
ATOM     22  C   LIG d   1      -2.939  94.154 120.541  0.00  0.00     0.382 C 
ATOM     23  O   LIG d   1      -2.213  93.564 121.376  0.00  0.00    -0.241 OA
ATOM     24  O   LIG d   1      -3.037  95.395 120.583  0.00  0.00    -0.241 OA
ENDBRANCH   3  22
TORSDOF 7
ENDMDL
MODEL 5
REMARK VINA RESULT:      -5.2     13.779     15.663
REMARK  7 active torsions:
REMARK  status: ('A' for Active; 'I' for Inactive)
REMARK    1  A    between atoms: C_2  and  C_3 
REMARK    2  A    between atoms: C_3  and  O_6 
REMARK    3  A    between atoms: C_3  and  C_4 
REMARK    4  A    between atoms: C_7  and  O_6 
REMARK    5  A    between atoms: C_9  and  C_10 
REMARK    6  A    between atoms: N_15  and  C_14 
REMARK    7  A    between atoms: N_20  and  C_19 
REMARK       I    between atoms: C_22  and  N_20 
ROOT
ATOM      1  C   LIG d   1      -3.881  76.931 115.562  0.00  0.00     0.161 C 
ATOM      2  C   LIG d   1      -2.932  75.976 115.159  0.00  0.00     0.016 C 
ATOM      3  C   LIG d   1      -1.823  75.599 115.951  0.00  0.00     0.038 C 
ATOM      4  C   LIG d   1      -1.671  76.043 117.272  0.00  0.00     0.028 C 
ATOM      5  C   LIG d   1      -2.328  77.394 117.537  0.00  0.00    -0.047 C 
ATOM      6  C   LIG d   1      -3.792  77.344 117.046  0.00  0.00     0.091 C 
ENDROOT
BRANCH   1   7
ATOM      7  O   LIG d   1      -5.208  76.462 115.251  0.00  0.00    -0.368 OA
BRANCH   7   8
ATOM      8  C   LIG d   1      -5.768  75.482 116.160  0.00  0.00     0.119 C 
BRANCH   8   9
ATOM      9  C   LIG d   1      -6.187  74.260 115.321  0.00  0.00     0.028 C 
ATOM     10  C   LIG d   1      -6.032  72.938 116.092  0.00  0.00     0.006 C 
ENDBRANCH   8   9
BRANCH   8  11
ATOM     11  C   LIG d   1      -7.059  75.994 116.805  0.00  0.00     0.028 C 
ATOM     12  C   LIG d   1      -8.317  75.596 116.017  0.00  0.00     0.006 C 
ENDBRANCH   8  11
ENDBRANCH   7   8
ENDBRANCH   1   7
BRANCH   6  13
ATOM     13  N   LIG d   1      -4.483  78.652 117.190  0.00  0.00    -0.311 N 
ATOM     14  C   LIG d   1      -5.271  78.955 118.221  0.00  0.00     0.210 C 
ATOM     15  C   LIG d   1      -5.902  80.350 118.164  0.00  0.00     0.109 C 
ATOM     16  O   LIG d   1      -5.482  78.213 119.192  0.00  0.00    -0.276 OA
ATOM     17  H   LIG d   1      -4.343  79.325 116.463  0.00  0.00     0.149 HD
ENDBRANCH   6  13
BRANCH   5  18
ATOM     18  N   LIG d   1      -2.211  77.670 118.981  0.00  0.00     0.381 N 
ATOM     19  H   LIG d   1      -1.246  77.720 119.240  0.00  0.00    -0.090 HD
ATOM     20  H   LIG d   1      -2.636  76.916 119.492  0.00  0.00    -0.090 HD
ATOM     21  H   LIG d   1      -2.667  78.529 119.202  0.00  0.00    -0.090 HD
ENDBRANCH   5  18
BRANCH   3  22
ATOM     22  C   LIG d   1      -0.831  74.798 115.406  0.00  0.00     0.382 C 
ATOM     23  O   LIG d   1      -0.133  74.070 116.152  0.00  0.00    -0.241 OA
ATOM     24  O   LIG d   1      -0.595  74.828 114.184  0.00  0.00    -0.241 OA
ENDBRANCH   3  22
TORSDOF 7
ENDMDL
MODEL 6
REMARK VINA RESULT:      -5.1     11.305     13.223
REMARK  7 active torsions:
REMARK  status: ('A' for Active; 'I' for Inactive)
REMARK    1  A    between atoms: C_2  and  C_3 
REMARK    2  A    between atoms: C_3  and  O_6 
REMARK    3  A    between atoms: C_3  and  C_4 
REMARK    4  A    between atoms: C_7  and  O_6 
REMARK    5  A    between atoms: C_9  and  C_10 
REMARK    6  A    between atoms: N_15  and  C_14 
REMARK    7  A    between atoms: N_20  and  C_19 
REMARK       I    between atoms: C_22  and  N_20 
ROOT
ATOM      1  C   LIG d   1      -2.585  79.692 115.589  0.00  0.00     0.161 C 
ATOM      2  C   LIG d   1      -2.516  80.946 114.959  0.00  0.00     0.016 C 
ATOM      3  C   LIG d   1      -2.051  81.128 113.637  0.00  0.00     0.038 C 
ATOM      4  C   LIG d   1      -1.762  80.042 112.796  0.00  0.00     0.028 C 
ATOM      5  C   LIG d   1      -1.335  78.788 113.552  0.00  0.00    -0.047 C 
ATOM      6  C   LIG d   1      -2.379  78.484 114.651  0.00  0.00     0.091 C 
ENDROOT
BRANCH   1   7
ATOM      7  O   LIG d   1      -3.834  79.568 116.298  0.00  0.00    -0.368 OA
BRANCH   7   8
ATOM      8  C   LIG d   1      -3.756  79.641 117.743  0.00  0.00     0.119 C 
BRANCH   8   9
ATOM      9  C   LIG d   1      -3.990  78.220 118.292  0.00  0.00     0.028 C 
ATOM     10  C   LIG d   1      -5.098  77.472 117.530  0.00  0.00     0.006 C 
ENDBRANCH   8   9
BRANCH   8  11
ATOM     11  C   LIG d   1      -4.893  80.491 118.320  0.00  0.00     0.028 C 
ATOM     12  C   LIG d   1      -5.230  81.708 117.444  0.00  0.00     0.006 C 
ENDBRANCH   8  11
ENDBRANCH   7   8
ENDBRANCH   1   7
BRANCH   6  13
ATOM     13  N   LIG d   1      -1.994  77.321 115.492  0.00  0.00    -0.311 N 
ATOM     14  C   LIG d   1      -2.455  76.088 115.292  0.00  0.00     0.210 C 
ATOM     15  C   LIG d   1      -1.947  75.039 116.286  0.00  0.00     0.109 C 
ATOM     16  O   LIG d   1      -3.210  75.756 114.365  0.00  0.00    -0.276 OA
ATOM     17  H   LIG d   1      -1.361  77.494 116.247  0.00  0.00     0.149 HD
ENDBRANCH   6  13
BRANCH   5  18
ATOM     18  N   LIG d   1      -1.199  77.699 112.566  0.00  0.00     0.381 N 
ATOM     19  H   LIG d   1      -1.970  77.066 112.652  0.00  0.00    -0.090 HD
ATOM     20  H   LIG d   1      -0.353  77.192 112.757  0.00  0.00    -0.090 HD
ATOM     21  H   LIG d   1      -1.170  78.075 111.644  0.00  0.00    -0.090 HD
ENDBRANCH   5  18
BRANCH   3  22
ATOM     22  C   LIG d   1      -1.832  82.410 113.156  0.00  0.00     0.382 C 
ATOM     23  O   LIG d   1      -1.673  83.361 113.957  0.00  0.00    -0.241 OA
ATOM     24  O   LIG d   1      -1.836  82.634 111.930  0.00  0.00    -0.241 OA
ENDBRANCH   3  22
TORSDOF 7
ENDMDL
MODEL 7
REMARK VINA RESULT:      -5.0      2.933      4.657
REMARK  7 active torsions:
REMARK  status: ('A' for Active; 'I' for Inactive)
REMARK    1  A    between atoms: C_2  and  C_3 
REMARK    2  A    between atoms: C_3  and  O_6 
REMARK    3  A    between atoms: C_3  and  C_4 
REMARK    4  A    between atoms: C_7  and  O_6 
REMARK    5  A    between atoms: C_9  and  C_10 
REMARK    6  A    between atoms: N_15  and  C_14 
REMARK    7  A    between atoms: N_20  and  C_19 
REMARK       I    between atoms: C_22  and  N_20 
ROOT
ATOM      1  C   LIG d   1      -4.931  92.679 118.695  0.00  0.00     0.161 C 
ATOM      2  C   LIG d   1      -6.328  92.798 118.772  0.00  0.00     0.016 C 
ATOM      3  C   LIG d   1      -6.985  93.921 119.326  0.00  0.00     0.038 C 
ATOM      4  C   LIG d   1      -6.286  95.076 119.705  0.00  0.00     0.028 C 
ATOM      5  C   LIG d   1      -4.842  94.803 120.113  0.00  0.00    -0.047 C 
ATOM      6  C   LIG d   1      -4.154  93.977 119.002  0.00  0.00     0.091 C 
ENDROOT
BRANCH   1   7
ATOM      7  O   LIG d   1      -4.554  92.164 117.403  0.00  0.00    -0.368 OA
BRANCH   7   8
ATOM      8  C   LIG d   1      -4.683  90.732 117.225  0.00  0.00     0.119 C 
BRANCH   8   9
ATOM      9  C   LIG d   1      -3.306  90.194 116.791  0.00  0.00     0.028 C 
ATOM     10  C   LIG d   1      -2.462  89.713 117.984  0.00  0.00     0.006 C 
ENDBRANCH   8   9
BRANCH   8  11
ATOM     11  C   LIG d   1      -5.632  90.397 116.070  0.00  0.00     0.028 C 
ATOM     12  C   LIG d   1      -4.908  89.775 114.866  0.00  0.00     0.006 C 
ENDBRANCH   8  11
ENDBRANCH   7   8
ENDBRANCH   1   7
BRANCH   6  13
ATOM     13  N   LIG d   1      -2.763  93.595 119.359  0.00  0.00    -0.311 N 
ATOM     14  C   LIG d   1      -1.718  93.801 118.559  0.00  0.00     0.210 C 
ATOM     15  C   LIG d   1      -0.375  93.314 119.112  0.00  0.00     0.109 C 
ATOM     16  O   LIG d   1      -1.771  94.371 117.459  0.00  0.00    -0.276 OA
ATOM     17  H   LIG d   1      -2.624  93.155 120.248  0.00  0.00     0.149 HD
ENDBRANCH   6  13
BRANCH   5  18
ATOM     18  N   LIG d   1      -4.192  96.106 120.351  0.00  0.00     0.381 N 
ATOM     19  H   LIG d   1      -3.501  96.274 119.646  0.00  0.00    -0.090 HD
ATOM     20  H   LIG d   1      -3.733  96.082 121.244  0.00  0.00    -0.090 HD
ATOM     21  H   LIG d   1      -4.873  96.834 120.338  0.00  0.00    -0.090 HD
ENDBRANCH   5  18
BRANCH   3  22
ATOM     22  C   LIG d   1      -8.354  93.879 119.542  0.00  0.00     0.382 C 
ATOM     23  O   LIG d   1      -9.096  94.754 119.033  0.00  0.00    -0.241 OA
ATOM     24  O   LIG d   1      -8.852  93.003 120.274  0.00  0.00    -0.241 OA
ENDBRANCH   3  22
TORSDOF 7
ENDMDL
MODEL 8
REMARK VINA RESULT:      -5.0     12.854     14.829
REMARK  7 active torsions:
REMARK  status: ('A' for Active; 'I' for Inactive)
REMARK    1  A    between atoms: C_2  and  C_3 
REMARK    2  A    between atoms: C_3  and  O_6 
REMARK    3  A    between atoms: C_3  and  C_4 
REMARK    4  A    between atoms: C_7  and  O_6 
REMARK    5  A    between atoms: C_9  and  C_10 
REMARK    6  A    between atoms: N_15  and  C_14 
REMARK    7  A    between atoms: N_20  and  C_19 
REMARK       I    between atoms: C_22  and  N_20 
ROOT
ATOM      1  C   LIG d   1      -5.368  77.390 117.271  0.00  0.00     0.161 C 
ATOM      2  C   LIG d   1      -6.429  78.292 117.458  0.00  0.00     0.016 C 
ATOM      3  C   LIG d   1      -6.243  79.658 117.773  0.00  0.00     0.038 C 
ATOM      4  C   LIG d   1      -4.972  80.252 117.774  0.00  0.00     0.028 C 
ATOM      5  C   LIG d   1      -3.846  79.273 118.088  0.00  0.00    -0.047 C 
ATOM      6  C   LIG d   1      -3.975  78.044 117.159  0.00  0.00     0.091 C 
ENDROOT
BRANCH   1   7
ATOM      7  O   LIG d   1      -5.628  76.563 116.120  0.00  0.00    -0.368 OA
BRANCH   7   8
ATOM      8  C   LIG d   1      -6.413  75.369 116.357  0.00  0.00     0.119 C 
BRANCH   8   9
ATOM      9  C   LIG d   1      -5.571  74.162 115.901  0.00  0.00     0.028 C 
ATOM     10  C   LIG d   1      -6.392  72.863 115.837  0.00  0.00     0.006 C 
ENDBRANCH   8   9
BRANCH   8  11
ATOM     11  C   LIG d   1      -7.667  75.343 115.478  0.00  0.00     0.028 C 
ATOM     12  C   LIG d   1      -8.964  75.522 116.285  0.00  0.00     0.006 C 
ENDBRANCH   8  11
ENDBRANCH   7   8
ENDBRANCH   1   7
BRANCH   6  13
ATOM     13  N   LIG d   1      -2.962  76.999 117.458  0.00  0.00    -0.311 N 
ATOM     14  C   LIG d   1      -2.280  76.349 116.516  0.00  0.00     0.210 C 
ATOM     15  C   LIG d   1      -1.298  75.296 117.039  0.00  0.00     0.109 C 
ATOM     16  O   LIG d   1      -2.370  76.568 115.299  0.00  0.00    -0.276 OA
ATOM     17  H   LIG d   1      -2.803  76.780 118.421  0.00  0.00     0.149 HD
ENDBRANCH   6  13
BRANCH   5  18
ATOM     18  N   LIG d   1      -2.569  79.993 117.921  0.00  0.00     0.381 N 
ATOM     19  H   LIG d   1      -2.393  80.147 116.948  0.00  0.00    -0.090 HD
ATOM     20  H   LIG d   1      -1.826  79.427 118.291  0.00  0.00    -0.090 HD
ATOM     21  H   LIG d   1      -2.604  80.865 118.401  0.00  0.00    -0.090 HD
ENDBRANCH   5  18
BRANCH   3  22
ATOM     22  C   LIG d   1      -7.334  80.436 118.130  0.00  0.00     0.382 C 
ATOM     23  O   LIG d   1      -8.110  80.048 119.037  0.00  0.00    -0.241 OA
ATOM     24  O   LIG d   1      -7.576  81.499 117.528  0.00  0.00    -0.241 OA
ENDBRANCH   3  22
TORSDOF 7
ENDMDL
MODEL 9
REMARK VINA RESULT:      -4.9      5.326      7.562
REMARK  7 active torsions:
REMARK  status: ('A' for Active; 'I' for Inactive)
REMARK    1  A    between atoms: C_2  and  C_3 
REMARK    2  A    between atoms: C_3  and  O_6 
REMARK    3  A    between atoms: C_3  and  C_4 
REMARK    4  A    between atoms: C_7  and  O_6 
REMARK    5  A    between atoms: C_9  and  C_10 
REMARK    6  A    between atoms: N_15  and  C_14 
REMARK    7  A    between atoms: N_20  and  C_19 
REMARK       I    between atoms: C_22  and  N_20 
ROOT
ATOM      1  C   LIG d   1       2.289  89.620 116.732  0.00  0.00     0.161 C 
ATOM      2  C   LIG d   1       1.831  89.019 115.548  0.00  0.00     0.016 C 
ATOM      3  C   LIG d   1       2.668  88.296 114.668  0.00  0.00     0.038 C 
ATOM      4  C   LIG d   1       3.999  87.994 114.992  0.00  0.00     0.028 C 
ATOM      5  C   LIG d   1       4.638  89.007 115.935  0.00  0.00    -0.047 C 
ATOM      6  C   LIG d   1       3.714  89.207 117.158  0.00  0.00     0.091 C 
ENDROOT
BRANCH   1   7
ATOM      7  O   LIG d   1       1.355  89.370 117.801  0.00  0.00    -0.368 OA
BRANCH   7   8
ATOM      8  C   LIG d   1       0.171  90.205 117.821  0.00  0.00     0.119 C 
BRANCH   8   9
ATOM      9  C   LIG d   1       0.630  91.652 118.081  0.00  0.00     0.028 C 
ATOM     10  C   LIG d   1      -0.324  92.690 117.466  0.00  0.00     0.006 C 
ENDBRANCH   8   9
BRANCH   8  11
ATOM     11  C   LIG d   1      -0.741  89.850 119.000  0.00  0.00     0.028 C 
ATOM     12  C   LIG d   1      -2.099  89.287 118.554  0.00  0.00     0.006 C 
ENDBRANCH   8  11
ENDBRANCH   7   8
ENDBRANCH   1   7
BRANCH   6  13
ATOM     13  N   LIG d   1       4.223  90.246 118.090  0.00  0.00    -0.311 N 
ATOM     14  C   LIG d   1       4.342  91.531 117.762  0.00  0.00     0.210 C 
ATOM     15  C   LIG d   1       4.908  92.431 118.865  0.00  0.00     0.109 C 
ATOM     16  O   LIG d   1       4.003  92.017 116.672  0.00  0.00    -0.276 OA
ATOM     17  H   LIG d   1       4.493  89.944 119.006  0.00  0.00     0.149 HD
ENDBRANCH   6  13
BRANCH   5  18
ATOM     18  N   LIG d   1       5.974  88.498 116.298  0.00  0.00     0.381 N 
ATOM     19  H   LIG d   1       6.213  88.801 117.221  0.00  0.00    -0.090 HD
ATOM     20  H   LIG d   1       6.651  88.875 115.658  0.00  0.00    -0.090 HD
ATOM     21  H   LIG d   1       5.984  87.503 116.254  0.00  0.00    -0.090 HD
ENDBRANCH   5  18
BRANCH   3  22
ATOM     22  C   LIG d   1       2.186  87.900 113.430  0.00  0.00     0.382 C 
ATOM     23  O   LIG d   1       1.335  86.981 113.353  0.00  0.00    -0.241 OA
ATOM     24  O   LIG d   1       2.622  88.420 112.386  0.00  0.00    -0.241 OA
ENDBRANCH   3  22
TORSDOF 7
ENDMDL
