MODEL 1
REMARK VINA RESULT:      -6.5      0.000      0.000
REMARK  7 active torsions:
REMARK  status: ('A' for Active; 'I' for Inactive)
REMARK    1  A    between atoms: C_2  and  C_3 
REMARK    2  A    between atoms: C_3  and  O_6 
REMARK    3  A    between atoms: C_3  and  C_4 
REMARK    4  A    between atoms: C_7  and  O_6 
REMARK    5  A    between atoms: C_9  and  C_10 
REMARK    6  A    between atoms: N_15  and  C_14 
REMARK    7  A    between atoms: N_20  and  C_19 
REMARK       I    between atoms: C_22  and  N_20 
ROOT
ATOM      1  C   LIG d   1       1.096  83.077 111.507  0.00  0.00     0.161 C 
ATOM      2  C   LIG d   1       2.019  82.829 110.477  0.00  0.00     0.016 C 
ATOM      3  C   LIG d   1       2.010  81.654 109.691  0.00  0.00     0.038 C 
ATOM      4  C   LIG d   1       0.978  80.709 109.781  0.00  0.00     0.028 C 
ATOM      5  C   LIG d   1       0.309  80.672 111.151  0.00  0.00    -0.047 C 
ATOM      6  C   LIG d   1      -0.105  82.108 111.546  0.00  0.00     0.091 C 
ENDROOT
BRANCH   1   7
ATOM      7  O   LIG d   1       0.637  84.441 111.434  0.00  0.00    -0.368 OA
BRANCH   7   8
ATOM      8  C   LIG d   1       1.357  85.308 110.523  0.00  0.00     0.119 C 
BRANCH   8   9
ATOM      9  C   LIG d   1       2.012  86.421 111.363  0.00  0.00     0.028 C 
ATOM     10  C   LIG d   1       3.529  86.222 111.521  0.00  0.00     0.006 C 
ENDBRANCH   8   9
BRANCH   8  11
ATOM     11  C   LIG d   1       0.401  86.030 109.568  0.00  0.00     0.028 C 
ATOM     12  C   LIG d   1      -1.077  85.816 109.930  0.00  0.00     0.006 C 
ENDBRANCH   8  11
ENDBRANCH   7   8
ENDBRANCH   1   7
BRANCH   6  13
ATOM     13  N   LIG d   1      -0.691  82.174 112.910  0.00  0.00    -0.311 N 
ATOM     14  C   LIG d   1      -1.998  82.085 113.151  0.00  0.00     0.210 C 
ATOM     15  C   LIG d   1      -2.393  82.197 114.627  0.00  0.00     0.109 C 
ATOM     16  O   LIG d   1      -2.865  81.891 112.286  0.00  0.00    -0.276 OA
ATOM     17  H   LIG d   1      -0.056  82.299 113.674  0.00  0.00     0.149 HD
ENDBRANCH   6  13
BRANCH   5  18
ATOM     18  N   LIG d   1      -0.835  79.745 111.063  0.00  0.00     0.381 N 
ATOM     19  H   LIG d   1      -1.691  80.263 111.056  0.00  0.00    -0.090 HD
ATOM     20  H   LIG d   1      -0.834  79.149 111.872  0.00  0.00    -0.090 HD
ATOM     21  H   LIG d   1      -0.765  79.194 110.236  0.00  0.00    -0.090 HD
ENDBRANCH   5  18
BRANCH   3  22
ATOM     22  C   LIG d   1       3.066  81.397 108.829  0.00  0.00     0.382 C 
ATOM     23  O   LIG d   1       3.301  82.177 107.875  0.00  0.00    -0.241 OA
ATOM     24  O   LIG d   1       3.757  80.370 108.966  0.00  0.00    -0.241 OA
ENDBRANCH   3  22
TORSDOF 7
ENDMDL
MODEL 2
REMARK VINA RESULT:      -6.5      2.366      4.974
REMARK  7 active torsions:
REMARK  status: ('A' for Active; 'I' for Inactive)
REMARK    1  A    between atoms: C_2  and  C_3 
REMARK    2  A    between atoms: C_3  and  O_6 
REMARK    3  A    between atoms: C_3  and  C_4 
REMARK    4  A    between atoms: C_7  and  O_6 
REMARK    5  A    between atoms: C_9  and  C_10 
REMARK    6  A    between atoms: N_15  and  C_14 
REMARK    7  A    between atoms: N_20  and  C_19 
REMARK       I    between atoms: C_22  and  N_20 
ROOT
ATOM      1  C   LIG d   1       2.086  84.503 109.972  0.00  0.00     0.161 C 
ATOM      2  C   LIG d   1       1.084  85.436 110.287  0.00  0.00     0.016 C 
ATOM      3  C   LIG d   1      -0.217  85.070 110.704  0.00  0.00     0.038 C 
ATOM      4  C   LIG d   1      -0.559  83.738 110.981  0.00  0.00     0.028 C 
ATOM      5  C   LIG d   1       0.265  82.725 110.194  0.00  0.00    -0.047 C 
ATOM      6  C   LIG d   1       1.766  83.049 110.375  0.00  0.00     0.091 C 
ENDROOT
BRANCH   1   7
ATOM      7  O   LIG d   1       3.339  84.919 110.550  0.00  0.00    -0.368 OA
BRANCH   7   8
ATOM      8  C   LIG d   1       3.265  85.530 111.862  0.00  0.00     0.119 C 
BRANCH   8   9
ATOM      9  C   LIG d   1       4.196  86.758 111.853  0.00  0.00     0.028 C 
ATOM     10  C   LIG d   1       4.036  87.624 113.114  0.00  0.00     0.006 C 
ENDBRANCH   8   9
BRANCH   8  11
ATOM     11  C   LIG d   1       3.828  84.602 112.942  0.00  0.00     0.028 C 
ATOM     12  C   LIG d   1       2.731  83.947 113.796  0.00  0.00     0.006 C 
ENDBRANCH   8  11
ENDBRANCH   7   8
ENDBRANCH   1   7
BRANCH   6  13
ATOM     13  N   LIG d   1       2.640  82.156 109.570  0.00  0.00    -0.311 N 
ATOM     14  C   LIG d   1       3.492  81.286 110.108  0.00  0.00     0.210 C 
ATOM     15  C   LIG d   1       4.313  80.477 109.099  0.00  0.00     0.109 C 
ATOM     16  O   LIG d   1       3.624  81.084 111.325  0.00  0.00    -0.276 OA
ATOM     17  H   LIG d   1       2.575  82.232 108.574  0.00  0.00     0.149 HD
ENDBRANCH   6  13
BRANCH   5  18
ATOM     18  N   LIG d   1      -0.099  81.380 110.681  0.00  0.00     0.381 N 
ATOM     19  H   LIG d   1       0.468  80.692 110.228  0.00  0.00    -0.090 HD
ATOM     20  H   LIG d   1      -1.060  81.200 110.448  0.00  0.00    -0.090 HD
ATOM     21  H   LIG d   1       0.027  81.329 111.667  0.00  0.00    -0.090 HD
ENDBRANCH   5  18
BRANCH   3  22
ATOM     22  C   LIG d   1      -1.203  86.039 110.809  0.00  0.00     0.382 C 
ATOM     23  O   LIG d   1      -1.565  86.445 111.940  0.00  0.00    -0.241 OA
ATOM     24  O   LIG d   1      -1.766  86.481 109.790  0.00  0.00    -0.241 OA
ENDBRANCH   3  22
TORSDOF 7
ENDMDL
MODEL 3
REMARK VINA RESULT:      -6.3      2.820      5.494
REMARK  7 active torsions:
REMARK  status: ('A' for Active; 'I' for Inactive)
REMARK    1  A    between atoms: C_2  and  C_3 
REMARK    2  A    between atoms: C_3  and  O_6 
REMARK    3  A    between atoms: C_3  and  C_4 
REMARK    4  A    between atoms: C_7  and  O_6 
REMARK    5  A    between atoms: C_9  and  C_10 
REMARK    6  A    between atoms: N_15  and  C_14 
REMARK    7  A    between atoms: N_20  and  C_19 
REMARK       I    between atoms: C_22  and  N_20 
ROOT
ATOM      1  C   LIG d   1       1.416  84.336 112.139  0.00  0.00     0.161 C 
ATOM      2  C   LIG d   1       0.354  83.417 112.179  0.00  0.00     0.016 C 
ATOM      3  C   LIG d   1      -0.745  83.535 113.061  0.00  0.00     0.038 C 
ATOM      4  C   LIG d   1      -0.932  84.670 113.864  0.00  0.00     0.028 C 
ATOM      5  C   LIG d   1       0.370  85.379 114.224  0.00  0.00    -0.047 C 
ATOM      6  C   LIG d   1       1.174  85.638 112.929  0.00  0.00     0.091 C 
ENDROOT
BRANCH   1   7
ATOM      7  O   LIG d   1       1.751  84.636 110.769  0.00  0.00    -0.368 OA
BRANCH   7   8
ATOM      8  C   LIG d   1       0.720  84.369 109.788  0.00  0.00     0.119 C 
BRANCH   8   9
ATOM      9  C   LIG d   1       1.387  83.654 108.597  0.00  0.00     0.028 C 
ATOM     10  C   LIG d   1       1.929  82.265 108.975  0.00  0.00     0.006 C 
ENDBRANCH   8   9
BRANCH   8  11
ATOM     11  C   LIG d   1       0.149  85.669 109.212  0.00  0.00     0.028 C 
ATOM     12  C   LIG d   1      -1.214  86.040 109.816  0.00  0.00     0.006 C 
ENDBRANCH   8  11
ENDBRANCH   7   8
ENDBRANCH   1   7
BRANCH   6  13
ATOM     13  N   LIG d   1       2.500  86.253 113.200  0.00  0.00    -0.311 N 
ATOM     14  C   LIG d   1       2.978  87.292 112.518  0.00  0.00     0.210 C 
ATOM     15  C   LIG d   1       4.374  87.758 112.944  0.00  0.00     0.109 C 
ATOM     16  O   LIG d   1       2.366  87.893 111.622  0.00  0.00    -0.276 OA
ATOM     17  H   LIG d   1       3.050  85.848 113.931  0.00  0.00     0.149 HD
ENDBRANCH   6  13
BRANCH   5  18
ATOM     18  N   LIG d   1       0.019  86.617 114.945  0.00  0.00     0.381 N 
ATOM     19  H   LIG d   1       0.297  86.541 115.903  0.00  0.00    -0.090 HD
ATOM     20  H   LIG d   1      -0.978  86.739 114.915  0.00  0.00    -0.090 HD
ATOM     21  H   LIG d   1       0.469  87.398 114.521  0.00  0.00    -0.090 HD
ENDBRANCH   5  18
BRANCH   3  22
ATOM     22  C   LIG d   1      -1.650  82.491 113.175  0.00  0.00     0.382 C 
ATOM     23  O   LIG d   1      -1.693  81.811 114.228  0.00  0.00    -0.241 OA
ATOM     24  O   LIG d   1      -2.394  82.193 112.221  0.00  0.00    -0.241 OA
ENDBRANCH   3  22
TORSDOF 7
ENDMDL
MODEL 4
REMARK VINA RESULT:      -6.3      1.700      4.885
REMARK  7 active torsions:
REMARK  status: ('A' for Active; 'I' for Inactive)
REMARK    1  A    between atoms: C_2  and  C_3 
REMARK    2  A    between atoms: C_3  and  O_6 
REMARK    3  A    between atoms: C_3  and  C_4 
REMARK    4  A    between atoms: C_7  and  O_6 
REMARK    5  A    between atoms: C_9  and  C_10 
REMARK    6  A    between atoms: N_15  and  C_14 
REMARK    7  A    between atoms: N_20  and  C_19 
REMARK       I    between atoms: C_22  and  N_20 
ROOT
ATOM      1  C   LIG d   1       0.309  82.871 111.549  0.00  0.00     0.161 C 
ATOM      2  C   LIG d   1      -0.859  82.567 112.267  0.00  0.00     0.016 C 
ATOM      3  C   LIG d   1      -1.439  81.278 112.300  0.00  0.00     0.038 C 
ATOM      4  C   LIG d   1      -0.801  80.163 111.736  0.00  0.00     0.028 C 
ATOM      5  C   LIG d   1       0.121  80.516 110.574  0.00  0.00    -0.047 C 
ATOM      6  C   LIG d   1       1.080  81.643 111.019  0.00  0.00     0.091 C 
ENDROOT
BRANCH   1   7
ATOM      7  O   LIG d   1       1.175  83.697 112.352  0.00  0.00    -0.368 OA
BRANCH   7   8
ATOM      8  C   LIG d   1       1.388  85.049 111.875  0.00  0.00     0.119 C 
BRANCH   8   9
ATOM      9  C   LIG d   1       0.522  85.236 110.614  0.00  0.00     0.028 C 
ATOM     10  C   LIG d   1      -0.460  86.412 110.747  0.00  0.00     0.006 C 
ENDBRANCH   8   9
BRANCH   8  11
ATOM     11  C   LIG d   1       2.832  85.254 111.410  0.00  0.00     0.028 C 
ATOM     12  C   LIG d   1       3.412  86.609 111.846  0.00  0.00     0.006 C 
ENDBRANCH   8  11
ENDBRANCH   7   8
ENDBRANCH   1   7
BRANCH   6  13
ATOM     13  N   LIG d   1       1.961  82.107 109.916  0.00  0.00    -0.311 N 
ATOM     14  C   LIG d   1       3.287  81.982 109.934  0.00  0.00     0.210 C 
ATOM     15  C   LIG d   1       4.006  82.545 108.704  0.00  0.00     0.109 C 
ATOM     16  O   LIG d   1       3.933  81.429 110.837  0.00  0.00    -0.276 OA
ATOM     17  H   LIG d   1       1.517  82.540 109.129  0.00  0.00     0.149 HD
ENDBRANCH   6  13
BRANCH   5  18
ATOM     18  N   LIG d   1       0.824  79.283 110.172  0.00  0.00     0.381 N 
ATOM     19  H   LIG d   1       1.130  79.362 109.223  0.00  0.00    -0.090 HD
ATOM     20  H   LIG d   1       0.186  78.510 110.235  0.00  0.00    -0.090 HD
ATOM     21  H   LIG d   1       1.606  79.127 110.769  0.00  0.00    -0.090 HD
ENDBRANCH   5  18
BRANCH   3  22
ATOM     22  C   LIG d   1      -2.692  81.102 112.868  0.00  0.00     0.382 C 
ATOM     23  O   LIG d   1      -2.910  80.116 113.612  0.00  0.00    -0.241 OA
ATOM     24  O   LIG d   1      -3.619  81.893 112.611  0.00  0.00    -0.241 OA
ENDBRANCH   3  22
TORSDOF 7
ENDMDL
MODEL 5
REMARK VINA RESULT:      -6.0      2.673      4.998
REMARK  7 active torsions:
REMARK  status: ('A' for Active; 'I' for Inactive)
REMARK    1  A    between atoms: C_2  and  C_3 
REMARK    2  A    between atoms: C_3  and  O_6 
REMARK    3  A    between atoms: C_3  and  C_4 
REMARK    4  A    between atoms: C_7  and  O_6 
REMARK    5  A    between atoms: C_9  and  C_10 
REMARK    6  A    between atoms: N_15  and  C_14 
REMARK    7  A    between atoms: N_20  and  C_19 
REMARK       I    between atoms: C_22  and  N_20 
ROOT
ATOM      1  C   LIG d   1       2.886  83.086 111.850  0.00  0.00     0.161 C 
ATOM      2  C   LIG d   1       3.069  84.440 112.176  0.00  0.00     0.016 C 
ATOM      3  C   LIG d   1       2.602  85.504 111.370  0.00  0.00     0.038 C 
ATOM      4  C   LIG d   1       1.784  85.284 110.252  0.00  0.00     0.028 C 
ATOM      5  C   LIG d   1       1.997  83.921 109.604  0.00  0.00    -0.047 C 
ATOM      6  C   LIG d   1       1.899  82.827 110.693  0.00  0.00     0.091 C 
ENDROOT
BRANCH   1   7
ATOM      7  O   LIG d   1       2.485  82.351 113.024  0.00  0.00    -0.368 OA
BRANCH   7   8
ATOM      8  C   LIG d   1       1.064  82.322 113.303  0.00  0.00     0.119 C 
BRANCH   8   9
ATOM      9  C   LIG d   1       0.822  83.176 114.563  0.00  0.00     0.028 C 
ATOM     10  C   LIG d   1      -0.068  84.398 114.281  0.00  0.00     0.006 C 
ENDBRANCH   8   9
BRANCH   8  11
ATOM     11  C   LIG d   1       0.598  80.911 113.675  0.00  0.00     0.028 C 
ATOM     12  C   LIG d   1      -0.724  80.522 112.996  0.00  0.00     0.006 C 
ENDBRANCH   8  11
ENDBRANCH   7   8
ENDBRANCH   1   7
BRANCH   6  13
ATOM     13  N   LIG d   1       2.179  81.469 110.158  0.00  0.00    -0.311 N 
ATOM     14  C   LIG d   1       1.232  80.651 109.702  0.00  0.00     0.210 C 
ATOM     15  C   LIG d   1       1.734  79.288 109.215  0.00  0.00     0.109 C 
ATOM     16  O   LIG d   1       0.027  80.937 109.624  0.00  0.00    -0.276 OA
ATOM     17  H   LIG d   1       3.133  81.168 110.156  0.00  0.00     0.149 HD
ENDBRANCH   6  13
BRANCH   5  18
ATOM     18  N   LIG d   1       0.987  83.770 108.540  0.00  0.00     0.381 N 
ATOM     19  H   LIG d   1       0.677  84.671 108.237  0.00  0.00    -0.090 HD
ATOM     20  H   LIG d   1       0.196  83.273 108.911  0.00  0.00    -0.090 HD
ATOM     21  H   LIG d   1       1.373  83.268 107.772  0.00  0.00    -0.090 HD
ENDBRANCH   5  18
BRANCH   3  22
ATOM     22  C   LIG d   1       2.989  86.805 111.658  0.00  0.00     0.382 C 
ATOM     23  O   LIG d   1       2.139  87.728 111.648  0.00  0.00    -0.241 OA
ATOM     24  O   LIG d   1       4.184  87.073 111.884  0.00  0.00    -0.241 OA
ENDBRANCH   3  22
TORSDOF 7
ENDMDL
MODEL 6
REMARK VINA RESULT:      -5.9      2.523      3.451
REMARK  7 active torsions:
REMARK  status: ('A' for Active; 'I' for Inactive)
REMARK    1  A    between atoms: C_2  and  C_3 
REMARK    2  A    between atoms: C_3  and  O_6 
REMARK    3  A    between atoms: C_3  and  C_4 
REMARK    4  A    between atoms: C_7  and  O_6 
REMARK    5  A    between atoms: C_9  and  C_10 
REMARK    6  A    between atoms: N_15  and  C_14 
REMARK    7  A    between atoms: N_20  and  C_19 
REMARK       I    between atoms: C_22  and  N_20 
ROOT
ATOM      1  C   LIG d   1       2.514  84.922 111.681  0.00  0.00     0.161 C 
ATOM      2  C   LIG d   1       3.299  84.331 110.678  0.00  0.00     0.016 C 
ATOM      3  C   LIG d   1       2.770  83.492 109.669  0.00  0.00     0.038 C 
ATOM      4  C   LIG d   1       1.389  83.310 109.506  0.00  0.00     0.028 C 
ATOM      5  C   LIG d   1       0.598  83.480 110.799  0.00  0.00    -0.047 C 
ATOM      6  C   LIG d   1       0.991  84.824 111.453  0.00  0.00     0.091 C 
ENDROOT
BRANCH   1   7
ATOM      7  O   LIG d   1       2.906  86.298 111.861  0.00  0.00    -0.368 OA
BRANCH   7   8
ATOM      8  C   LIG d   1       3.930  86.544 112.856  0.00  0.00     0.119 C 
BRANCH   8   9
ATOM      9  C   LIG d   1       3.239  86.580 114.233  0.00  0.00     0.028 C 
ATOM     10  C   LIG d   1       3.670  85.414 115.137  0.00  0.00     0.006 C 
ENDBRANCH   8   9
BRANCH   8  11
ATOM     11  C   LIG d   1       4.556  87.930 112.680  0.00  0.00     0.028 C 
ATOM     12  C   LIG d   1       3.692  89.054 113.272  0.00  0.00     0.006 C 
ENDBRANCH   8  11
ENDBRANCH   7   8
ENDBRANCH   1   7
BRANCH   6  13
ATOM     13  N   LIG d   1       0.326  85.031 112.766  0.00  0.00    -0.311 N 
ATOM     14  C   LIG d   1      -0.830  85.679 112.909  0.00  0.00     0.210 C 
ATOM     15  C   LIG d   1      -1.331  85.797 114.351  0.00  0.00     0.109 C 
ATOM     16  O   LIG d   1      -1.503  86.139 111.974  0.00  0.00    -0.276 OA
ATOM     17  H   LIG d   1       0.787  84.663 113.575  0.00  0.00     0.149 HD
ENDBRANCH   6  13
BRANCH   5  18
ATOM     18  N   LIG d   1      -0.835  83.400 110.458  0.00  0.00     0.381 N 
ATOM     19  H   LIG d   1      -0.953  82.892 109.605  0.00  0.00    -0.090 HD
ATOM     20  H   LIG d   1      -1.190  84.330 110.323  0.00  0.00    -0.090 HD
ATOM     21  H   LIG d   1      -1.335  82.950 111.193  0.00  0.00    -0.090 HD
ENDBRANCH   5  18
BRANCH   3  22
ATOM     22  C   LIG d   1       3.630  82.794 108.835  0.00  0.00     0.382 C 
ATOM     23  O   LIG d   1       3.186  82.234 107.804  0.00  0.00    -0.241 OA
ATOM     24  O   LIG d   1       4.836  82.681 109.123  0.00  0.00    -0.241 OA
ENDBRANCH   3  22
TORSDOF 7
ENDMDL
MODEL 7
REMARK VINA RESULT:      -5.8      2.363      5.482
REMARK  7 active torsions:
REMARK  status: ('A' for Active; 'I' for Inactive)
REMARK    1  A    between atoms: C_2  and  C_3 
REMARK    2  A    between atoms: C_3  and  O_6 
REMARK    3  A    between atoms: C_3  and  C_4 
REMARK    4  A    between atoms: C_7  and  O_6 
REMARK    5  A    between atoms: C_9  and  C_10 
REMARK    6  A    between atoms: N_15  and  C_14 
REMARK    7  A    between atoms: N_20  and  C_19 
REMARK       I    between atoms: C_22  and  N_20 
ROOT
ATOM      1  C   LIG d   1       1.247  82.485 111.751  0.00  0.00     0.161 C 
ATOM      2  C   LIG d   1       0.117  81.690 112.004  0.00  0.00     0.016 C 
ATOM      3  C   LIG d   1      -1.130  82.217 112.412  0.00  0.00     0.038 C 
ATOM      4  C   LIG d   1      -1.376  83.597 112.447  0.00  0.00     0.028 C 
ATOM      5  C   LIG d   1      -0.121  84.430 112.687  0.00  0.00    -0.047 C 
ATOM      6  C   LIG d   1       0.967  84.001 111.676  0.00  0.00     0.091 C 
ENDROOT
BRANCH   1   7
ATOM      7  O   LIG d   1       1.899  82.036 110.546  0.00  0.00    -0.368 OA
BRANCH   7   8
ATOM      8  C   LIG d   1       3.136  81.303 110.727  0.00  0.00     0.119 C 
BRANCH   8   9
ATOM      9  C   LIG d   1       4.279  82.180 110.181  0.00  0.00     0.028 C 
ATOM     10  C   LIG d   1       3.814  83.112 109.050  0.00  0.00     0.006 C 
ENDBRANCH   8   9
BRANCH   8  11
ATOM     11  C   LIG d   1       3.158  80.031 109.874  0.00  0.00     0.028 C 
ATOM     12  C   LIG d   1       1.777  79.669 109.306  0.00  0.00     0.006 C 
ENDBRANCH   8  11
ENDBRANCH   7   8
ENDBRANCH   1   7
BRANCH   6  13
ATOM     13  N   LIG d   1       2.256  84.707 111.896  0.00  0.00    -0.311 N 
ATOM     14  C   LIG d   1       2.554  85.879 111.339  0.00  0.00     0.210 C 
ATOM     15  C   LIG d   1       3.944  86.423 111.682  0.00  0.00     0.109 C 
ATOM     16  O   LIG d   1       1.787  86.535 110.619  0.00  0.00    -0.276 OA
ATOM     17  H   LIG d   1       2.925  84.260 112.493  0.00  0.00     0.149 HD
ENDBRANCH   6  13
BRANCH   5  18
ATOM     18  N   LIG d   1      -0.498  85.850 112.563  0.00  0.00     0.381 N 
ATOM     19  H   LIG d   1      -0.899  86.017 111.661  0.00  0.00    -0.090 HD
ATOM     20  H   LIG d   1       0.329  86.415 112.649  0.00  0.00    -0.090 HD
ATOM     21  H   LIG d   1      -1.150  86.094 113.275  0.00  0.00    -0.090 HD
ENDBRANCH   5  18
BRANCH   3  22
ATOM     22  C   LIG d   1      -2.136  81.358 112.828  0.00  0.00     0.382 C 
ATOM     23  O   LIG d   1      -1.844  80.262 113.363  0.00  0.00    -0.241 OA
ATOM     24  O   LIG d   1      -3.333  81.646 112.635  0.00  0.00    -0.241 OA
ENDBRANCH   3  22
TORSDOF 7
ENDMDL
MODEL 8
REMARK VINA RESULT:      -5.8      1.441      2.134
REMARK  7 active torsions:
REMARK  status: ('A' for Active; 'I' for Inactive)
REMARK    1  A    between atoms: C_2  and  C_3 
REMARK    2  A    between atoms: C_3  and  O_6 
REMARK    3  A    between atoms: C_3  and  C_4 
REMARK    4  A    between atoms: C_7  and  O_6 
REMARK    5  A    between atoms: C_9  and  C_10 
REMARK    6  A    between atoms: N_15  and  C_14 
REMARK    7  A    between atoms: N_20  and  C_19 
REMARK       I    between atoms: C_22  and  N_20 
ROOT
ATOM      1  C   LIG d   1       1.907  82.946 111.670  0.00  0.00     0.161 C 
ATOM      2  C   LIG d   1       2.885  82.696 110.693  0.00  0.00     0.016 C 
ATOM      3  C   LIG d   1       2.811  81.624 109.774  0.00  0.00     0.038 C 
ATOM      4  C   LIG d   1       1.671  80.813 109.671  0.00  0.00     0.028 C 
ATOM      5  C   LIG d   1       0.879  80.714 110.971  0.00  0.00    -0.047 C 
ATOM      6  C   LIG d   1       0.603  82.140 111.500  0.00  0.00     0.091 C 
ENDROOT
BRANCH   1   7
ATOM      7  O   LIG d   1       1.620  84.358 111.723  0.00  0.00    -0.368 OA
BRANCH   7   8
ATOM      8  C   LIG d   1       2.537  85.166 112.502  0.00  0.00     0.119 C 
BRANCH   8   9
ATOM      9  C   LIG d   1       1.720  85.852 113.614  0.00  0.00     0.028 C 
ATOM     10  C   LIG d   1       0.204  85.744 113.380  0.00  0.00     0.006 C 
ENDBRANCH   8   9
BRANCH   8  11
ATOM     11  C   LIG d   1       3.122  86.307 111.665  0.00  0.00     0.028 C 
ATOM     12  C   LIG d   1       4.141  87.155 112.443  0.00  0.00     0.006 C 
ENDBRANCH   8  11
ENDBRANCH   7   8
ENDBRANCH   1   7
BRANCH   6  13
ATOM     13  N   LIG d   1      -0.095  82.132 112.813  0.00  0.00    -0.311 N 
ATOM     14  C   LIG d   1      -1.415  82.252 112.942  0.00  0.00     0.210 C 
ATOM     15  C   LIG d   1      -1.927  82.239 114.386  0.00  0.00     0.109 C 
ATOM     16  O   LIG d   1      -2.214  82.335 111.997  0.00  0.00    -0.276 OA
ATOM     17  H   LIG d   1       0.474  82.037 113.631  0.00  0.00     0.149 HD
ENDBRANCH   6  13
BRANCH   5  18
ATOM     18  N   LIG d   1      -0.353  79.955 110.685  0.00  0.00     0.381 N 
ATOM     19  H   LIG d   1      -0.342  79.089 111.187  0.00  0.00    -0.090 HD
ATOM     20  H   LIG d   1      -0.388  79.749 109.702  0.00  0.00    -0.090 HD
ATOM     21  H   LIG d   1      -1.152  80.489 110.948  0.00  0.00    -0.090 HD
ENDBRANCH   5  18
BRANCH   3  22
ATOM     22  C   LIG d   1       3.903  81.329 108.972  0.00  0.00     0.382 C 
ATOM     23  O   LIG d   1       4.454  80.205 109.053  0.00  0.00    -0.241 OA
ATOM     24  O   LIG d   1       4.371  82.188 108.202  0.00  0.00    -0.241 OA
ENDBRANCH   3  22
TORSDOF 7
ENDMDL
MODEL 9
REMARK VINA RESULT:      -5.6      1.777      2.487
REMARK  7 active torsions:
REMARK  status: ('A' for Active; 'I' for Inactive)
REMARK    1  A    between atoms: C_2  and  C_3 
REMARK    2  A    between atoms: C_3  and  O_6 
REMARK    3  A    between atoms: C_3  and  C_4 
REMARK    4  A    between atoms: C_7  and  O_6 
REMARK    5  A    between atoms: C_9  and  C_10 
REMARK    6  A    between atoms: N_15  and  C_14 
REMARK    7  A    between atoms: N_20  and  C_19 
REMARK       I    between atoms: C_22  and  N_20 
ROOT
ATOM      1  C   LIG d   1      -0.267  83.318 112.007  0.00  0.00     0.161 C 
ATOM      2  C   LIG d   1       0.352  82.923 110.809  0.00  0.00     0.016 C 
ATOM      3  C   LIG d   1       0.585  81.572 110.463  0.00  0.00     0.038 C 
ATOM      4  C   LIG d   1       0.075  80.512 111.227  0.00  0.00     0.028 C 
ATOM      5  C   LIG d   1      -0.115  80.863 112.699  0.00  0.00    -0.047 C 
ATOM      6  C   LIG d   1      -0.929  82.173 112.801  0.00  0.00     0.091 C 
ENDROOT
BRANCH   1   7
ATOM      7  O   LIG d   1      -1.224  84.363 111.741  0.00  0.00    -0.368 OA
BRANCH   7   8
ATOM      8  C   LIG d   1      -0.852  85.694 112.176  0.00  0.00     0.119 C 
BRANCH   8   9
ATOM      9  C   LIG d   1      -0.420  86.485 110.927  0.00  0.00     0.028 C 
ATOM     10  C   LIG d   1      -1.229  86.098 109.678  0.00  0.00     0.006 C 
ENDBRANCH   8   9
BRANCH   8  11
ATOM     11  C   LIG d   1       0.383  85.660 113.082  0.00  0.00     0.028 C 
ATOM     12  C   LIG d   1       0.069  86.058 114.533  0.00  0.00     0.006 C 
ENDBRANCH   8  11
ENDBRANCH   7   8
ENDBRANCH   1   7
BRANCH   6  13
ATOM     13  N   LIG d   1      -1.088  82.633 114.206  0.00  0.00    -0.311 N 
ATOM     14  C   LIG d   1      -2.271  82.773 114.802  0.00  0.00     0.210 C 
ATOM     15  C   LIG d   1      -2.211  83.279 116.246  0.00  0.00     0.109 C 
ATOM     16  O   LIG d   1      -3.362  82.496 114.282  0.00  0.00    -0.276 OA
ATOM     17  H   LIG d   1      -0.252  82.851 114.712  0.00  0.00     0.149 HD
ENDBRANCH   6  13
BRANCH   5  18
ATOM     18  N   LIG d   1      -0.779  79.717 113.348  0.00  0.00     0.381 N 
ATOM     19  H   LIG d   1      -1.012  79.951 114.293  0.00  0.00    -0.090 HD
ATOM     20  H   LIG d   1      -0.144  78.939 113.363  0.00  0.00    -0.090 HD
ATOM     21  H   LIG d   1      -1.604  79.472 112.846  0.00  0.00    -0.090 HD
ENDBRANCH   5  18
BRANCH   3  22
ATOM     22  C   LIG d   1       1.370  81.271 109.360  0.00  0.00     0.382 C 
ATOM     23  O   LIG d   1       1.787  82.192 108.618  0.00  0.00    -0.241 OA
ATOM     24  O   LIG d   1       1.629  80.087 109.073  0.00  0.00    -0.241 OA
ENDBRANCH   3  22
TORSDOF 7
ENDMDL
