MODEL 1
REMARK VINA RESULT:      -6.2      0.000      0.000
REMARK  7 active torsions:
REMARK  status: ('A' for Active; 'I' for Inactive)
REMARK    1  A    between atoms: C_2  and  C_3 
REMARK    2  A    between atoms: C_3  and  O_6 
REMARK    3  A    between atoms: C_3  and  C_4 
REMARK    4  A    between atoms: C_7  and  O_6 
REMARK    5  A    between atoms: C_9  and  C_10 
REMARK    6  A    between atoms: N_15  and  C_14 
REMARK    7  A    between atoms: N_20  and  C_19 
REMARK       I    between atoms: C_22  and  N_20 
ROOT
ATOM      1  C   LIG d   1      -7.234  76.222 117.394  0.00  0.00     0.161 C 
ATOM      2  C   LIG d   1      -8.272  77.130 117.663  0.00  0.00     0.016 C 
ATOM      3  C   LIG d   1      -8.101  78.534 117.645  0.00  0.00     0.038 C 
ATOM      4  C   LIG d   1      -6.910  79.130 117.206  0.00  0.00     0.028 C 
ATOM      5  C   LIG d   1      -5.681  78.251 117.410  0.00  0.00    -0.047 C 
ATOM      6  C   LIG d   1      -5.957  76.855 116.805  0.00  0.00     0.091 C 
ENDROOT
BRANCH   1   7
ATOM      7  O   LIG d   1      -7.716  75.171 116.533  0.00  0.00    -0.368 OA
BRANCH   7   8
ATOM      8  C   LIG d   1      -7.948  73.887 117.162  0.00  0.00     0.119 C 
BRANCH   8   9
ATOM      9  C   LIG d   1      -6.919  72.896 116.586  0.00  0.00     0.028 C 
ATOM     10  C   LIG d   1      -7.584  71.724 115.845  0.00  0.00     0.006 C 
ENDBRANCH   8   9
BRANCH   8  11
ATOM     11  C   LIG d   1      -9.318  73.319 116.779  0.00  0.00     0.028 C 
ATOM     12  C   LIG d   1     -10.387  74.409 116.600  0.00  0.00     0.006 C 
ENDBRANCH   8  11
ENDBRANCH   7   8
ENDBRANCH   1   7
BRANCH   6  13
ATOM     13  N   LIG d   1      -4.837  75.906 117.036  0.00  0.00    -0.311 N 
ATOM     14  C   LIG d   1      -4.178  75.296 116.052  0.00  0.00     0.210 C 
ATOM     15  C   LIG d   1      -3.071  74.342 116.509  0.00  0.00     0.109 C 
ATOM     16  O   LIG d   1      -4.384  75.480 114.843  0.00  0.00    -0.276 OA
ATOM     17  H   LIG d   1      -4.583  75.723 117.987  0.00  0.00     0.149 HD
ENDBRANCH   6  13
BRANCH   5  18
ATOM     18  N   LIG d   1      -4.534  78.936 116.785  0.00  0.00     0.381 N 
ATOM     19  H   LIG d   1      -4.788  79.259 115.873  0.00  0.00    -0.090 HD
ATOM     20  H   LIG d   1      -3.777  78.281 116.689  0.00  0.00    -0.090 HD
ATOM     21  H   LIG d   1      -4.247  79.705 117.350  0.00  0.00    -0.090 HD
ENDBRANCH   5  18
BRANCH   3  22
ATOM     22  C   LIG d   1      -9.118  79.356 118.108  0.00  0.00     0.382 C 
ATOM     23  O   LIG d   1     -10.310  78.970 118.053  0.00  0.00    -0.241 OA
ATOM     24  O   LIG d   1      -8.861  80.496 118.539  0.00  0.00    -0.241 OA
ENDBRANCH   3  22
TORSDOF 7
ENDMDL
MODEL 2
REMARK VINA RESULT:      -6.0      1.587      5.018
REMARK  7 active torsions:
REMARK  status: ('A' for Active; 'I' for Inactive)
REMARK    1  A    between atoms: C_2  and  C_3 
REMARK    2  A    between atoms: C_3  and  O_6 
REMARK    3  A    between atoms: C_3  and  C_4 
REMARK    4  A    between atoms: C_7  and  O_6 
REMARK    5  A    between atoms: C_9  and  C_10 
REMARK    6  A    between atoms: N_15  and  C_14 
REMARK    7  A    between atoms: N_20  and  C_19 
REMARK       I    between atoms: C_22  and  N_20 
ROOT
ATOM      1  C   LIG d   1      -6.464  75.239 116.571  0.00  0.00     0.161 C 
ATOM      2  C   LIG d   1      -5.276  74.554 116.267  0.00  0.00     0.016 C 
ATOM      3  C   LIG d   1      -3.988  75.080 116.516  0.00  0.00     0.038 C 
ATOM      4  C   LIG d   1      -3.800  76.273 117.230  0.00  0.00     0.028 C 
ATOM      5  C   LIG d   1      -4.971  77.242 117.110  0.00  0.00    -0.047 C 
ATOM      6  C   LIG d   1      -6.280  76.493 117.452  0.00  0.00     0.091 C 
ENDROOT
BRANCH   1   7
ATOM      7  O   LIG d   1      -7.408  74.335 117.178  0.00  0.00    -0.368 OA
BRANCH   7   8
ATOM      8  C   LIG d   1      -8.249  73.586 116.267  0.00  0.00     0.119 C 
BRANCH   8   9
ATOM      9  C   LIG d   1      -9.695  73.674 116.792  0.00  0.00     0.028 C 
ATOM     10  C   LIG d   1     -10.266  75.100 116.701  0.00  0.00     0.006 C 
ENDBRANCH   8   9
BRANCH   8  11
ATOM     11  C   LIG d   1      -7.901  72.094 116.287  0.00  0.00     0.028 C 
ATOM     12  C   LIG d   1      -9.144  71.194 116.373  0.00  0.00     0.006 C 
ENDBRANCH   8  11
ENDBRANCH   7   8
ENDBRANCH   1   7
BRANCH   6  13
ATOM     13  N   LIG d   1      -7.484  77.346 117.277  0.00  0.00    -0.311 N 
ATOM     14  C   LIG d   1      -7.956  78.151 118.227  0.00  0.00     0.210 C 
ATOM     15  C   LIG d   1      -9.220  78.928 117.847  0.00  0.00     0.109 C 
ATOM     16  O   LIG d   1      -7.430  78.319 119.338  0.00  0.00    -0.276 OA
ATOM     17  H   LIG d   1      -7.954  77.296 116.395  0.00  0.00     0.149 HD
ENDBRANCH   6  13
BRANCH   5  18
ATOM     18  N   LIG d   1      -4.704  78.379 118.011  0.00  0.00     0.381 N 
ATOM     19  H   LIG d   1      -4.736  79.235 117.495  0.00  0.00    -0.090 HD
ATOM     20  H   LIG d   1      -3.781  78.278 118.397  0.00  0.00    -0.090 HD
ATOM     21  H   LIG d   1      -5.378  78.399 118.744  0.00  0.00    -0.090 HD
ENDBRANCH   5  18
BRANCH   3  22
ATOM     22  C   LIG d   1      -2.871  74.431 116.014  0.00  0.00     0.382 C 
ATOM     23  O   LIG d   1      -2.580  74.533 114.797  0.00  0.00    -0.241 OA
ATOM     24  O   LIG d   1      -2.175  73.708 116.752  0.00  0.00    -0.241 OA
ENDBRANCH   3  22
TORSDOF 7
ENDMDL
MODEL 3
REMARK VINA RESULT:      -5.7      2.584      5.517
REMARK  7 active torsions:
REMARK  status: ('A' for Active; 'I' for Inactive)
REMARK    1  A    between atoms: C_2  and  C_3 
REMARK    2  A    between atoms: C_3  and  O_6 
REMARK    3  A    between atoms: C_3  and  C_4 
REMARK    4  A    between atoms: C_7  and  O_6 
REMARK    5  A    between atoms: C_9  and  C_10 
REMARK    6  A    between atoms: N_15  and  C_14 
REMARK    7  A    between atoms: N_20  and  C_19 
REMARK       I    between atoms: C_22  and  N_20 
ROOT
ATOM      1  C   LIG d   1      -5.506  74.725 116.432  0.00  0.00     0.161 C 
ATOM      2  C   LIG d   1      -6.169  73.528 116.112  0.00  0.00     0.016 C 
ATOM      3  C   LIG d   1      -7.576  73.399 116.094  0.00  0.00     0.038 C 
ATOM      4  C   LIG d   1      -8.424  74.506 116.250  0.00  0.00     0.028 C 
ATOM      5  C   LIG d   1      -7.807  75.631 117.074  0.00  0.00    -0.047 C 
ATOM      6  C   LIG d   1      -6.415  75.970 116.496  0.00  0.00     0.091 C 
ENDROOT
BRANCH   1   7
ATOM      7  O   LIG d   1      -4.420  74.944 115.510  0.00  0.00    -0.368 OA
BRANCH   7   8
ATOM      8  C   LIG d   1      -3.145  74.362 115.877  0.00  0.00     0.119 C 
BRANCH   8   9
ATOM      9  C   LIG d   1      -2.750  74.940 117.250  0.00  0.00     0.028 C 
ATOM     10  C   LIG d   1      -1.729  74.057 117.987  0.00  0.00     0.006 C 
ENDBRANCH   8   9
BRANCH   8  11
ATOM     11  C   LIG d   1      -2.035  74.800 114.918  0.00  0.00     0.028 C 
ATOM     12  C   LIG d   1      -1.988  76.323 114.718  0.00  0.00     0.006 C 
ENDBRANCH   8  11
ENDBRANCH   7   8
ENDBRANCH   1   7
BRANCH   6  13
ATOM     13  N   LIG d   1      -5.706  77.004 117.295  0.00  0.00    -0.311 N 
ATOM     14  C   LIG d   1      -5.018  78.007 116.752  0.00  0.00     0.210 C 
ATOM     15  C   LIG d   1      -4.347  78.949 117.756  0.00  0.00     0.109 C 
ATOM     16  O   LIG d   1      -4.927  78.224 115.535  0.00  0.00    -0.276 OA
ATOM     17  H   LIG d   1      -5.754  76.922 118.292  0.00  0.00     0.149 HD
ENDBRANCH   6  13
BRANCH   5  18
ATOM     18  N   LIG d   1      -8.742  76.772 117.040  0.00  0.00     0.381 N 
ATOM     19  H   LIG d   1      -8.377  77.490 116.447  0.00  0.00    -0.090 HD
ATOM     20  H   LIG d   1      -8.832  77.145 117.969  0.00  0.00    -0.090 HD
ATOM     21  H   LIG d   1      -9.631  76.474 116.706  0.00  0.00    -0.090 HD
ENDBRANCH   5  18
BRANCH   3  22
ATOM     22  C   LIG d   1      -8.150  72.144 115.958  0.00  0.00     0.382 C 
ATOM     23  O   LIG d   1      -7.427  71.148 115.712  0.00  0.00    -0.241 OA
ATOM     24  O   LIG d   1      -9.385  72.002 116.035  0.00  0.00    -0.241 OA
ENDBRANCH   3  22
TORSDOF 7
ENDMDL
MODEL 4
REMARK VINA RESULT:      -5.7     13.673     16.452
REMARK  7 active torsions:
REMARK  status: ('A' for Active; 'I' for Inactive)
REMARK    1  A    between atoms: C_2  and  C_3 
REMARK    2  A    between atoms: C_3  and  O_6 
REMARK    3  A    between atoms: C_3  and  C_4 
REMARK    4  A    between atoms: C_7  and  O_6 
REMARK    5  A    between atoms: C_9  and  C_10 
REMARK    6  A    between atoms: N_15  and  C_14 
REMARK    7  A    between atoms: N_20  and  C_19 
REMARK       I    between atoms: C_22  and  N_20 
ROOT
ATOM      1  C   LIG d   1      -5.597  92.497 118.009  0.00  0.00     0.161 C 
ATOM      2  C   LIG d   1      -6.152  93.617 118.652  0.00  0.00     0.016 C 
ATOM      3  C   LIG d   1      -7.289  94.305 118.171  0.00  0.00     0.038 C 
ATOM      4  C   LIG d   1      -8.045  93.826 117.090  0.00  0.00     0.028 C 
ATOM      5  C   LIG d   1      -7.233  92.988 116.108  0.00  0.00    -0.047 C 
ATOM      6  C   LIG d   1      -6.473  91.893 116.891  0.00  0.00     0.091 C 
ENDROOT
BRANCH   1   7
ATOM      7  O   LIG d   1      -5.265  91.489 118.984  0.00  0.00    -0.368 OA
BRANCH   7   8
ATOM      8  C   LIG d   1      -3.853  91.222 119.168  0.00  0.00     0.119 C 
BRANCH   8   9
ATOM      9  C   LIG d   1      -3.074  92.222 118.292  0.00  0.00     0.028 C 
ATOM     10  C   LIG d   1      -2.011  92.997 119.088  0.00  0.00     0.006 C 
ENDBRANCH   8   9
BRANCH   8  11
ATOM     11  C   LIG d   1      -3.474  89.837 118.636  0.00  0.00     0.028 C 
ATOM     12  C   LIG d   1      -2.438  89.122 119.518  0.00  0.00     0.006 C 
ENDBRANCH   8  11
ENDBRANCH   7   8
ENDBRANCH   1   7
BRANCH   6  13
ATOM     13  N   LIG d   1      -5.588  91.081 116.016  0.00  0.00    -0.311 N 
ATOM     14  C   LIG d   1      -5.766  89.779 115.799  0.00  0.00     0.210 C 
ATOM     15  C   LIG d   1      -4.728  89.129 114.879  0.00  0.00     0.109 C 
ATOM     16  O   LIG d   1      -6.704  89.108 116.255  0.00  0.00    -0.276 OA
ATOM     17  H   LIG d   1      -4.820  91.553 115.581  0.00  0.00     0.149 HD
ENDBRANCH   6  13
BRANCH   5  18
ATOM     18  N   LIG d   1      -8.170  92.440 115.110  0.00  0.00     0.381 N 
ATOM     19  H   LIG d   1      -8.549  93.183 114.557  0.00  0.00    -0.090 HD
ATOM     20  H   LIG d   1      -8.927  91.986 115.589  0.00  0.00    -0.090 HD
ATOM     21  H   LIG d   1      -7.699  91.787 114.523  0.00  0.00    -0.090 HD
ENDBRANCH   5  18
BRANCH   3  22
ATOM     22  C   LIG d   1      -7.659  95.510 118.750  0.00  0.00     0.382 C 
ATOM     23  O   LIG d   1      -7.588  96.572 118.086  0.00  0.00    -0.241 OA
ATOM     24  O   LIG d   1      -8.020  95.554 119.941  0.00  0.00    -0.241 OA
ENDBRANCH   3  22
TORSDOF 7
ENDMDL
MODEL 5
REMARK VINA RESULT:      -5.4     13.762     16.523
REMARK  7 active torsions:
REMARK  status: ('A' for Active; 'I' for Inactive)
REMARK    1  A    between atoms: C_2  and  C_3 
REMARK    2  A    between atoms: C_3  and  O_6 
REMARK    3  A    between atoms: C_3  and  C_4 
REMARK    4  A    between atoms: C_7  and  O_6 
REMARK    5  A    between atoms: C_9  and  C_10 
REMARK    6  A    between atoms: N_15  and  C_14 
REMARK    7  A    between atoms: N_20  and  C_19 
REMARK       I    between atoms: C_22  and  N_20 
ROOT
ATOM      1  C   LIG d   1      -5.387  92.759 117.340  0.00  0.00     0.161 C 
ATOM      2  C   LIG d   1      -6.440  91.903 116.978  0.00  0.00     0.016 C 
ATOM      3  C   LIG d   1      -6.246  90.568 116.552  0.00  0.00     0.038 C 
ATOM      4  C   LIG d   1      -4.989  89.948 116.604  0.00  0.00     0.028 C 
ATOM      5  C   LIG d   1      -3.825  90.927 116.483  0.00  0.00    -0.047 C 
ATOM      6  C   LIG d   1      -4.018  92.066 117.510  0.00  0.00     0.091 C 
ENDROOT
BRANCH   1   7
ATOM      7  O   LIG d   1      -5.734  93.481 118.538  0.00  0.00    -0.368 OA
BRANCH   7   8
ATOM      8  C   LIG d   1      -6.789  92.904 119.347  0.00  0.00     0.119 C 
BRANCH   8   9
ATOM      9  C   LIG d   1      -7.693  94.058 119.821  0.00  0.00     0.028 C 
ATOM     10  C   LIG d   1      -7.474  95.346 119.010  0.00  0.00     0.006 C 
ENDBRANCH   8   9
BRANCH   8  11
ATOM     11  C   LIG d   1      -6.229  92.275 120.627  0.00  0.00     0.028 C 
ATOM     12  C   LIG d   1      -7.174  92.430 121.829  0.00  0.00     0.006 C 
ENDBRANCH   8  11
ENDBRANCH   7   8
ENDBRANCH   1   7
BRANCH   6  13
ATOM     13  N   LIG d   1      -2.968  93.111 117.401  0.00  0.00    -0.311 N 
ATOM     14  C   LIG d   1      -1.880  93.140 118.169  0.00  0.00     0.210 C 
ATOM     15  C   LIG d   1      -0.934  94.316 117.906  0.00  0.00     0.109 C 
ATOM     16  O   LIG d   1      -1.593  92.286 119.022  0.00  0.00    -0.276 OA
ATOM     17  H   LIG d   1      -3.105  93.826 116.713  0.00  0.00     0.149 HD
ENDBRANCH   6  13
BRANCH   5  18
ATOM     18  N   LIG d   1      -2.579  90.165 116.691  0.00  0.00     0.381 N 
ATOM     19  H   LIG d   1      -2.250  89.809 115.816  0.00  0.00    -0.090 HD
ATOM     20  H   LIG d   1      -2.771  89.387 117.297  0.00  0.00    -0.090 HD
ATOM     21  H   LIG d   1      -1.886  90.751 117.102  0.00  0.00    -0.090 HD
ENDBRANCH   5  18
BRANCH   3  22
ATOM     22  C   LIG d   1      -7.312  89.852 116.029  0.00  0.00     0.382 C 
ATOM     23  O   LIG d   1      -7.899  90.264 114.999  0.00  0.00    -0.241 OA
ATOM     24  O   LIG d   1      -7.723  88.824 116.600  0.00  0.00    -0.241 OA
ENDBRANCH   3  22
TORSDOF 7
ENDMDL
MODEL 6
REMARK VINA RESULT:      -5.3     14.083     16.746
REMARK  7 active torsions:
REMARK  status: ('A' for Active; 'I' for Inactive)
REMARK    1  A    between atoms: C_2  and  C_3 
REMARK    2  A    between atoms: C_3  and  O_6 
REMARK    3  A    between atoms: C_3  and  C_4 
REMARK    4  A    between atoms: C_7  and  O_6 
REMARK    5  A    between atoms: C_9  and  C_10 
REMARK    6  A    between atoms: N_15  and  C_14 
REMARK    7  A    between atoms: N_20  and  C_19 
REMARK       I    between atoms: C_22  and  N_20 
ROOT
ATOM      1  C   LIG d   1      -5.818  91.686 118.832  0.00  0.00     0.161 C 
ATOM      2  C   LIG d   1      -5.957  90.684 117.856  0.00  0.00     0.016 C 
ATOM      3  C   LIG d   1      -6.781  90.819 116.715  0.00  0.00     0.038 C 
ATOM      4  C   LIG d   1      -7.409  92.031 116.393  0.00  0.00     0.028 C 
ATOM      5  C   LIG d   1      -7.703  92.903 117.609  0.00  0.00    -0.047 C 
ATOM      6  C   LIG d   1      -6.409  93.056 118.440  0.00  0.00     0.091 C 
ENDROOT
BRANCH   1   7
ATOM      7  O   LIG d   1      -4.431  91.823 119.197  0.00  0.00    -0.368 OA
BRANCH   7   8
ATOM      8  C   LIG d   1      -3.466  91.523 118.159  0.00  0.00     0.119 C 
BRANCH   8   9
ATOM      9  C   LIG d   1      -2.316  90.730 118.811  0.00  0.00     0.028 C 
ATOM     10  C   LIG d   1      -2.640  89.233 118.948  0.00  0.00     0.006 C 
ENDBRANCH   8   9
BRANCH   8  11
ATOM     11  C   LIG d   1      -2.819  92.799 117.613  0.00  0.00     0.028 C 
ATOM     12  C   LIG d   1      -1.780  93.399 118.573  0.00  0.00     0.006 C 
ENDBRANCH   8  11
ENDBRANCH   7   8
ENDBRANCH   1   7
BRANCH   6  13
ATOM     13  N   LIG d   1      -6.628  93.826 119.693  0.00  0.00    -0.311 N 
ATOM     14  C   LIG d   1      -5.848  94.834 120.080  0.00  0.00     0.210 C 
ATOM     15  C   LIG d   1      -6.239  95.479 121.413  0.00  0.00     0.109 C 
ATOM     16  O   LIG d   1      -4.889  95.277 119.429  0.00  0.00    -0.276 OA
ATOM     17  H   LIG d   1      -7.403  93.554 120.266  0.00  0.00     0.149 HD
ENDBRANCH   6  13
BRANCH   5  18
ATOM     18  N   LIG d   1      -8.230  94.190 117.117  0.00  0.00     0.381 N 
ATOM     19  H   LIG d   1      -7.975  94.924 117.748  0.00  0.00    -0.090 HD
ATOM     20  H   LIG d   1      -9.233  94.138 117.082  0.00  0.00    -0.090 HD
ATOM     21  H   LIG d   1      -7.868  94.382 116.209  0.00  0.00    -0.090 HD
ENDBRANCH   5  18
BRANCH   3  22
ATOM     22  C   LIG d   1      -7.015  89.719 115.903  0.00  0.00     0.382 C 
ATOM     23  O   LIG d   1      -8.050  89.030 116.064  0.00  0.00    -0.241 OA
ATOM     24  O   LIG d   1      -6.181  89.382 115.041  0.00  0.00    -0.241 OA
ENDBRANCH   3  22
TORSDOF 7
ENDMDL
MODEL 7
REMARK VINA RESULT:      -5.1     14.164     16.627
REMARK  7 active torsions:
REMARK  status: ('A' for Active; 'I' for Inactive)
REMARK    1  A    between atoms: C_2  and  C_3 
REMARK    2  A    between atoms: C_3  and  O_6 
REMARK    3  A    between atoms: C_3  and  C_4 
REMARK    4  A    between atoms: C_7  and  O_6 
REMARK    5  A    between atoms: C_9  and  C_10 
REMARK    6  A    between atoms: N_15  and  C_14 
REMARK    7  A    between atoms: N_20  and  C_19 
REMARK       I    between atoms: C_22  and  N_20 
ROOT
ATOM      1  C   LIG d   1      -4.642  91.505 118.792  0.00  0.00     0.161 C 
ATOM      2  C   LIG d   1      -5.281  90.730 117.809  0.00  0.00     0.016 C 
ATOM      3  C   LIG d   1      -6.285  91.235 116.952  0.00  0.00     0.038 C 
ATOM      4  C   LIG d   1      -6.614  92.598 116.917  0.00  0.00     0.028 C 
ATOM      5  C   LIG d   1      -6.356  93.317 118.237  0.00  0.00    -0.047 C 
ATOM      6  C   LIG d   1      -4.909  93.021 118.694  0.00  0.00     0.091 C 
ENDROOT
BRANCH   1   7
ATOM      7  O   LIG d   1      -3.225  91.243 118.775  0.00  0.00    -0.368 OA
BRANCH   7   8
ATOM      8  C   LIG d   1      -2.720  90.396 119.837  0.00  0.00     0.119 C 
BRANCH   8   9
ATOM      9  C   LIG d   1      -1.302  90.887 120.186  0.00  0.00     0.028 C 
ATOM     10  C   LIG d   1      -1.182  92.420 120.137  0.00  0.00     0.006 C 
ENDBRANCH   8   9
BRANCH   8  11
ATOM     11  C   LIG d   1      -2.544  88.951 119.361  0.00  0.00     0.028 C 
ATOM     12  C   LIG d   1      -2.081  88.858 117.898  0.00  0.00     0.006 C 
ENDBRANCH   8  11
ENDBRANCH   7   8
ENDBRANCH   1   7
BRANCH   6  13
ATOM     13  N   LIG d   1      -4.600  93.618 120.020  0.00  0.00    -0.311 N 
ATOM     14  C   LIG d   1      -4.006  94.801 120.170  0.00  0.00     0.210 C 
ATOM     15  C   LIG d   1      -3.762  95.221 121.623  0.00  0.00     0.109 C 
ATOM     16  O   LIG d   1      -3.687  95.556 119.240  0.00  0.00    -0.276 OA
ATOM     17  H   LIG d   1      -4.853  93.087 120.829  0.00  0.00     0.149 HD
ENDBRANCH   6  13
BRANCH   5  18
ATOM     18  N   LIG d   1      -6.611  94.754 118.019  0.00  0.00     0.381 N 
ATOM     19  H   LIG d   1      -7.003  95.157 118.846  0.00  0.00    -0.090 HD
ATOM     20  H   LIG d   1      -7.275  94.856 117.272  0.00  0.00    -0.090 HD
ATOM     21  H   LIG d   1      -5.762  95.219 117.784  0.00  0.00    -0.090 HD
ENDBRANCH   5  18
BRANCH   3  22
ATOM     22  C   LIG d   1      -7.000  90.364 116.144  0.00  0.00     0.382 C 
ATOM     23  O   LIG d   1      -7.708  90.813 115.210  0.00  0.00    -0.241 OA
ATOM     24  O   LIG d   1      -6.982  89.138 116.364  0.00  0.00    -0.241 OA
ENDBRANCH   3  22
TORSDOF 7
ENDMDL
MODEL 8
REMARK VINA RESULT:      -5.0     14.094     16.538
REMARK  7 active torsions:
REMARK  status: ('A' for Active; 'I' for Inactive)
REMARK    1  A    between atoms: C_2  and  C_3 
REMARK    2  A    between atoms: C_3  and  O_6 
REMARK    3  A    between atoms: C_3  and  C_4 
REMARK    4  A    between atoms: C_7  and  O_6 
REMARK    5  A    between atoms: C_9  and  C_10 
REMARK    6  A    between atoms: N_15  and  C_14 
REMARK    7  A    between atoms: N_20  and  C_19 
REMARK       I    between atoms: C_22  and  N_20 
ROOT
ATOM      1  C   LIG d   1      -3.306  91.258 117.546  0.00  0.00     0.161 C 
ATOM      2  C   LIG d   1      -3.748  90.374 116.548  0.00  0.00     0.016 C 
ATOM      3  C   LIG d   1      -4.964  90.539 115.846  0.00  0.00     0.038 C 
ATOM      4  C   LIG d   1      -5.753  91.690 115.990  0.00  0.00     0.028 C 
ATOM      5  C   LIG d   1      -5.602  92.362 117.351  0.00  0.00    -0.047 C 
ATOM      6  C   LIG d   1      -4.099  92.578 117.639  0.00  0.00     0.091 C 
ENDROOT
BRANCH   1   7
ATOM      7  O   LIG d   1      -1.901  91.529 117.371  0.00  0.00    -0.368 OA
BRANCH   7   8
ATOM      8  C   LIG d   1      -0.989  90.595 118.000  0.00  0.00     0.119 C 
BRANCH   8   9
ATOM      9  C   LIG d   1      -1.364  90.515 119.493  0.00  0.00     0.028 C 
ATOM     10  C   LIG d   1      -1.630  89.073 119.954  0.00  0.00     0.006 C 
ENDBRANCH   8   9
BRANCH   8  11
ATOM     11  C   LIG d   1       0.451  91.117 117.971  0.00  0.00     0.028 C 
ATOM     12  C   LIG d   1       0.545  92.621 118.274  0.00  0.00     0.006 C 
ENDBRANCH   8  11
ENDBRANCH   7   8
ENDBRANCH   1   7
BRANCH   6  13
ATOM     13  N   LIG d   1      -3.857  93.154 118.987  0.00  0.00    -0.311 N 
ATOM     14  C   LIG d   1      -2.992  94.139 119.220  0.00  0.00     0.210 C 
ATOM     15  C   LIG d   1      -2.881  94.571 120.685  0.00  0.00     0.109 C 
ATOM     16  O   LIG d   1      -2.328  94.719 118.346  0.00  0.00    -0.276 OA
ATOM     17  H   LIG d   1      -4.377  92.764 119.750  0.00  0.00     0.149 HD
ENDBRANCH   6  13
BRANCH   5  18
ATOM     18  N   LIG d   1      -6.371  93.620 117.315  0.00  0.00     0.381 N 
ATOM     19  H   LIG d   1      -7.274  93.454 116.916  0.00  0.00    -0.090 HD
ATOM     20  H   LIG d   1      -5.886  94.281 116.733  0.00  0.00    -0.090 HD
ATOM     21  H   LIG d   1      -6.469  93.986 118.236  0.00  0.00    -0.090 HD
ENDBRANCH   5  18
BRANCH   3  22
ATOM     22  C   LIG d   1      -5.422  89.526 115.017  0.00  0.00     0.382 C 
ATOM     23  O   LIG d   1      -6.647  89.429 114.764  0.00  0.00    -0.241 OA
ATOM     24  O   LIG d   1      -4.632  88.682 114.555  0.00  0.00    -0.241 OA
ENDBRANCH   3  22
TORSDOF 7
ENDMDL
MODEL 9
REMARK VINA RESULT:      -5.0      2.054      4.818
REMARK  7 active torsions:
REMARK  status: ('A' for Active; 'I' for Inactive)
REMARK    1  A    between atoms: C_2  and  C_3 
REMARK    2  A    between atoms: C_3  and  O_6 
REMARK    3  A    between atoms: C_3  and  C_4 
REMARK    4  A    between atoms: C_7  and  O_6 
REMARK    5  A    between atoms: C_9  and  C_10 
REMARK    6  A    between atoms: N_15  and  C_14 
REMARK    7  A    between atoms: N_20  and  C_19 
REMARK       I    between atoms: C_22  and  N_20 
ROOT
ATOM      1  C   LIG d   1      -7.113  77.131 116.672  0.00  0.00     0.161 C 
ATOM      2  C   LIG d   1      -8.406  76.605 116.828  0.00  0.00     0.016 C 
ATOM      3  C   LIG d   1      -8.686  75.220 116.844  0.00  0.00     0.038 C 
ATOM      4  C   LIG d   1      -7.666  74.257 116.856  0.00  0.00     0.028 C 
ATOM      5  C   LIG d   1      -6.378  74.731 116.191  0.00  0.00    -0.047 C 
ATOM      6  C   LIG d   1      -5.975  76.096 116.795  0.00  0.00     0.091 C 
ENDROOT
BRANCH   1   7
ATOM      7  O   LIG d   1      -6.909  78.212 117.603  0.00  0.00    -0.368 OA
BRANCH   7   8
ATOM      8  C   LIG d   1      -8.088  78.682 118.302  0.00  0.00     0.119 C 
BRANCH   8   9
ATOM      9  C   LIG d   1      -8.425  80.082 117.753  0.00  0.00     0.028 C 
ATOM     10  C   LIG d   1      -7.170  80.942 117.529  0.00  0.00     0.006 C 
ENDBRANCH   8   9
BRANCH   8  11
ATOM     11  C   LIG d   1      -7.805  78.888 119.793  0.00  0.00     0.028 C 
ATOM     12  C   LIG d   1      -8.923  79.663 120.510  0.00  0.00     0.006 C 
ENDBRANCH   8  11
ENDBRANCH   7   8
ENDBRANCH   1   7
BRANCH   6  13
ATOM     13  N   LIG d   1      -4.771  76.671 116.141  0.00  0.00    -0.311 N 
ATOM     14  C   LIG d   1      -3.601  76.820 116.760  0.00  0.00     0.210 C 
ATOM     15  C   LIG d   1      -2.495  77.453 115.909  0.00  0.00     0.109 C 
ATOM     16  O   LIG d   1      -3.365  76.459 117.923  0.00  0.00    -0.276 OA
ATOM     17  H   LIG d   1      -4.865  76.962 115.188  0.00  0.00     0.149 HD
ENDBRANCH   6  13
BRANCH   5  18
ATOM     18  N   LIG d   1      -5.359  73.684 116.396  0.00  0.00     0.381 N 
ATOM     19  H   LIG d   1      -5.103  73.646 117.362  0.00  0.00    -0.090 HD
ATOM     20  H   LIG d   1      -4.541  73.918 115.862  0.00  0.00    -0.090 HD
ATOM     21  H   LIG d   1      -5.715  72.801 116.104  0.00  0.00    -0.090 HD
ENDBRANCH   5  18
BRANCH   3  22
ATOM     22  C   LIG d   1     -10.002  74.784 116.808  0.00  0.00     0.382 C 
ATOM     23  O   LIG d   1     -10.935  75.587 117.053  0.00  0.00    -0.241 OA
ATOM     24  O   LIG d   1     -10.266  73.589 116.578  0.00  0.00    -0.241 OA
ENDBRANCH   3  22
TORSDOF 7
ENDMDL
