MODEL 1
REMARK VINA RESULT:      -5.5      0.000      0.000
REMARK  7 active torsions:
REMARK  status: ('A' for Active; 'I' for Inactive)
REMARK    1  A    between atoms: C_2  and  C_3 
REMARK    2  A    between atoms: C_3  and  O_6 
REMARK    3  A    between atoms: C_3  and  C_4 
REMARK    4  A    between atoms: C_7  and  O_6 
REMARK    5  A    between atoms: C_9  and  C_10 
REMARK    6  A    between atoms: N_15  and  C_14 
REMARK    7  A    between atoms: N_20  and  C_19 
REMARK       I    between atoms: C_22  and  N_20 
ROOT
ATOM      1  C   LIG d   1      -8.205  75.077 117.968  0.00  0.00     0.161 C 
ATOM      2  C   LIG d   1      -9.426  75.717 118.239  0.00  0.00     0.016 C 
ATOM      3  C   LIG d   1      -9.581  77.123 118.255  0.00  0.00     0.038 C 
ATOM      4  C   LIG d   1      -8.553  77.987 117.850  0.00  0.00     0.028 C 
ATOM      5  C   LIG d   1      -7.158  77.407 118.056  0.00  0.00    -0.047 C 
ATOM      6  C   LIG d   1      -7.099  76.001 117.415  0.00  0.00     0.091 C 
ENDROOT
BRANCH   1   7
ATOM      7  O   LIG d   1      -8.423  73.967 117.075  0.00  0.00    -0.368 OA
BRANCH   7   8
ATOM      8  C   LIG d   1      -8.499  72.658 117.693  0.00  0.00     0.119 C 
BRANCH   8   9
ATOM      9  C   LIG d   1      -7.655  71.693 116.837  0.00  0.00     0.028 C 
ATOM     10  C   LIG d   1      -6.897  72.417 115.712  0.00  0.00     0.006 C 
ENDBRANCH   8   9
BRANCH   8  11
ATOM     11  C   LIG d   1      -9.925  72.102 117.645  0.00  0.00     0.028 C 
ATOM     12  C   LIG d   1      -9.976  70.632 117.197  0.00  0.00     0.006 C 
ENDBRANCH   8  11
ENDBRANCH   7   8
ENDBRANCH   1   7
BRANCH   6  13
ATOM     13  N   LIG d   1      -5.794  75.327 117.645  0.00  0.00    -0.311 N 
ATOM     14  C   LIG d   1      -4.796  75.344 116.763  0.00  0.00     0.210 C 
ATOM     15  C   LIG d   1      -3.545  74.570 117.189  0.00  0.00     0.109 C 
ATOM     16  O   LIG d   1      -4.816  75.953 115.683  0.00  0.00    -0.276 OA
ATOM     17  H   LIG d   1      -5.681  74.836 118.509  0.00  0.00     0.149 HD
ENDBRANCH   6  13
BRANCH   5  18
ATOM     18  N   LIG d   1      -6.190  78.351 117.466  0.00  0.00     0.381 N 
ATOM     19  H   LIG d   1      -5.360  78.378 118.024  0.00  0.00    -0.090 HD
ATOM     20  H   LIG d   1      -6.596  79.271 117.461  0.00  0.00    -0.090 HD
ATOM     21  H   LIG d   1      -5.966  78.074 116.536  0.00  0.00    -0.090 HD
ENDBRANCH   5  18
BRANCH   3  22
ATOM     22  C   LIG d   1     -10.764  77.678 118.718  0.00  0.00     0.382 C 
ATOM     23  O   LIG d   1     -11.815  76.993 118.730  0.00  0.00    -0.241 OA
ATOM     24  O   LIG d   1     -10.803  78.869 119.081  0.00  0.00    -0.241 OA
ENDBRANCH   3  22
TORSDOF 7
ENDMDL
MODEL 2
REMARK VINA RESULT:      -5.4     17.096     19.718
REMARK  7 active torsions:
REMARK  status: ('A' for Active; 'I' for Inactive)
REMARK    1  A    between atoms: C_2  and  C_3 
REMARK    2  A    between atoms: C_3  and  O_6 
REMARK    3  A    between atoms: C_3  and  C_4 
REMARK    4  A    between atoms: C_7  and  O_6 
REMARK    5  A    between atoms: C_9  and  C_10 
REMARK    6  A    between atoms: N_15  and  C_14 
REMARK    7  A    between atoms: N_20  and  C_19 
REMARK       I    between atoms: C_22  and  N_20 
ROOT
ATOM      1  C   LIG d   1       0.376  57.612 118.354  0.00  0.00     0.161 C 
ATOM      2  C   LIG d   1       0.245  58.533 117.301  0.00  0.00     0.016 C 
ATOM      3  C   LIG d   1      -0.776  58.461 116.326  0.00  0.00     0.038 C 
ATOM      4  C   LIG d   1      -1.832  57.543 116.425  0.00  0.00     0.028 C 
ATOM      5  C   LIG d   1      -1.462  56.275 117.188  0.00  0.00    -0.047 C 
ATOM      6  C   LIG d   1      -0.831  56.670 118.542  0.00  0.00     0.091 C 
ENDROOT
BRANCH   1   7
ATOM      7  O   LIG d   1       0.663  58.311 119.582  0.00  0.00    -0.368 OA
BRANCH   7   8
ATOM      8  C   LIG d   1      -0.484  58.711 120.370  0.00  0.00     0.119 C 
BRANCH   8   9
ATOM      9  C   LIG d   1      -0.704  60.218 120.136  0.00  0.00     0.028 C 
ATOM     10  C   LIG d   1      -2.041  60.515 119.436  0.00  0.00     0.006 C 
ENDBRANCH   8   9
BRANCH   8  11
ATOM     11  C   LIG d   1      -0.207  58.571 121.870  0.00  0.00     0.028 C 
ATOM     12  C   LIG d   1       0.156  59.907 122.537  0.00  0.00     0.006 C 
ENDBRANCH   8  11
ENDBRANCH   7   8
ENDBRANCH   1   7
BRANCH   6  13
ATOM     13  N   LIG d   1      -0.364  55.490 119.316  0.00  0.00    -0.311 N 
ATOM     14  C   LIG d   1      -1.084  54.909 120.273  0.00  0.00     0.210 C 
ATOM     15  C   LIG d   1      -0.408  53.718 120.959  0.00  0.00     0.109 C 
ATOM     16  O   LIG d   1      -2.233  55.246 120.598  0.00  0.00    -0.276 OA
ATOM     17  H   LIG d   1       0.545  55.131 119.096  0.00  0.00     0.149 HD
ENDBRANCH   6  13
BRANCH   5  18
ATOM     18  N   LIG d   1      -2.690  55.470 117.335  0.00  0.00     0.381 N 
ATOM     19  H   LIG d   1      -3.460  55.946 116.910  0.00  0.00    -0.090 HD
ATOM     20  H   LIG d   1      -2.890  55.358 118.314  0.00  0.00    -0.090 HD
ATOM     21  H   LIG d   1      -2.565  54.577 116.910  0.00  0.00    -0.090 HD
ENDBRANCH   5  18
BRANCH   3  22
ATOM     22  C   LIG d   1      -0.724  59.288 115.214  0.00  0.00     0.382 C 
ATOM     23  O   LIG d   1      -1.754  59.898 114.839  0.00  0.00    -0.241 OA
ATOM     24  O   LIG d   1       0.327  59.396 114.556  0.00  0.00    -0.241 OA
ENDBRANCH   3  22
TORSDOF 7
ENDMDL
MODEL 3
REMARK VINA RESULT:      -5.4     17.775     20.250
REMARK  7 active torsions:
REMARK  status: ('A' for Active; 'I' for Inactive)
REMARK    1  A    between atoms: C_2  and  C_3 
REMARK    2  A    between atoms: C_3  and  O_6 
REMARK    3  A    between atoms: C_3  and  C_4 
REMARK    4  A    between atoms: C_7  and  O_6 
REMARK    5  A    between atoms: C_9  and  C_10 
REMARK    6  A    between atoms: N_15  and  C_14 
REMARK    7  A    between atoms: N_20  and  C_19 
REMARK       I    between atoms: C_22  and  N_20 
ROOT
ATOM      1  C   LIG d   1       0.985  58.043 117.854  0.00  0.00     0.161 C 
ATOM      2  C   LIG d   1      -0.034  58.889 117.385  0.00  0.00     0.016 C 
ATOM      3  C   LIG d   1      -1.148  58.429 116.645  0.00  0.00     0.038 C 
ATOM      4  C   LIG d   1      -1.397  57.062 116.453  0.00  0.00     0.028 C 
ATOM      5  C   LIG d   1      -0.135  56.207 116.473  0.00  0.00    -0.047 C 
ATOM      6  C   LIG d   1       0.673  56.535 117.749  0.00  0.00     0.091 C 
ENDROOT
BRANCH   1   7
ATOM      7  O   LIG d   1       1.324  58.392 119.211  0.00  0.00    -0.368 OA
BRANCH   7   8
ATOM      8  C   LIG d   1       2.307  59.443 119.372  0.00  0.00     0.119 C 
BRANCH   8   9
ATOM      9  C   LIG d   1       3.610  58.966 118.700  0.00  0.00     0.028 C 
ATOM     10  C   LIG d   1       4.401  57.987 119.584  0.00  0.00     0.006 C 
ENDBRANCH   8   9
BRANCH   8  11
ATOM     11  C   LIG d   1       2.664  59.651 120.847  0.00  0.00     0.028 C 
ATOM     12  C   LIG d   1       1.458  60.079 121.697  0.00  0.00     0.006 C 
ENDBRANCH   8  11
ENDBRANCH   7   8
ENDBRANCH   1   7
BRANCH   6  13
ATOM     13  N   LIG d   1       1.966  55.804 117.806  0.00  0.00    -0.311 N 
ATOM     14  C   LIG d   1       2.304  54.989 118.804  0.00  0.00     0.210 C 
ATOM     15  C   LIG d   1       3.690  54.350 118.676  0.00  0.00     0.109 C 
ATOM     16  O   LIG d   1       1.574  54.710 119.767  0.00  0.00    -0.276 OA
ATOM     17  H   LIG d   1       2.605  55.948 117.049  0.00  0.00     0.149 HD
ENDBRANCH   6  13
BRANCH   5  18
ATOM     18  N   LIG d   1      -0.552  54.794 116.400  0.00  0.00     0.381 N 
ATOM     19  H   LIG d   1      -1.208  54.597 117.128  0.00  0.00    -0.090 HD
ATOM     20  H   LIG d   1       0.254  54.210 116.534  0.00  0.00    -0.090 HD
ATOM     21  H   LIG d   1      -0.963  54.606 115.512  0.00  0.00    -0.090 HD
ENDBRANCH   5  18
BRANCH   3  22
ATOM     22  C   LIG d   1      -2.005  59.345 116.054  0.00  0.00     0.382 C 
ATOM     23  O   LIG d   1      -3.014  59.752 116.679  0.00  0.00    -0.241 OA
ATOM     24  O   LIG d   1      -1.807  59.735 114.888  0.00  0.00    -0.241 OA
ENDBRANCH   3  22
TORSDOF 7
ENDMDL
MODEL 4
REMARK VINA RESULT:      -5.3     17.206     19.921
REMARK  7 active torsions:
REMARK  status: ('A' for Active; 'I' for Inactive)
REMARK    1  A    between atoms: C_2  and  C_3 
REMARK    2  A    between atoms: C_3  and  O_6 
REMARK    3  A    between atoms: C_3  and  C_4 
REMARK    4  A    between atoms: C_7  and  O_6 
REMARK    5  A    between atoms: C_9  and  C_10 
REMARK    6  A    between atoms: N_15  and  C_14 
REMARK    7  A    between atoms: N_20  and  C_19 
REMARK       I    between atoms: C_22  and  N_20 
ROOT
ATOM      1  C   LIG d   1       0.194  57.699 116.946  0.00  0.00     0.161 C 
ATOM      2  C   LIG d   1      -0.612  58.799 117.282  0.00  0.00     0.016 C 
ATOM      3  C   LIG d   1      -2.001  58.702 117.522  0.00  0.00     0.038 C 
ATOM      4  C   LIG d   1      -2.656  57.463 117.592  0.00  0.00     0.028 C 
ATOM      5  C   LIG d   1      -1.983  56.374 116.763  0.00  0.00    -0.047 C 
ATOM      6  C   LIG d   1      -0.482  56.323 117.126  0.00  0.00     0.091 C 
ENDROOT
BRANCH   1   7
ATOM      7  O   LIG d   1       1.428  57.752 117.689  0.00  0.00    -0.368 OA
BRANCH   7   8
ATOM      8  C   LIG d   1       1.391  58.493 118.933  0.00  0.00     0.119 C 
BRANCH   8   9
ATOM      9  C   LIG d   1       2.705  59.293 119.035  0.00  0.00     0.028 C 
ATOM     10  C   LIG d   1       3.021  59.721 120.478  0.00  0.00     0.006 C 
ENDBRANCH   8   9
BRANCH   8  11
ATOM     11  C   LIG d   1       1.394  57.553 120.142  0.00  0.00     0.028 C 
ATOM     12  C   LIG d   1      -0.008  57.341 120.735  0.00  0.00     0.006 C 
ENDBRANCH   8  11
ENDBRANCH   7   8
ENDBRANCH   1   7
BRANCH   6  13
ATOM     13  N   LIG d   1       0.269  55.342 116.300  0.00  0.00    -0.311 N 
ATOM     14  C   LIG d   1       0.934  54.309 116.813  0.00  0.00     0.210 C 
ATOM     15  C   LIG d   1       1.656  53.430 115.786  0.00  0.00     0.109 C 
ATOM     16  O   LIG d   1       0.968  54.017 118.018  0.00  0.00    -0.276 OA
ATOM     17  H   LIG d   1       0.267  55.485 115.309  0.00  0.00     0.149 HD
ENDBRANCH   6  13
BRANCH   5  18
ATOM     18  N   LIG d   1      -2.687  55.107 117.036  0.00  0.00     0.381 N 
ATOM     19  H   LIG d   1      -3.083  54.751 116.189  0.00  0.00    -0.090 HD
ATOM     20  H   LIG d   1      -3.435  55.283 117.684  0.00  0.00    -0.090 HD
ATOM     21  H   LIG d   1      -2.054  54.441 117.421  0.00  0.00    -0.090 HD
ENDBRANCH   5  18
BRANCH   3  22
ATOM     22  C   LIG d   1      -2.758  59.855 117.657  0.00  0.00     0.382 C 
ATOM     23  O   LIG d   1      -3.776  60.025 116.942  0.00  0.00    -0.241 OA
ATOM     24  O   LIG d   1      -2.412  60.749 118.453  0.00  0.00    -0.241 OA
ENDBRANCH   3  22
TORSDOF 7
ENDMDL
MODEL 5
REMARK VINA RESULT:      -5.0      2.515      4.156
REMARK  7 active torsions:
REMARK  status: ('A' for Active; 'I' for Inactive)
REMARK    1  A    between atoms: C_2  and  C_3 
REMARK    2  A    between atoms: C_3  and  O_6 
REMARK    3  A    between atoms: C_3  and  C_4 
REMARK    4  A    between atoms: C_7  and  O_6 
REMARK    5  A    between atoms: C_9  and  C_10 
REMARK    6  A    between atoms: N_15  and  C_14 
REMARK    7  A    between atoms: N_20  and  C_19 
REMARK       I    between atoms: C_22  and  N_20 
ROOT
ATOM      1  C   LIG d   1      -7.036  77.513 117.377  0.00  0.00     0.161 C 
ATOM      2  C   LIG d   1      -8.199  76.751 117.581  0.00  0.00     0.016 C 
ATOM      3  C   LIG d   1      -9.401  77.290 118.095  0.00  0.00     0.038 C 
ATOM      4  C   LIG d   1      -9.569  78.667 118.300  0.00  0.00     0.028 C 
ATOM      5  C   LIG d   1      -8.263  79.401 118.585  0.00  0.00    -0.047 C 
ATOM      6  C   LIG d   1      -7.234  79.039 117.490  0.00  0.00     0.091 C 
ENDROOT
BRANCH   1   7
ATOM      7  O   LIG d   1      -6.449  77.176 116.105  0.00  0.00    -0.368 OA
BRANCH   7   8
ATOM      8  C   LIG d   1      -5.541  76.047 116.100  0.00  0.00     0.119 C 
BRANCH   8   9
ATOM      9  C   LIG d   1      -4.259  76.486 115.368  0.00  0.00     0.028 C 
ATOM     10  C   LIG d   1      -3.419  77.474 116.196  0.00  0.00     0.006 C 
ENDBRANCH   8   9
BRANCH   8  11
ATOM     11  C   LIG d   1      -6.102  74.885 115.275  0.00  0.00     0.028 C 
ATOM     12  C   LIG d   1      -6.545  73.696 116.143  0.00  0.00     0.006 C 
ENDBRANCH   8  11
ENDBRANCH   7   8
ENDBRANCH   1   7
BRANCH   6  13
ATOM     13  N   LIG d   1      -5.902  79.648 117.740  0.00  0.00    -0.311 N 
ATOM     14  C   LIG d   1      -5.506  80.796 117.193  0.00  0.00     0.210 C 
ATOM     15  C   LIG d   1      -4.087  81.236 117.567  0.00  0.00     0.109 C 
ATOM     16  O   LIG d   1      -6.208  81.508 116.458  0.00  0.00    -0.276 OA
ATOM     17  H   LIG d   1      -5.280  79.152 118.349  0.00  0.00     0.149 HD
ENDBRANCH   6  13
BRANCH   5  18
ATOM     18  N   LIG d   1      -8.565  80.844 118.641  0.00  0.00     0.381 N 
ATOM     19  H   LIG d   1      -9.550  80.988 118.541  0.00  0.00    -0.090 HD
ATOM     20  H   LIG d   1      -8.099  81.303 117.878  0.00  0.00    -0.090 HD
ATOM     21  H   LIG d   1      -8.253  81.224 119.507  0.00  0.00    -0.090 HD
ENDBRANCH   5  18
BRANCH   3  22
ATOM     22  C   LIG d   1     -10.439  76.440 118.448  0.00  0.00     0.382 C 
ATOM     23  O   LIG d   1     -11.627  76.833 118.363  0.00  0.00    -0.241 OA
ATOM     24  O   LIG d   1     -10.199  75.301 118.893  0.00  0.00    -0.241 OA
ENDBRANCH   3  22
TORSDOF 7
ENDMDL
MODEL 6
REMARK VINA RESULT:      -5.0      2.161      3.672
REMARK  7 active torsions:
REMARK  status: ('A' for Active; 'I' for Inactive)
REMARK    1  A    between atoms: C_2  and  C_3 
REMARK    2  A    between atoms: C_3  and  O_6 
REMARK    3  A    between atoms: C_3  and  C_4 
REMARK    4  A    between atoms: C_7  and  O_6 
REMARK    5  A    between atoms: C_9  and  C_10 
REMARK    6  A    between atoms: N_15  and  C_14 
REMARK    7  A    between atoms: N_20  and  C_19 
REMARK       I    between atoms: C_22  and  N_20 
ROOT
ATOM      1  C   LIG d   1      -7.063  76.971 117.150  0.00  0.00     0.161 C 
ATOM      2  C   LIG d   1      -8.334  76.422 117.392  0.00  0.00     0.016 C 
ATOM      3  C   LIG d   1      -9.393  77.146 117.986  0.00  0.00     0.038 C 
ATOM      4  C   LIG d   1      -9.299  78.523 118.241  0.00  0.00     0.028 C 
ATOM      5  C   LIG d   1      -7.870  78.999 118.479  0.00  0.00    -0.047 C 
ATOM      6  C   LIG d   1      -6.977  78.502 117.319  0.00  0.00     0.091 C 
ENDROOT
BRANCH   1   7
ATOM      7  O   LIG d   1      -6.607  76.585 115.838  0.00  0.00    -0.368 OA
BRANCH   7   8
ATOM      8  C   LIG d   1      -5.536  75.610 115.796  0.00  0.00     0.119 C 
BRANCH   8   9
ATOM      9  C   LIG d   1      -6.106  74.324 115.168  0.00  0.00     0.028 C 
ATOM     10  C   LIG d   1      -6.696  73.369 116.219  0.00  0.00     0.006 C 
ENDBRANCH   8   9
BRANCH   8  11
ATOM     11  C   LIG d   1      -5.092  75.210 117.206  0.00  0.00     0.028 C 
ATOM     12  C   LIG d   1      -3.582  75.388 117.428  0.00  0.00     0.006 C 
ENDBRANCH   8  11
ENDBRANCH   7   8
ENDBRANCH   1   7
BRANCH   6  13
ATOM     13  N   LIG d   1      -5.546  78.852 117.516  0.00  0.00    -0.311 N 
ATOM     14  C   LIG d   1      -4.984  79.950 117.012  0.00  0.00     0.210 C 
ATOM     15  C   LIG d   1      -3.491  80.110 117.317  0.00  0.00     0.109 C 
ATOM     16  O   LIG d   1      -5.587  80.821 116.368  0.00  0.00    -0.276 OA
ATOM     17  H   LIG d   1      -4.990  78.216 118.052  0.00  0.00     0.149 HD
ENDBRANCH   6  13
BRANCH   5  18
ATOM     18  N   LIG d   1      -7.903  80.469 118.594  0.00  0.00     0.381 N 
ATOM     19  H   LIG d   1      -8.416  80.857 117.828  0.00  0.00    -0.090 HD
ATOM     20  H   LIG d   1      -6.962  80.819 118.554  0.00  0.00    -0.090 HD
ATOM     21  H   LIG d   1      -8.327  80.734 119.456  0.00  0.00    -0.090 HD
ENDBRANCH   5  18
BRANCH   3  22
ATOM     22  C   LIG d   1     -10.549  76.483 118.368  0.00  0.00     0.382 C 
ATOM     23  O   LIG d   1     -10.565  75.230 118.421  0.00  0.00    -0.241 OA
ATOM     24  O   LIG d   1     -11.590  77.121 118.618  0.00  0.00    -0.241 OA
ENDBRANCH   3  22
TORSDOF 7
ENDMDL
MODEL 7
REMARK VINA RESULT:      -5.0      2.622      4.786
REMARK  7 active torsions:
REMARK  status: ('A' for Active; 'I' for Inactive)
REMARK    1  A    between atoms: C_2  and  C_3 
REMARK    2  A    between atoms: C_3  and  O_6 
REMARK    3  A    between atoms: C_3  and  C_4 
REMARK    4  A    between atoms: C_7  and  O_6 
REMARK    5  A    between atoms: C_9  and  C_10 
REMARK    6  A    between atoms: N_15  and  C_14 
REMARK    7  A    between atoms: N_20  and  C_19 
REMARK       I    between atoms: C_22  and  N_20 
ROOT
ATOM      1  C   LIG d   1      -7.289  77.223 117.505  0.00  0.00     0.161 C 
ATOM      2  C   LIG d   1      -6.843  78.555 117.476  0.00  0.00     0.016 C 
ATOM      3  C   LIG d   1      -7.606  79.642 117.961  0.00  0.00     0.038 C 
ATOM      4  C   LIG d   1      -8.813  79.451 118.651  0.00  0.00     0.028 C 
ATOM      5  C   LIG d   1      -9.540  78.170 118.257  0.00  0.00    -0.047 C 
ATOM      6  C   LIG d   1      -8.555  76.983 118.355  0.00  0.00     0.091 C 
ENDROOT
BRANCH   1   7
ATOM      7  O   LIG d   1      -6.221  76.360 117.943  0.00  0.00    -0.368 OA
BRANCH   7   8
ATOM      8  C   LIG d   1      -5.364  75.828 116.902  0.00  0.00     0.119 C 
BRANCH   8   9
ATOM      9  C   LIG d   1      -6.218  74.879 116.039  0.00  0.00     0.028 C 
ATOM     10  C   LIG d   1      -6.236  75.289 114.557  0.00  0.00     0.006 C 
ENDBRANCH   8   9
BRANCH   8  11
ATOM     11  C   LIG d   1      -4.252  74.953 117.488  0.00  0.00     0.028 C 
ATOM     12  C   LIG d   1      -3.039  74.825 116.553  0.00  0.00     0.006 C 
ENDBRANCH   8  11
ENDBRANCH   7   8
ENDBRANCH   1   7
BRANCH   6  13
ATOM     13  N   LIG d   1      -9.162  75.703 117.905  0.00  0.00    -0.311 N 
ATOM     14  C   LIG d   1      -9.752  74.842 118.732  0.00  0.00     0.210 C 
ATOM     15  C   LIG d   1     -10.295  73.574 118.065  0.00  0.00     0.109 C 
ATOM     16  O   LIG d   1      -9.906  75.022 119.949  0.00  0.00    -0.276 OA
ATOM     17  H   LIG d   1      -9.110  75.492 116.928  0.00  0.00     0.149 HD
ENDBRANCH   6  13
BRANCH   5  18
ATOM     18  N   LIG d   1     -10.707  78.028 119.148  0.00  0.00     0.381 N 
ATOM     19  H   LIG d   1     -11.130  77.132 119.011  0.00  0.00    -0.090 HD
ATOM     20  H   LIG d   1     -11.382  78.734 118.915  0.00  0.00    -0.090 HD
ATOM     21  H   LIG d   1     -10.425  78.128 120.098  0.00  0.00    -0.090 HD
ENDBRANCH   5  18
BRANCH   3  22
ATOM     22  C   LIG d   1      -7.182  80.940 117.722  0.00  0.00     0.382 C 
ATOM     23  O   LIG d   1      -7.183  81.781 118.653  0.00  0.00    -0.241 OA
ATOM     24  O   LIG d   1      -6.841  81.292 116.577  0.00  0.00    -0.241 OA
ENDBRANCH   3  22
TORSDOF 7
ENDMDL
MODEL 8
REMARK VINA RESULT:      -4.8     17.365     19.834
REMARK  7 active torsions:
REMARK  status: ('A' for Active; 'I' for Inactive)
REMARK    1  A    between atoms: C_2  and  C_3 
REMARK    2  A    between atoms: C_3  and  O_6 
REMARK    3  A    between atoms: C_3  and  C_4 
REMARK    4  A    between atoms: C_7  and  O_6 
REMARK    5  A    between atoms: C_9  and  C_10 
REMARK    6  A    between atoms: N_15  and  C_14 
REMARK    7  A    between atoms: N_20  and  C_19 
REMARK       I    between atoms: C_22  and  N_20 
ROOT
ATOM      1  C   LIG d   1       0.911  58.966 118.758  0.00  0.00     0.161 C 
ATOM      2  C   LIG d   1       1.975  59.801 119.136  0.00  0.00     0.016 C 
ATOM      3  C   LIG d   1       3.311  59.355 119.255  0.00  0.00     0.038 C 
ATOM      4  C   LIG d   1       3.701  58.068 118.855  0.00  0.00     0.028 C 
ATOM      5  C   LIG d   1       2.579  57.039 118.946  0.00  0.00    -0.047 C 
ATOM      6  C   LIG d   1       1.335  57.587 118.210  0.00  0.00     0.091 C 
ENDROOT
BRANCH   1   7
ATOM      7  O   LIG d   1       0.070  59.646 117.806  0.00  0.00    -0.368 OA
BRANCH   7   8
ATOM      8  C   LIG d   1      -1.266  59.975 118.257  0.00  0.00     0.119 C 
BRANCH   8   9
ATOM      9  C   LIG d   1      -1.423  59.419 119.685  0.00  0.00     0.028 C 
ATOM     10  C   LIG d   1      -2.161  60.395 120.617  0.00  0.00     0.006 C 
ENDBRANCH   8   9
BRANCH   8  11
ATOM     11  C   LIG d   1      -2.329  59.255 117.422  0.00  0.00     0.028 C 
ATOM     12  C   LIG d   1      -1.820  58.847 116.031  0.00  0.00     0.006 C 
ENDBRANCH   8  11
ENDBRANCH   7   8
ENDBRANCH   1   7
BRANCH   6  13
ATOM     13  N   LIG d   1       0.164  56.679 118.323  0.00  0.00    -0.311 N 
ATOM     14  C   LIG d   1      -0.156  55.777 117.396  0.00  0.00     0.210 C 
ATOM     15  C   LIG d   1      -1.413  54.957 117.700  0.00  0.00     0.109 C 
ATOM     16  O   LIG d   1       0.500  55.557 116.367  0.00  0.00    -0.276 OA
ATOM     17  H   LIG d   1      -0.405  56.768 119.141  0.00  0.00     0.149 HD
ENDBRANCH   6  13
BRANCH   5  18
ATOM     18  N   LIG d   1       3.083  55.778 118.370  0.00  0.00     0.381 N 
ATOM     19  H   LIG d   1       2.442  55.440 117.680  0.00  0.00    -0.090 HD
ATOM     20  H   LIG d   1       3.151  55.091 119.100  0.00  0.00    -0.090 HD
ATOM     21  H   LIG d   1       3.978  55.925 117.958  0.00  0.00    -0.090 HD
ENDBRANCH   5  18
BRANCH   3  22
ATOM     22  C   LIG d   1       4.267  60.187 119.818  0.00  0.00     0.382 C 
ATOM     23  O   LIG d   1       5.088  60.786 119.082  0.00  0.00    -0.241 OA
ATOM     24  O   LIG d   1       4.347  60.312 121.055  0.00  0.00    -0.241 OA
ENDBRANCH   3  22
TORSDOF 7
ENDMDL
MODEL 9
REMARK VINA RESULT:      -4.8      2.785      5.862
REMARK  7 active torsions:
REMARK  status: ('A' for Active; 'I' for Inactive)
REMARK    1  A    between atoms: C_2  and  C_3 
REMARK    2  A    between atoms: C_3  and  O_6 
REMARK    3  A    between atoms: C_3  and  C_4 
REMARK    4  A    between atoms: C_7  and  O_6 
REMARK    5  A    between atoms: C_9  and  C_10 
REMARK    6  A    between atoms: N_15  and  C_14 
REMARK    7  A    between atoms: N_20  and  C_19 
REMARK       I    between atoms: C_22  and  N_20 
ROOT
ATOM      1  C   LIG d   1      -8.080  78.797 117.895  0.00  0.00     0.161 C 
ATOM      2  C   LIG d   1      -9.226  78.058 118.235  0.00  0.00     0.016 C 
ATOM      3  C   LIG d   1      -9.330  76.659 118.058  0.00  0.00     0.038 C 
ATOM      4  C   LIG d   1      -8.233  75.877 117.668  0.00  0.00     0.028 C 
ATOM      5  C   LIG d   1      -7.211  76.642 116.833  0.00  0.00    -0.047 C 
ATOM      6  C   LIG d   1      -6.835  77.946 117.572  0.00  0.00     0.091 C 
ENDROOT
BRANCH   1   7
ATOM      7  O   LIG d   1      -7.783  79.745 118.940  0.00  0.00    -0.368 OA
BRANCH   7   8
ATOM      8  C   LIG d   1      -7.823  81.143 118.562  0.00  0.00     0.119 C 
BRANCH   8   9
ATOM      9  C   LIG d   1      -8.465  81.919 119.728  0.00  0.00     0.028 C 
ATOM     10  C   LIG d   1      -7.462  82.838 120.445  0.00  0.00     0.006 C 
ENDBRANCH   8   9
BRANCH   8  11
ATOM     11  C   LIG d   1      -8.750  81.370 117.364  0.00  0.00     0.028 C 
ATOM     12  C   LIG d   1     -10.075  82.042 117.756  0.00  0.00     0.006 C 
ENDBRANCH   8  11
ENDBRANCH   7   8
ENDBRANCH   1   7
BRANCH   6  13
ATOM     13  N   LIG d   1      -5.903  78.795 116.784  0.00  0.00    -0.311 N 
ATOM     14  C   LIG d   1      -4.578  78.741 116.910  0.00  0.00     0.210 C 
ATOM     15  C   LIG d   1      -3.803  79.716 116.018  0.00  0.00     0.109 C 
ATOM     16  O   LIG d   1      -3.969  77.955 117.653  0.00  0.00    -0.276 OA
ATOM     17  H   LIG d   1      -6.310  79.439 116.135  0.00  0.00     0.149 HD
ENDBRANCH   6  13
BRANCH   5  18
ATOM     18  N   LIG d   1      -6.058  75.749 116.612  0.00  0.00     0.381 N 
ATOM     19  H   LIG d   1      -5.297  76.268 116.223  0.00  0.00    -0.090 HD
ATOM     20  H   LIG d   1      -6.321  75.035 115.955  0.00  0.00    -0.090 HD
ATOM     21  H   LIG d   1      -5.780  75.331 117.473  0.00  0.00    -0.090 HD
ENDBRANCH   5  18
BRANCH   3  22
ATOM     22  C   LIG d   1     -10.555  76.034 118.235  0.00  0.00     0.382 C 
ATOM     23  O   LIG d   1     -10.616  74.783 118.305  0.00  0.00    -0.241 OA
ATOM     24  O   LIG d   1     -11.605  76.702 118.282  0.00  0.00    -0.241 OA
ENDBRANCH   3  22
TORSDOF 7
ENDMDL
