MODEL 1
REMARK VINA RESULT:      -6.5      0.000      0.000
REMARK  7 active torsions:
REMARK  status: ('A' for Active; 'I' for Inactive)
REMARK    1  A    between atoms: C_2  and  C_3 
REMARK    2  A    between atoms: C_3  and  O_6 
REMARK    3  A    between atoms: C_3  and  C_4 
REMARK    4  A    between atoms: C_7  and  O_6 
REMARK    5  A    between atoms: C_9  and  C_10 
REMARK    6  A    between atoms: N_15  and  C_14 
REMARK    7  A    between atoms: N_20  and  C_19 
REMARK       I    between atoms: C_22  and  N_20 
ROOT
ATOM      1  C   LIG d   1       1.237  81.794 111.969  0.00  0.00     0.161 C 
ATOM      2  C   LIG d   1       2.300  82.479 111.357  0.00  0.00     0.016 C 
ATOM      3  C   LIG d   1       2.491  82.530 109.957  0.00  0.00     0.038 C 
ATOM      4  C   LIG d   1       1.538  82.022 109.061  0.00  0.00     0.028 C 
ATOM      5  C   LIG d   1       0.707  80.883 109.641  0.00  0.00    -0.047 C 
ATOM      6  C   LIG d   1       0.127  81.328 111.003  0.00  0.00     0.091 C 
ENDROOT
BRANCH   1   7
ATOM      7  O   LIG d   1       0.677  82.602 113.023  0.00  0.00    -0.368 OA
BRANCH   7   8
ATOM      8  C   LIG d   1       0.898  84.030 112.917  0.00  0.00     0.119 C 
BRANCH   8   9
ATOM      9  C   LIG d   1       1.351  84.532 114.302  0.00  0.00     0.028 C 
ATOM     10  C   LIG d   1       0.881  85.969 114.588  0.00  0.00     0.006 C 
ENDBRANCH   8   9
BRANCH   8  11
ATOM     11  C   LIG d   1      -0.406  84.775 112.622  0.00  0.00     0.028 C 
ATOM     12  C   LIG d   1      -0.582  85.101 111.130  0.00  0.00     0.006 C 
ENDBRANCH   8  11
ENDBRANCH   7   8
ENDBRANCH   1   7
BRANCH   6  13
ATOM     13  N   LIG d   1      -0.631  80.243 111.679  0.00  0.00    -0.311 N 
ATOM     14  C   LIG d   1      -1.768  80.446 112.342  0.00  0.00     0.210 C 
ATOM     15  C   LIG d   1      -2.376  79.193 112.981  0.00  0.00     0.109 C 
ATOM     16  O   LIG d   1      -2.348  81.538 112.433  0.00  0.00    -0.276 OA
ATOM     17  H   LIG d   1      -0.248  79.319 111.628  0.00  0.00     0.149 HD
ENDBRANCH   6  13
BRANCH   5  18
ATOM     18  N   LIG d   1      -0.334  80.543 108.653  0.00  0.00     0.381 N 
ATOM     19  H   LIG d   1      -1.054  80.004 109.091  0.00  0.00    -0.090 HD
ATOM     20  H   LIG d   1       0.077  79.986 107.925  0.00  0.00    -0.090 HD
ATOM     21  H   LIG d   1      -0.722  81.375 108.266  0.00  0.00    -0.090 HD
ENDBRANCH   5  18
BRANCH   3  22
ATOM     22  C   LIG d   1       3.664  83.059 109.442  0.00  0.00     0.382 C 
ATOM     23  O   LIG d   1       4.288  82.443 108.545  0.00  0.00    -0.241 OA
ATOM     24  O   LIG d   1       4.130  84.122 109.894  0.00  0.00    -0.241 OA
ENDBRANCH   3  22
TORSDOF 7
ENDMDL
MODEL 2
REMARK VINA RESULT:      -6.4      1.854      5.033
REMARK  7 active torsions:
REMARK  status: ('A' for Active; 'I' for Inactive)
REMARK    1  A    between atoms: C_2  and  C_3 
REMARK    2  A    between atoms: C_3  and  O_6 
REMARK    3  A    between atoms: C_3  and  C_4 
REMARK    4  A    between atoms: C_7  and  O_6 
REMARK    5  A    between atoms: C_9  and  C_10 
REMARK    6  A    between atoms: N_15  and  C_14 
REMARK    7  A    between atoms: N_20  and  C_19 
REMARK       I    between atoms: C_22  and  N_20 
ROOT
ATOM      1  C   LIG d   1       0.147  82.614 111.190  0.00  0.00     0.161 C 
ATOM      2  C   LIG d   1      -0.925  82.239 112.016  0.00  0.00     0.016 C 
ATOM      3  C   LIG d   1      -1.446  80.926 112.068  0.00  0.00     0.038 C 
ATOM      4  C   LIG d   1      -0.827  79.856 111.404  0.00  0.00     0.028 C 
ATOM      5  C   LIG d   1      -0.049  80.282 110.163  0.00  0.00    -0.047 C 
ATOM      6  C   LIG d   1       0.906  81.437 110.542  0.00  0.00     0.091 C 
ENDROOT
BRANCH   1   7
ATOM      7  O   LIG d   1       1.059  83.455 111.924  0.00  0.00    -0.368 OA
BRANCH   7   8
ATOM      8  C   LIG d   1       1.144  84.834 111.489  0.00  0.00     0.119 C 
BRANCH   8   9
ATOM      9  C   LIG d   1       0.158  85.013 110.319  0.00  0.00     0.028 C 
ATOM     10  C   LIG d   1      -0.937  86.047 110.628  0.00  0.00     0.006 C 
ENDBRANCH   8   9
BRANCH   8  11
ATOM     11  C   LIG d   1       2.525  85.151 110.908  0.00  0.00     0.028 C 
ATOM     12  C   LIG d   1       3.674  84.576 111.752  0.00  0.00     0.006 C 
ENDBRANCH   8  11
ENDBRANCH   7   8
ENDBRANCH   1   7
BRANCH   6  13
ATOM     13  N   LIG d   1       1.645  81.970 109.368  0.00  0.00    -0.311 N 
ATOM     14  C   LIG d   1       2.970  81.913 109.247  0.00  0.00     0.210 C 
ATOM     15  C   LIG d   1       3.530  82.539 107.966  0.00  0.00     0.109 C 
ATOM     16  O   LIG d   1       3.732  81.375 110.065  0.00  0.00    -0.276 OA
ATOM     17  H   LIG d   1       1.102  82.396 108.642  0.00  0.00     0.149 HD
ENDBRANCH   6  13
BRANCH   5  18
ATOM     18  N   LIG d   1       0.657  79.093 109.650  0.00  0.00     0.381 N 
ATOM     19  H   LIG d   1       1.616  79.317 109.477  0.00  0.00    -0.090 HD
ATOM     20  H   LIG d   1       0.236  78.816 108.780  0.00  0.00    -0.090 HD
ATOM     21  H   LIG d   1       0.595  78.349 110.309  0.00  0.00    -0.090 HD
ENDBRANCH   5  18
BRANCH   3  22
ATOM     22  C   LIG d   1      -2.623  80.680 112.759  0.00  0.00     0.382 C 
ATOM     23  O   LIG d   1      -3.592  81.468 112.646  0.00  0.00    -0.241 OA
ATOM     24  O   LIG d   1      -2.711  79.704 113.528  0.00  0.00    -0.241 OA
ENDBRANCH   3  22
TORSDOF 7
ENDMDL
MODEL 3
REMARK VINA RESULT:      -6.2      3.347      5.674
REMARK  7 active torsions:
REMARK  status: ('A' for Active; 'I' for Inactive)
REMARK    1  A    between atoms: C_2  and  C_3 
REMARK    2  A    between atoms: C_3  and  O_6 
REMARK    3  A    between atoms: C_3  and  C_4 
REMARK    4  A    between atoms: C_7  and  O_6 
REMARK    5  A    between atoms: C_9  and  C_10 
REMARK    6  A    between atoms: N_15  and  C_14 
REMARK    7  A    between atoms: N_20  and  C_19 
REMARK       I    between atoms: C_22  and  N_20 
ROOT
ATOM      1  C   LIG d   1       2.801  85.504 111.657  0.00  0.00     0.161 C 
ATOM      2  C   LIG d   1       3.709  86.556 111.865  0.00  0.00     0.016 C 
ATOM      3  C   LIG d   1       3.686  87.389 113.007  0.00  0.00     0.038 C 
ATOM      4  C   LIG d   1       2.843  87.129 114.098  0.00  0.00     0.028 C 
ATOM      5  C   LIG d   1       1.568  86.386 113.714  0.00  0.00    -0.047 C 
ATOM      6  C   LIG d   1       1.945  85.136 112.887  0.00  0.00     0.091 C 
ENDROOT
BRANCH   1   7
ATOM      7  O   LIG d   1       3.501  84.343 111.168  0.00  0.00    -0.368 OA
BRANCH   7   8
ATOM      8  C   LIG d   1       3.484  84.145 109.733  0.00  0.00     0.119 C 
BRANCH   8   9
ATOM      9  C   LIG d   1       2.122  83.524 109.368  0.00  0.00     0.028 C 
ATOM     10  C   LIG d   1       1.189  84.525 108.665  0.00  0.00     0.006 C 
ENDBRANCH   8   9
BRANCH   8  11
ATOM     11  C   LIG d   1       4.530  83.114 109.300  0.00  0.00     0.028 C 
ATOM     12  C   LIG d   1       4.001  82.140 108.235  0.00  0.00     0.006 C 
ENDBRANCH   8  11
ENDBRANCH   7   8
ENDBRANCH   1   7
BRANCH   6  13
ATOM     13  N   LIG d   1       0.751  84.397 112.399  0.00  0.00    -0.311 N 
ATOM     14  C   LIG d   1       0.503  83.124 112.700  0.00  0.00     0.210 C 
ATOM     15  C   LIG d   1      -0.772  82.548 112.077  0.00  0.00     0.109 C 
ATOM     16  O   LIG d   1       1.202  82.425 113.450  0.00  0.00    -0.276 OA
ATOM     17  H   LIG d   1       0.114  84.898 111.810  0.00  0.00     0.149 HD
ENDBRANCH   6  13
BRANCH   5  18
ATOM     18  N   LIG d   1       0.850  86.060 114.960  0.00  0.00     0.381 N 
ATOM     19  H   LIG d   1       0.188  85.329 114.789  0.00  0.00    -0.090 HD
ATOM     20  H   LIG d   1       0.347  86.874 115.268  0.00  0.00    -0.090 HD
ATOM     21  H   LIG d   1       1.497  85.775 115.662  0.00  0.00    -0.090 HD
ENDBRANCH   5  18
BRANCH   3  22
ATOM     22  C   LIG d   1       4.487  88.520 113.048  0.00  0.00     0.382 C 
ATOM     23  O   LIG d   1       4.223  89.446 113.853  0.00  0.00    -0.241 OA
ATOM     24  O   LIG d   1       5.444  88.646 112.260  0.00  0.00    -0.241 OA
ENDBRANCH   3  22
TORSDOF 7
ENDMDL
MODEL 4
REMARK VINA RESULT:      -6.1      2.631      5.752
REMARK  7 active torsions:
REMARK  status: ('A' for Active; 'I' for Inactive)
REMARK    1  A    between atoms: C_2  and  C_3 
REMARK    2  A    between atoms: C_3  and  O_6 
REMARK    3  A    between atoms: C_3  and  C_4 
REMARK    4  A    between atoms: C_7  and  O_6 
REMARK    5  A    between atoms: C_9  and  C_10 
REMARK    6  A    between atoms: N_15  and  C_14 
REMARK    7  A    between atoms: N_20  and  C_19 
REMARK       I    between atoms: C_22  and  N_20 
ROOT
ATOM      1  C   LIG d   1       2.016  83.175 111.638  0.00  0.00     0.161 C 
ATOM      2  C   LIG d   1       1.121  82.099 111.517  0.00  0.00     0.016 C 
ATOM      3  C   LIG d   1      -0.244  82.178 111.878  0.00  0.00     0.038 C 
ATOM      4  C   LIG d   1      -0.844  83.391 112.245  0.00  0.00     0.028 C 
ATOM      5  C   LIG d   1       0.131  84.387 112.864  0.00  0.00    -0.047 C 
ATOM      6  C   LIG d   1       1.354  84.537 111.931  0.00  0.00     0.091 C 
ENDROOT
BRANCH   1   7
ATOM      7  O   LIG d   1       2.838  83.261 110.457  0.00  0.00    -0.368 OA
BRANCH   7   8
ATOM      8  C   LIG d   1       2.440  82.428 109.341  0.00  0.00     0.119 C 
BRANCH   8   9
ATOM      9  C   LIG d   1       3.678  81.621 108.901  0.00  0.00     0.028 C 
ATOM     10  C   LIG d   1       4.887  81.852 109.823  0.00  0.00     0.006 C 
ENDBRANCH   8   9
BRANCH   8  11
ATOM     11  C   LIG d   1       2.053  83.273 108.124  0.00  0.00     0.028 C 
ATOM     12  C   LIG d   1       1.117  84.438 108.481  0.00  0.00     0.006 C 
ENDBRANCH   8  11
ENDBRANCH   7   8
ENDBRANCH   1   7
BRANCH   6  13
ATOM     13  N   LIG d   1       2.396  85.430 112.503  0.00  0.00    -0.311 N 
ATOM     14  C   LIG d   1       2.805  86.552 111.912  0.00  0.00     0.210 C 
ATOM     15  C   LIG d   1       3.903  87.314 112.660  0.00  0.00     0.109 C 
ATOM     16  O   LIG d   1       2.339  87.005 110.855  0.00  0.00    -0.276 OA
ATOM     17  H   LIG d   1       2.805  85.154 113.374  0.00  0.00     0.149 HD
ENDBRANCH   6  13
BRANCH   5  18
ATOM     18  N   LIG d   1      -0.597  85.653 113.072  0.00  0.00     0.381 N 
ATOM     19  H   LIG d   1      -0.271  86.342 112.423  0.00  0.00    -0.090 HD
ATOM     20  H   LIG d   1      -0.413  85.985 114.002  0.00  0.00    -0.090 HD
ATOM     21  H   LIG d   1      -1.575  85.508 112.950  0.00  0.00    -0.090 HD
ENDBRANCH   5  18
BRANCH   3  22
ATOM     22  C   LIG d   1      -1.013  81.025 111.912  0.00  0.00     0.382 C 
ATOM     23  O   LIG d   1      -0.697  80.039 111.205  0.00  0.00    -0.241 OA
ATOM     24  O   LIG d   1      -2.046  80.975 112.608  0.00  0.00    -0.241 OA
ENDBRANCH   3  22
TORSDOF 7
ENDMDL
MODEL 5
REMARK VINA RESULT:      -5.7      3.057      4.596
REMARK  7 active torsions:
REMARK  status: ('A' for Active; 'I' for Inactive)
REMARK    1  A    between atoms: C_2  and  C_3 
REMARK    2  A    between atoms: C_3  and  O_6 
REMARK    3  A    between atoms: C_3  and  C_4 
REMARK    4  A    between atoms: C_7  and  O_6 
REMARK    5  A    between atoms: C_9  and  C_10 
REMARK    6  A    between atoms: N_15  and  C_14 
REMARK    7  A    between atoms: N_20  and  C_19 
REMARK       I    between atoms: C_22  and  N_20 
ROOT
ATOM      1  C   LIG d   1       2.655  84.179 111.758  0.00  0.00     0.161 C 
ATOM      2  C   LIG d   1       3.010  85.415 112.325  0.00  0.00     0.016 C 
ATOM      3  C   LIG d   1       2.372  86.633 111.997  0.00  0.00     0.038 C 
ATOM      4  C   LIG d   1       1.228  86.676 111.186  0.00  0.00     0.028 C 
ATOM      5  C   LIG d   1       1.145  85.522 110.193  0.00  0.00    -0.047 C 
ATOM      6  C   LIG d   1       1.337  84.190 110.955  0.00  0.00     0.091 C 
ENDROOT
BRANCH   1   7
ATOM      7  O   LIG d   1       2.609  83.166 112.782  0.00  0.00    -0.368 OA
BRANCH   7   8
ATOM      8  C   LIG d   1       3.602  82.116 112.684  0.00  0.00     0.119 C 
BRANCH   8   9
ATOM      9  C   LIG d   1       4.377  82.085 114.016  0.00  0.00     0.028 C 
ATOM     10  C   LIG d   1       3.451  81.896 115.229  0.00  0.00     0.006 C 
ENDBRANCH   8   9
BRANCH   8  11
ATOM     11  C   LIG d   1       4.649  82.436 111.613  0.00  0.00     0.028 C 
ATOM     12  C   LIG d   1       4.566  81.497 110.399  0.00  0.00     0.006 C 
ENDBRANCH   8  11
ENDBRANCH   7   8
ENDBRANCH   1   7
BRANCH   6  13
ATOM     13  N   LIG d   1       1.353  83.015 110.047  0.00  0.00    -0.311 N 
ATOM     14  C   LIG d   1       0.513  81.988 110.161  0.00  0.00     0.210 C 
ATOM     15  C   LIG d   1       0.714  80.870 109.134  0.00  0.00     0.109 C 
ATOM     16  O   LIG d   1      -0.401  81.911 110.996  0.00  0.00    -0.276 OA
ATOM     17  H   LIG d   1       2.043  83.009 109.321  0.00  0.00     0.149 HD
ENDBRANCH   6  13
BRANCH   5  18
ATOM     18  N   LIG d   1      -0.159  85.614 109.510  0.00  0.00     0.381 N 
ATOM     19  H   LIG d   1      -0.065  86.152 108.672  0.00  0.00    -0.090 HD
ATOM     20  H   LIG d   1      -0.810  86.084 110.115  0.00  0.00    -0.090 HD
ATOM     21  H   LIG d   1      -0.496  84.702 109.293  0.00  0.00    -0.090 HD
ENDBRANCH   5  18
BRANCH   3  22
ATOM     22  C   LIG d   1       2.904  87.831 112.450  0.00  0.00     0.382 C 
ATOM     23  O   LIG d   1       4.100  87.884 112.825  0.00  0.00    -0.241 OA
ATOM     24  O   LIG d   1       2.190  88.848 112.532  0.00  0.00    -0.241 OA
ENDBRANCH   3  22
TORSDOF 7
ENDMDL
MODEL 6
REMARK VINA RESULT:      -5.4      3.061      5.738
REMARK  7 active torsions:
REMARK  status: ('A' for Active; 'I' for Inactive)
REMARK    1  A    between atoms: C_2  and  C_3 
REMARK    2  A    between atoms: C_3  and  O_6 
REMARK    3  A    between atoms: C_3  and  C_4 
REMARK    4  A    between atoms: C_7  and  O_6 
REMARK    5  A    between atoms: C_9  and  C_10 
REMARK    6  A    between atoms: N_15  and  C_14 
REMARK    7  A    between atoms: N_20  and  C_19 
REMARK       I    between atoms: C_22  and  N_20 
ROOT
ATOM      1  C   LIG d   1       1.581  83.506 111.717  0.00  0.00     0.161 C 
ATOM      2  C   LIG d   1       0.670  84.292 110.992  0.00  0.00     0.016 C 
ATOM      3  C   LIG d   1       0.015  85.422 111.534  0.00  0.00     0.038 C 
ATOM      4  C   LIG d   1       0.343  85.935 112.797  0.00  0.00     0.028 C 
ATOM      5  C   LIG d   1       0.887  84.881 113.756  0.00  0.00    -0.047 C 
ATOM      6  C   LIG d   1       2.036  84.115 113.060  0.00  0.00     0.091 C 
ENDROOT
BRANCH   1   7
ATOM      7  O   LIG d   1       2.724  83.199 110.894  0.00  0.00    -0.368 OA
BRANCH   7   8
ATOM      8  C   LIG d   1       2.959  81.794 110.628  0.00  0.00     0.119 C 
BRANCH   8   9
ATOM      9  C   LIG d   1       4.483  81.593 110.512  0.00  0.00     0.028 C 
ATOM     10  C   LIG d   1       4.853  80.470 109.530  0.00  0.00     0.006 C 
ENDBRANCH   8   9
BRANCH   8  11
ATOM     11  C   LIG d   1       2.391  81.382 109.267  0.00  0.00     0.028 C 
ATOM     12  C   LIG d   1       1.065  80.614 109.382  0.00  0.00     0.006 C 
ENDBRANCH   8  11
ENDBRANCH   7   8
ENDBRANCH   1   7
BRANCH   6  13
ATOM     13  N   LIG d   1       2.569  83.009 113.898  0.00  0.00    -0.311 N 
ATOM     14  C   LIG d   1       3.868  82.816 114.117  0.00  0.00     0.210 C 
ATOM     15  C   LIG d   1       4.203  81.606 114.994  0.00  0.00     0.109 C 
ATOM     16  O   LIG d   1       4.773  83.552 113.695  0.00  0.00    -0.276 OA
ATOM     17  H   LIG d   1       1.902  82.383 114.305  0.00  0.00     0.149 HD
ENDBRANCH   6  13
BRANCH   5  18
ATOM     18  N   LIG d   1       1.317  85.575 114.985  0.00  0.00     0.381 N 
ATOM     19  H   LIG d   1       1.383  86.559 114.812  0.00  0.00    -0.090 HD
ATOM     20  H   LIG d   1       2.227  85.239 115.247  0.00  0.00    -0.090 HD
ATOM     21  H   LIG d   1       0.666  85.402 115.719  0.00  0.00    -0.090 HD
ENDBRANCH   5  18
BRANCH   3  22
ATOM     22  C   LIG d   1      -1.010  86.028 110.823  0.00  0.00     0.382 C 
ATOM     23  O   LIG d   1      -1.874  86.709 111.426  0.00  0.00    -0.241 OA
ATOM     24  O   LIG d   1      -1.107  85.865 109.592  0.00  0.00    -0.241 OA
ENDBRANCH   3  22
TORSDOF 7
ENDMDL
MODEL 7
REMARK VINA RESULT:      -5.3      3.286      4.669
REMARK  7 active torsions:
REMARK  status: ('A' for Active; 'I' for Inactive)
REMARK    1  A    between atoms: C_2  and  C_3 
REMARK    2  A    between atoms: C_3  and  O_6 
REMARK    3  A    between atoms: C_3  and  C_4 
REMARK    4  A    between atoms: C_7  and  O_6 
REMARK    5  A    between atoms: C_9  and  C_10 
REMARK    6  A    between atoms: N_15  and  C_14 
REMARK    7  A    between atoms: N_20  and  C_19 
REMARK       I    between atoms: C_22  and  N_20 
ROOT
ATOM      1  C   LIG d   1       3.813  84.284 111.907  0.00  0.00     0.161 C 
ATOM      2  C   LIG d   1       3.789  85.594 112.415  0.00  0.00     0.016 C 
ATOM      3  C   LIG d   1       2.926  86.602 111.926  0.00  0.00     0.038 C 
ATOM      4  C   LIG d   1       1.916  86.325 110.993  0.00  0.00     0.028 C 
ATOM      5  C   LIG d   1       2.237  85.140 110.087  0.00  0.00    -0.047 C 
ATOM      6  C   LIG d   1       2.643  83.934 110.965  0.00  0.00     0.091 C 
ENDROOT
BRANCH   1   7
ATOM      7  O   LIG d   1       3.881  83.340 112.994  0.00  0.00    -0.368 OA
BRANCH   7   8
ATOM      8  C   LIG d   1       3.478  83.835 114.294  0.00  0.00     0.119 C 
BRANCH   8   9
ATOM      9  C   LIG d   1       4.291  83.067 115.354  0.00  0.00     0.028 C 
ATOM     10  C   LIG d   1       4.313  81.551 115.093  0.00  0.00     0.006 C 
ENDBRANCH   8   9
BRANCH   8  11
ATOM     11  C   LIG d   1       2.012  83.501 114.587  0.00  0.00     0.028 C 
ATOM     12  C   LIG d   1       1.103  84.740 114.565  0.00  0.00     0.006 C 
ENDBRANCH   8  11
ENDBRANCH   7   8
ENDBRANCH   1   7
BRANCH   6  13
ATOM     13  N   LIG d   1       3.053  82.757 110.155  0.00  0.00    -0.311 N 
ATOM     14  C   LIG d   1       2.228  81.761 109.838  0.00  0.00     0.210 C 
ATOM     15  C   LIG d   1       2.860  80.636 109.013  0.00  0.00     0.109 C 
ATOM     16  O   LIG d   1       1.025  81.718 110.135  0.00  0.00    -0.276 OA
ATOM     17  H   LIG d   1       4.005  82.726 109.846  0.00  0.00     0.149 HD
ENDBRANCH   6  13
BRANCH   5  18
ATOM     18  N   LIG d   1       1.045  84.878 109.259  0.00  0.00     0.381 N 
ATOM     19  H   LIG d   1       0.254  84.706 109.847  0.00  0.00    -0.090 HD
ATOM     20  H   LIG d   1       1.209  84.056 108.704  0.00  0.00    -0.090 HD
ATOM     21  H   LIG d   1       0.863  85.657 108.665  0.00  0.00    -0.090 HD
ENDBRANCH   5  18
BRANCH   3  22
ATOM     22  C   LIG d   1       3.095  87.913 112.344  0.00  0.00     0.382 C 
ATOM     23  O   LIG d   1       4.236  88.327 112.662  0.00  0.00    -0.241 OA
ATOM     24  O   LIG d   1       2.115  88.674 112.450  0.00  0.00    -0.241 OA
ENDBRANCH   3  22
TORSDOF 7
ENDMDL
MODEL 8
REMARK VINA RESULT:      -5.2      5.071      8.200
REMARK  7 active torsions:
REMARK  status: ('A' for Active; 'I' for Inactive)
REMARK    1  A    between atoms: C_2  and  C_3 
REMARK    2  A    between atoms: C_3  and  O_6 
REMARK    3  A    between atoms: C_3  and  C_4 
REMARK    4  A    between atoms: C_7  and  O_6 
REMARK    5  A    between atoms: C_9  and  C_10 
REMARK    6  A    between atoms: N_15  and  C_14 
REMARK    7  A    between atoms: N_20  and  C_19 
REMARK       I    between atoms: C_22  and  N_20 
ROOT
ATOM      1  C   LIG d   1      -3.177  77.525 115.033  0.00  0.00     0.161 C 
ATOM      2  C   LIG d   1      -3.281  78.683 114.244  0.00  0.00     0.016 C 
ATOM      3  C   LIG d   1      -2.236  79.158 113.419  0.00  0.00     0.038 C 
ATOM      4  C   LIG d   1      -1.062  78.419 113.209  0.00  0.00     0.028 C 
ATOM      5  C   LIG d   1      -0.709  77.501 114.374  0.00  0.00    -0.047 C 
ATOM      6  C   LIG d   1      -1.946  76.646 114.732  0.00  0.00     0.091 C 
ENDROOT
BRANCH   1   7
ATOM      7  O   LIG d   1      -4.386  76.749 114.923  0.00  0.00    -0.368 OA
BRANCH   7   8
ATOM      8  C   LIG d   1      -5.081  76.472 116.164  0.00  0.00     0.119 C 
BRANCH   8   9
ATOM      9  C   LIG d   1      -6.577  76.307 115.830  0.00  0.00     0.028 C 
ATOM     10  C   LIG d   1      -6.814  75.985 114.345  0.00  0.00     0.006 C 
ENDBRANCH   8   9
BRANCH   8  11
ATOM     11  C   LIG d   1      -5.009  77.665 117.121  0.00  0.00     0.028 C 
ATOM     12  C   LIG d   1      -6.303  78.494 117.139  0.00  0.00     0.006 C 
ENDBRANCH   8  11
ENDBRANCH   7   8
ENDBRANCH   1   7
BRANCH   6  13
ATOM     13  N   LIG d   1      -1.711  75.779 115.917  0.00  0.00    -0.311 N 
ATOM     14  C   LIG d   1      -1.167  74.566 115.841  0.00  0.00     0.210 C 
ATOM     15  C   LIG d   1      -1.033  73.833 117.180  0.00  0.00     0.109 C 
ATOM     16  O   LIG d   1      -0.752  74.041 114.797  0.00  0.00    -0.276 OA
ATOM     17  H   LIG d   1      -1.990  76.140 116.808  0.00  0.00     0.149 HD
ENDBRANCH   6  13
BRANCH   5  18
ATOM     18  N   LIG d   1       0.455  76.691 113.965  0.00  0.00     0.381 N 
ATOM     19  H   LIG d   1       0.244  75.719 114.067  0.00  0.00    -0.090 HD
ATOM     20  H   LIG d   1       1.230  76.910 114.566  0.00  0.00    -0.090 HD
ATOM     21  H   LIG d   1       0.693  76.889 113.018  0.00  0.00    -0.090 HD
ENDBRANCH   5  18
BRANCH   3  22
ATOM     22  C   LIG d   1      -2.344  80.406 112.823  0.00  0.00     0.382 C 
ATOM     23  O   LIG d   1      -3.476  80.884 112.571  0.00  0.00    -0.241 OA
ATOM     24  O   LIG d   1      -1.323  81.040 112.495  0.00  0.00    -0.241 OA
ENDBRANCH   3  22
TORSDOF 7
ENDMDL
MODEL 9
REMARK VINA RESULT:      -5.1      2.932      5.313
REMARK  7 active torsions:
REMARK  status: ('A' for Active; 'I' for Inactive)
REMARK    1  A    between atoms: C_2  and  C_3 
REMARK    2  A    between atoms: C_3  and  O_6 
REMARK    3  A    between atoms: C_3  and  C_4 
REMARK    4  A    between atoms: C_7  and  O_6 
REMARK    5  A    between atoms: C_9  and  C_10 
REMARK    6  A    between atoms: N_15  and  C_14 
REMARK    7  A    between atoms: N_20  and  C_19 
REMARK       I    between atoms: C_22  and  N_20 
ROOT
ATOM      1  C   LIG d   1       2.568  82.973 112.313  0.00  0.00     0.161 C 
ATOM      2  C   LIG d   1       3.458  82.463 113.274  0.00  0.00     0.016 C 
ATOM      3  C   LIG d   1       3.544  82.959 114.595  0.00  0.00     0.038 C 
ATOM      4  C   LIG d   1       2.634  83.904 115.093  0.00  0.00     0.028 C 
ATOM      5  C   LIG d   1       2.048  84.808 114.014  0.00  0.00    -0.047 C 
ATOM      6  C   LIG d   1       1.492  83.929 112.870  0.00  0.00     0.091 C 
ENDROOT
BRANCH   1   7
ATOM      7  O   LIG d   1       1.951  81.887 111.594  0.00  0.00    -0.368 OA
BRANCH   7   8
ATOM      8  C   LIG d   1       2.415  81.674 110.239  0.00  0.00     0.119 C 
BRANCH   8   9
ATOM      9  C   LIG d   1       3.614  82.614 110.007  0.00  0.00     0.028 C 
ATOM     10  C   LIG d   1       4.928  81.846 109.785  0.00  0.00     0.006 C 
ENDBRANCH   8   9
BRANCH   8  11
ATOM     11  C   LIG d   1       1.361  82.103 109.214  0.00  0.00     0.028 C 
ATOM     12  C   LIG d   1       1.778  83.348 108.415  0.00  0.00     0.006 C 
ENDBRANCH   8  11
ENDBRANCH   7   8
ENDBRANCH   1   7
BRANCH   6  13
ATOM     13  N   LIG d   1       0.976  84.736 111.735  0.00  0.00    -0.311 N 
ATOM     14  C   LIG d   1      -0.286  84.683 111.312  0.00  0.00     0.210 C 
ATOM     15  C   LIG d   1      -0.605  85.582 110.113  0.00  0.00     0.109 C 
ATOM     16  O   LIG d   1      -1.180  84.002 111.837  0.00  0.00    -0.276 OA
ATOM     17  H   LIG d   1       1.626  85.340 111.271  0.00  0.00     0.149 HD
ENDBRANCH   6  13
BRANCH   5  18
ATOM     18  N   LIG d   1       1.017  85.650 114.649  0.00  0.00     0.381 N 
ATOM     19  H   LIG d   1       0.157  85.142 114.714  0.00  0.00    -0.090 HD
ATOM     20  H   LIG d   1       0.861  86.461 114.077  0.00  0.00    -0.090 HD
ATOM     21  H   LIG d   1       1.316  85.928 115.558  0.00  0.00    -0.090 HD
ENDBRANCH   5  18
BRANCH   3  22
ATOM     22  C   LIG d   1       4.574  82.537 115.422  0.00  0.00     0.382 C 
ATOM     23  O   LIG d   1       5.136  83.355 116.190  0.00  0.00    -0.241 OA
ATOM     24  O   LIG d   1       4.978  81.360 115.377  0.00  0.00    -0.241 OA
ENDBRANCH   3  22
TORSDOF 7
ENDMDL
