MODEL 1
REMARK VINA RESULT:      -6.1      0.000      0.000
REMARK  7 active torsions:
REMARK  status: ('A' for Active; 'I' for Inactive)
REMARK    1  A    between atoms: C_2  and  C_3 
REMARK    2  A    between atoms: C_3  and  O_6 
REMARK    3  A    between atoms: C_3  and  C_4 
REMARK    4  A    between atoms: C_7  and  O_6 
REMARK    5  A    between atoms: C_9  and  C_10 
REMARK    6  A    between atoms: N_15  and  C_14 
REMARK    7  A    between atoms: N_20  and  C_19 
REMARK       I    between atoms: C_22  and  N_20 
ROOT
ATOM      1  C   LIG d   1      -7.749  76.776 117.630  0.00  0.00     0.161 C 
ATOM      2  C   LIG d   1      -8.950  77.382 118.035  0.00  0.00     0.016 C 
ATOM      3  C   LIG d   1      -9.115  78.781 118.152  0.00  0.00     0.038 C 
ATOM      4  C   LIG d   1      -8.129  79.682 117.723  0.00  0.00     0.028 C 
ATOM      5  C   LIG d   1      -6.717  79.109 117.781  0.00  0.00    -0.047 C 
ATOM      6  C   LIG d   1      -6.698  77.747 117.051  0.00  0.00     0.091 C 
ENDROOT
BRANCH   1   7
ATOM      7  O   LIG d   1      -8.027  75.720 116.689  0.00  0.00    -0.368 OA
BRANCH   7   8
ATOM      8  C   LIG d   1      -7.940  74.369 117.203  0.00  0.00     0.119 C 
BRANCH   8   9
ATOM      9  C   LIG d   1      -6.672  73.727 116.607  0.00  0.00     0.028 C 
ATOM     10  C   LIG d   1      -6.388  74.211 115.175  0.00  0.00     0.006 C 
ENDBRANCH   8   9
BRANCH   8  11
ATOM     11  C   LIG d   1      -9.104  73.507 116.705  0.00  0.00     0.028 C 
ATOM     12  C   LIG d   1      -8.884  72.007 116.956  0.00  0.00     0.006 C 
ENDBRANCH   8  11
ENDBRANCH   7   8
ENDBRANCH   1   7
BRANCH   6  13
ATOM     13  N   LIG d   1      -5.374  77.078 117.134  0.00  0.00    -0.311 N 
ATOM     14  C   LIG d   1      -4.435  77.192 116.196  0.00  0.00     0.210 C 
ATOM     15  C   LIG d   1      -3.150  76.404 116.469  0.00  0.00     0.109 C 
ATOM     16  O   LIG d   1      -4.532  77.896 115.180  0.00  0.00    -0.276 OA
ATOM     17  H   LIG d   1      -5.199  76.511 117.941  0.00  0.00     0.149 HD
ENDBRANCH   6  13
BRANCH   5  18
ATOM     18  N   LIG d   1      -5.808  80.102 117.178  0.00  0.00     0.381 N 
ATOM     19  H   LIG d   1      -6.043  80.235 116.215  0.00  0.00    -0.090 HD
ATOM     20  H   LIG d   1      -4.867  79.753 117.228  0.00  0.00    -0.090 HD
ATOM     21  H   LIG d   1      -5.875  80.967 117.667  0.00  0.00    -0.090 HD
ENDBRANCH   5  18
BRANCH   3  22
ATOM     22  C   LIG d   1     -10.262  79.291 118.741  0.00  0.00     0.382 C 
ATOM     23  O   LIG d   1     -10.678  80.430 118.420  0.00  0.00    -0.241 OA
ATOM     24  O   LIG d   1     -10.861  78.644 119.620  0.00  0.00    -0.241 OA
ENDBRANCH   3  22
TORSDOF 7
ENDMDL
MODEL 2
REMARK VINA RESULT:      -5.6      1.900      5.190
REMARK  7 active torsions:
REMARK  status: ('A' for Active; 'I' for Inactive)
REMARK    1  A    between atoms: C_2  and  C_3 
REMARK    2  A    between atoms: C_3  and  O_6 
REMARK    3  A    between atoms: C_3  and  C_4 
REMARK    4  A    between atoms: C_7  and  O_6 
REMARK    5  A    between atoms: C_9  and  C_10 
REMARK    6  A    between atoms: N_15  and  C_14 
REMARK    7  A    between atoms: N_20  and  C_19 
REMARK       I    between atoms: C_22  and  N_20 
ROOT
ATOM      1  C   LIG d   1      -6.041  75.673 116.286  0.00  0.00     0.161 C 
ATOM      2  C   LIG d   1      -4.774  75.354 115.770  0.00  0.00     0.016 C 
ATOM      3  C   LIG d   1      -3.636  76.175 115.938  0.00  0.00     0.038 C 
ATOM      4  C   LIG d   1      -3.653  77.306 116.768  0.00  0.00     0.028 C 
ATOM      5  C   LIG d   1      -5.034  77.940 116.898  0.00  0.00    -0.047 C 
ATOM      6  C   LIG d   1      -6.054  76.846 117.288  0.00  0.00     0.091 C 
ENDROOT
BRANCH   1   7
ATOM      7  O   LIG d   1      -6.637  74.502 116.878  0.00  0.00    -0.368 OA
BRANCH   7   8
ATOM      8  C   LIG d   1      -7.669  73.848 116.099  0.00  0.00     0.119 C 
BRANCH   8   9
ATOM      9  C   LIG d   1      -9.022  74.163 116.767  0.00  0.00     0.028 C 
ATOM     10  C   LIG d   1      -9.802  75.259 116.022  0.00  0.00     0.006 C 
ENDBRANCH   8   9
BRANCH   8  11
ATOM     11  C   LIG d   1      -7.531  72.324 116.160  0.00  0.00     0.028 C 
ATOM     12  C   LIG d   1      -8.752  71.641 116.796  0.00  0.00     0.006 C 
ENDBRANCH   8  11
ENDBRANCH   7   8
ENDBRANCH   1   7
BRANCH   6  13
ATOM     13  N   LIG d   1      -7.445  77.366 117.354  0.00  0.00    -0.311 N 
ATOM     14  C   LIG d   1      -8.026  77.763 118.485  0.00  0.00     0.210 C 
ATOM     15  C   LIG d   1      -9.472  78.245 118.334  0.00  0.00     0.109 C 
ATOM     16  O   LIG d   1      -7.470  77.792 119.593  0.00  0.00    -0.276 OA
ATOM     17  H   LIG d   1      -7.958  77.406 116.496  0.00  0.00     0.149 HD
ENDBRANCH   6  13
BRANCH   5  18
ATOM     18  N   LIG d   1      -4.935  79.021 117.897  0.00  0.00     0.381 N 
ATOM     19  H   LIG d   1      -3.986  79.117 118.200  0.00  0.00    -0.090 HD
ATOM     20  H   LIG d   1      -5.498  78.780 118.693  0.00  0.00    -0.090 HD
ATOM     21  H   LIG d   1      -5.254  79.879 117.503  0.00  0.00    -0.090 HD
ENDBRANCH   5  18
BRANCH   3  22
ATOM     22  C   LIG d   1      -2.473  75.890 115.238  0.00  0.00     0.382 C 
ATOM     23  O   LIG d   1      -1.797  76.821 114.739  0.00  0.00    -0.241 OA
ATOM     24  O   LIG d   1      -2.115  74.710 115.062  0.00  0.00    -0.241 OA
ENDBRANCH   3  22
TORSDOF 7
ENDMDL
MODEL 3
REMARK VINA RESULT:      -5.4      2.137      4.509
REMARK  7 active torsions:
REMARK  status: ('A' for Active; 'I' for Inactive)
REMARK    1  A    between atoms: C_2  and  C_3 
REMARK    2  A    between atoms: C_3  and  O_6 
REMARK    3  A    between atoms: C_3  and  C_4 
REMARK    4  A    between atoms: C_7  and  O_6 
REMARK    5  A    between atoms: C_9  and  C_10 
REMARK    6  A    between atoms: N_15  and  C_14 
REMARK    7  A    between atoms: N_20  and  C_19 
REMARK       I    between atoms: C_22  and  N_20 
ROOT
ATOM      1  C   LIG d   1      -5.979  77.205 116.574  0.00  0.00     0.161 C 
ATOM      2  C   LIG d   1      -6.201  78.544 116.934  0.00  0.00     0.016 C 
ATOM      3  C   LIG d   1      -7.416  79.011 117.487  0.00  0.00     0.038 C 
ATOM      4  C   LIG d   1      -8.445  78.134 117.860  0.00  0.00     0.028 C 
ATOM      5  C   LIG d   1      -8.463  76.842 117.051  0.00  0.00    -0.047 C 
ATOM      6  C   LIG d   1      -7.051  76.214 117.076  0.00  0.00     0.091 C 
ENDROOT
BRANCH   1   7
ATOM      7  O   LIG d   1      -4.670  76.791 117.012  0.00  0.00    -0.368 OA
BRANCH   7   8
ATOM      8  C   LIG d   1      -3.661  76.671 115.979  0.00  0.00     0.119 C 
BRANCH   8   9
ATOM      9  C   LIG d   1      -3.380  75.169 115.779  0.00  0.00     0.028 C 
ATOM     10  C   LIG d   1      -1.875  74.849 115.778  0.00  0.00     0.006 C 
ENDBRANCH   8   9
BRANCH   8  11
ATOM     11  C   LIG d   1      -2.328  77.277 116.430  0.00  0.00     0.028 C 
ATOM     12  C   LIG d   1      -2.429  78.001 117.781  0.00  0.00     0.006 C 
ENDBRANCH   8  11
ENDBRANCH   7   8
ENDBRANCH   1   7
BRANCH   6  13
ATOM     13  N   LIG d   1      -6.959  74.990 116.239  0.00  0.00    -0.311 N 
ATOM     14  C   LIG d   1      -7.056  73.756 116.731  0.00  0.00     0.210 C 
ATOM     15  C   LIG d   1      -6.914  72.634 115.698  0.00  0.00     0.109 C 
ATOM     16  O   LIG d   1      -7.278  73.485 117.921  0.00  0.00    -0.276 OA
ATOM     17  H   LIG d   1      -6.811  75.119 115.257  0.00  0.00     0.149 HD
ENDBRANCH   6  13
BRANCH   5  18
ATOM     18  N   LIG d   1      -9.496  75.965 117.635  0.00  0.00     0.381 N 
ATOM     19  H   LIG d   1      -9.502  75.085 117.158  0.00  0.00    -0.090 HD
ATOM     20  H   LIG d   1     -10.395  76.396 117.513  0.00  0.00    -0.090 HD
ATOM     21  H   LIG d   1      -9.315  75.824 118.604  0.00  0.00    -0.090 HD
ENDBRANCH   5  18
BRANCH   3  22
ATOM     22  C   LIG d   1      -7.625  80.374 117.635  0.00  0.00     0.382 C 
ATOM     23  O   LIG d   1      -8.403  80.795 118.524  0.00  0.00    -0.241 OA
ATOM     24  O   LIG d   1      -7.080  81.184 116.862  0.00  0.00    -0.241 OA
ENDBRANCH   3  22
TORSDOF 7
ENDMDL
MODEL 4
REMARK VINA RESULT:      -5.1      2.047      4.235
REMARK  7 active torsions:
REMARK  status: ('A' for Active; 'I' for Inactive)
REMARK    1  A    between atoms: C_2  and  C_3 
REMARK    2  A    between atoms: C_3  and  O_6 
REMARK    3  A    between atoms: C_3  and  C_4 
REMARK    4  A    between atoms: C_7  and  O_6 
REMARK    5  A    between atoms: C_9  and  C_10 
REMARK    6  A    between atoms: N_15  and  C_14 
REMARK    7  A    between atoms: N_20  and  C_19 
REMARK       I    between atoms: C_22  and  N_20 
ROOT
ATOM      1  C   LIG d   1      -7.225  77.892 117.406  0.00  0.00     0.161 C 
ATOM      2  C   LIG d   1      -8.250  78.541 118.114  0.00  0.00     0.016 C 
ATOM      3  C   LIG d   1      -9.556  78.016 118.249  0.00  0.00     0.038 C 
ATOM      4  C   LIG d   1      -9.886  76.726 117.808  0.00  0.00     0.028 C 
ATOM      5  C   LIG d   1      -9.024  76.245 116.646  0.00  0.00    -0.047 C 
ATOM      6  C   LIG d   1      -7.535  76.433 117.013  0.00  0.00     0.091 C 
ENDROOT
BRANCH   1   7
ATOM      7  O   LIG d   1      -5.995  77.960 118.154  0.00  0.00    -0.368 OA
BRANCH   7   8
ATOM      8  C   LIG d   1      -5.088  79.030 117.792  0.00  0.00     0.119 C 
BRANCH   8   9
ATOM      9  C   LIG d   1      -4.104  78.469 116.747  0.00  0.00     0.028 C 
ATOM     10  C   LIG d   1      -3.086  77.495 117.362  0.00  0.00     0.006 C 
ENDBRANCH   8   9
BRANCH   8  11
ATOM     11  C   LIG d   1      -4.219  79.449 118.982  0.00  0.00     0.028 C 
ATOM     12  C   LIG d   1      -4.865  79.120 120.337  0.00  0.00     0.006 C 
ENDBRANCH   8  11
ENDBRANCH   7   8
ENDBRANCH   1   7
BRANCH   6  13
ATOM     13  N   LIG d   1      -6.625  76.065 115.897  0.00  0.00    -0.311 N 
ATOM     14  C   LIG d   1      -6.064  74.863 115.774  0.00  0.00     0.210 C 
ATOM     15  C   LIG d   1      -5.143  74.700 114.561  0.00  0.00     0.109 C 
ATOM     16  O   LIG d   1      -6.266  73.907 116.537  0.00  0.00    -0.276 OA
ATOM     17  H   LIG d   1      -6.430  76.772 115.215  0.00  0.00     0.149 HD
ENDBRANCH   6  13
BRANCH   5  18
ATOM     18  N   LIG d   1      -9.381  74.838 116.379  0.00  0.00     0.381 N 
ATOM     19  H   LIG d   1     -10.233  74.609 116.851  0.00  0.00    -0.090 HD
ATOM     20  H   LIG d   1      -8.653  74.245 116.736  0.00  0.00    -0.090 HD
ATOM     21  H   LIG d   1      -9.487  74.693 115.399  0.00  0.00    -0.090 HD
ENDBRANCH   5  18
BRANCH   3  22
ATOM     22  C   LIG d   1     -10.560  78.802 118.795  0.00  0.00     0.382 C 
ATOM     23  O   LIG d   1     -10.571  80.039 118.587  0.00  0.00    -0.241 OA
ATOM     24  O   LIG d   1     -11.429  78.296 119.530  0.00  0.00    -0.241 OA
ENDBRANCH   3  22
TORSDOF 7
ENDMDL
MODEL 5
REMARK VINA RESULT:      -5.1     14.298     16.884
REMARK  7 active torsions:
REMARK  status: ('A' for Active; 'I' for Inactive)
REMARK    1  A    between atoms: C_2  and  C_3 
REMARK    2  A    between atoms: C_3  and  O_6 
REMARK    3  A    between atoms: C_3  and  C_4 
REMARK    4  A    between atoms: C_7  and  O_6 
REMARK    5  A    between atoms: C_9  and  C_10 
REMARK    6  A    between atoms: N_15  and  C_14 
REMARK    7  A    between atoms: N_20  and  C_19 
REMARK       I    between atoms: C_22  and  N_20 
ROOT
ATOM      1  C   LIG d   1      -5.141  92.435 118.118  0.00  0.00     0.161 C 
ATOM      2  C   LIG d   1      -5.154  91.564 117.016  0.00  0.00     0.016 C 
ATOM      3  C   LIG d   1      -6.245  91.454 116.124  0.00  0.00     0.038 C 
ATOM      4  C   LIG d   1      -7.344  92.324 116.186  0.00  0.00     0.028 C 
ATOM      5  C   LIG d   1      -7.600  92.877 117.584  0.00  0.00    -0.047 C 
ATOM      6  C   LIG d   1      -6.285  93.470 118.138  0.00  0.00     0.091 C 
ENDROOT
BRANCH   1   7
ATOM      7  O   LIG d   1      -3.864  93.098 118.202  0.00  0.00    -0.368 OA
BRANCH   7   8
ATOM      8  C   LIG d   1      -2.891  92.496 119.091  0.00  0.00     0.119 C 
BRANCH   8   9
ATOM      9  C   LIG d   1      -2.855  93.341 120.379  0.00  0.00     0.028 C 
ATOM     10  C   LIG d   1      -3.684  92.717 121.514  0.00  0.00     0.006 C 
ENDBRANCH   8   9
BRANCH   8  11
ATOM     11  C   LIG d   1      -1.477  92.582 118.510  0.00  0.00     0.028 C 
ATOM     12  C   LIG d   1      -0.409  92.867 119.579  0.00  0.00     0.006 C 
ENDBRANCH   8  11
ENDBRANCH   7   8
ENDBRANCH   1   7
BRANCH   6  13
ATOM     13  N   LIG d   1      -6.427  93.958 119.534  0.00  0.00    -0.311 N 
ATOM     14  C   LIG d   1      -6.327  95.241 119.877  0.00  0.00     0.210 C 
ATOM     15  C   LIG d   1      -6.486  95.525 121.374  0.00  0.00     0.109 C 
ATOM     16  O   LIG d   1      -6.153  96.175 119.079  0.00  0.00    -0.276 OA
ATOM     17  H   LIG d   1      -6.600  93.271 120.242  0.00  0.00     0.149 HD
ENDBRANCH   6  13
BRANCH   5  18
ATOM     18  N   LIG d   1      -8.684  93.872 117.477  0.00  0.00     0.381 N 
ATOM     19  H   LIG d   1      -8.295  94.785 117.354  0.00  0.00    -0.090 HD
ATOM     20  H   LIG d   1      -9.214  93.868 118.331  0.00  0.00    -0.090 HD
ATOM     21  H   LIG d   1      -9.277  93.649 116.709  0.00  0.00    -0.090 HD
ENDBRANCH   5  18
BRANCH   3  22
ATOM     22  C   LIG d   1      -6.261  90.439 115.179  0.00  0.00     0.382 C 
ATOM     23  O   LIG d   1      -7.318  90.179 114.556  0.00  0.00    -0.241 OA
ATOM     24  O   LIG d   1      -5.243  89.750 114.975  0.00  0.00    -0.241 OA
ENDBRANCH   3  22
TORSDOF 7
ENDMDL
MODEL 6
REMARK VINA RESULT:      -5.0     14.906     17.382
REMARK  7 active torsions:
REMARK  status: ('A' for Active; 'I' for Inactive)
REMARK    1  A    between atoms: C_2  and  C_3 
REMARK    2  A    between atoms: C_3  and  O_6 
REMARK    3  A    between atoms: C_3  and  C_4 
REMARK    4  A    between atoms: C_7  and  O_6 
REMARK    5  A    between atoms: C_9  and  C_10 
REMARK    6  A    between atoms: N_15  and  C_14 
REMARK    7  A    between atoms: N_20  and  C_19 
REMARK       I    between atoms: C_22  and  N_20 
ROOT
ATOM      1  C   LIG d   1      -6.032  93.595 118.727  0.00  0.00     0.161 C 
ATOM      2  C   LIG d   1      -6.771  93.019 117.680  0.00  0.00     0.016 C 
ATOM      3  C   LIG d   1      -6.238  92.060 116.788  0.00  0.00     0.038 C 
ATOM      4  C   LIG d   1      -4.967  91.497 116.977  0.00  0.00     0.028 C 
ATOM      5  C   LIG d   1      -4.002  92.415 117.719  0.00  0.00    -0.047 C 
ATOM      6  C   LIG d   1      -4.679  92.911 119.017  0.00  0.00     0.091 C 
ENDROOT
BRANCH   1   7
ATOM      7  O   LIG d   1      -6.836  93.643 119.923  0.00  0.00    -0.368 OA
BRANCH   7   8
ATOM      8  C   LIG d   1      -7.345  94.947 120.296  0.00  0.00     0.119 C 
BRANCH   8   9
ATOM      9  C   LIG d   1      -8.817  95.015 119.845  0.00  0.00     0.028 C 
ATOM     10  C   LIG d   1      -9.021  95.953 118.644  0.00  0.00     0.006 C 
ENDBRANCH   8   9
BRANCH   8  11
ATOM     11  C   LIG d   1      -6.634  96.065 119.527  0.00  0.00     0.028 C 
ATOM     12  C   LIG d   1      -5.752  96.941 120.429  0.00  0.00     0.006 C 
ENDBRANCH   8  11
ENDBRANCH   7   8
ENDBRANCH   1   7
BRANCH   6  13
ATOM     13  N   LIG d   1      -3.836  93.882 119.762  0.00  0.00    -0.311 N 
ATOM     14  C   LIG d   1      -3.002  93.530 120.739  0.00  0.00     0.210 C 
ATOM     15  C   LIG d   1      -2.240  94.689 121.389  0.00  0.00     0.109 C 
ATOM     16  O   LIG d   1      -2.796  92.363 121.107  0.00  0.00    -0.276 OA
ATOM     17  H   LIG d   1      -3.916  94.847 119.507  0.00  0.00     0.149 HD
ENDBRANCH   6  13
BRANCH   5  18
ATOM     18  N   LIG d   1      -2.764  91.653 117.969  0.00  0.00     0.381 N 
ATOM     19  H   LIG d   1      -1.968  92.227 117.776  0.00  0.00    -0.090 HD
ATOM     20  H   LIG d   1      -2.739  90.862 117.349  0.00  0.00    -0.090 HD
ATOM     21  H   LIG d   1      -2.739  91.344 118.915  0.00  0.00    -0.090 HD
ENDBRANCH   5  18
BRANCH   3  22
ATOM     22  C   LIG d   1      -6.965  91.685 115.668  0.00  0.00     0.382 C 
ATOM     23  O   LIG d   1      -7.851  90.802 115.764  0.00  0.00    -0.241 OA
ATOM     24  O   LIG d   1      -6.715  92.186 114.556  0.00  0.00    -0.241 OA
ENDBRANCH   3  22
TORSDOF 7
ENDMDL
MODEL 7
REMARK VINA RESULT:      -4.9     11.298     13.862
REMARK  7 active torsions:
REMARK  status: ('A' for Active; 'I' for Inactive)
REMARK    1  A    between atoms: C_2  and  C_3 
REMARK    2  A    between atoms: C_3  and  O_6 
REMARK    3  A    between atoms: C_3  and  C_4 
REMARK    4  A    between atoms: C_7  and  O_6 
REMARK    5  A    between atoms: C_9  and  C_10 
REMARK    6  A    between atoms: N_15  and  C_14 
REMARK    7  A    between atoms: N_20  and  C_19 
REMARK       I    between atoms: C_22  and  N_20 
ROOT
ATOM      1  C   LIG d   1     -13.492  66.711 121.682  0.00  0.00     0.161 C 
ATOM      2  C   LIG d   1     -12.241  66.496 122.285  0.00  0.00     0.016 C 
ATOM      3  C   LIG d   1     -11.397  65.409 121.960  0.00  0.00     0.038 C 
ATOM      4  C   LIG d   1     -11.683  64.541 120.895  0.00  0.00     0.028 C 
ATOM      5  C   LIG d   1     -13.173  64.421 120.595  0.00  0.00    -0.047 C 
ATOM      6  C   LIG d   1     -13.770  65.838 120.441  0.00  0.00     0.091 C 
ENDROOT
BRANCH   1   7
ATOM      7  O   LIG d   1     -13.644  68.107 121.358  0.00  0.00    -0.368 OA
BRANCH   7   8
ATOM      8  C   LIG d   1     -14.435  68.894 122.283  0.00  0.00     0.119 C 
BRANCH   8   9
ATOM      9  C   LIG d   1     -15.731  69.300 121.554  0.00  0.00     0.028 C 
ATOM     10  C   LIG d   1     -15.457  69.923 120.174  0.00  0.00     0.006 C 
ENDBRANCH   8   9
BRANCH   8  11
ATOM     11  C   LIG d   1     -13.737  70.211 122.633  0.00  0.00     0.028 C 
ATOM     12  C   LIG d   1     -12.216  70.154 122.420  0.00  0.00     0.006 C 
ENDBRANCH   8  11
ENDBRANCH   7   8
ENDBRANCH   1   7
BRANCH   6  13
ATOM     13  N   LIG d   1     -15.241  65.814 120.228  0.00  0.00    -0.311 N 
ATOM     14  C   LIG d   1     -15.839  66.369 119.176  0.00  0.00     0.210 C 
ATOM     15  C   LIG d   1     -17.366  66.248 119.161  0.00  0.00     0.109 C 
ATOM     16  O   LIG d   1     -15.247  66.923 118.237  0.00  0.00    -0.276 OA
ATOM     17  H   LIG d   1     -15.795  65.358 120.926  0.00  0.00     0.149 HD
ENDBRANCH   6  13
BRANCH   5  18
ATOM     18  N   LIG d   1     -13.317  63.597 119.380  0.00  0.00     0.381 N 
ATOM     19  H   LIG d   1     -13.908  64.065 118.722  0.00  0.00    -0.090 HD
ATOM     20  H   LIG d   1     -13.750  62.725 119.628  0.00  0.00    -0.090 HD
ATOM     21  H   LIG d   1     -12.423  63.429 118.973  0.00  0.00    -0.090 HD
ENDBRANCH   5  18
BRANCH   3  22
ATOM     22  C   LIG d   1     -10.272  65.158 122.731  0.00  0.00     0.382 C 
ATOM     23  O   LIG d   1      -9.973  65.930 123.674  0.00  0.00    -0.241 OA
ATOM     24  O   LIG d   1      -9.529  64.194 122.468  0.00  0.00    -0.241 OA
ENDBRANCH   3  22
TORSDOF 7
ENDMDL
MODEL 8
REMARK VINA RESULT:      -4.9      1.973      4.456
REMARK  7 active torsions:
REMARK  status: ('A' for Active; 'I' for Inactive)
REMARK    1  A    between atoms: C_2  and  C_3 
REMARK    2  A    between atoms: C_3  and  O_6 
REMARK    3  A    between atoms: C_3  and  C_4 
REMARK    4  A    between atoms: C_7  and  O_6 
REMARK    5  A    between atoms: C_9  and  C_10 
REMARK    6  A    between atoms: N_15  and  C_14 
REMARK    7  A    between atoms: N_20  and  C_19 
REMARK       I    between atoms: C_22  and  N_20 
ROOT
ATOM      1  C   LIG d   1      -6.693  77.999 117.281  0.00  0.00     0.161 C 
ATOM      2  C   LIG d   1      -7.343  79.163 117.723  0.00  0.00     0.016 C 
ATOM      3  C   LIG d   1      -8.714  79.206 118.067  0.00  0.00     0.038 C 
ATOM      4  C   LIG d   1      -9.497  78.044 118.138  0.00  0.00     0.028 C 
ATOM      5  C   LIG d   1      -9.013  76.931 117.215  0.00  0.00    -0.047 C 
ATOM      6  C   LIG d   1      -7.504  76.698 117.458  0.00  0.00     0.091 C 
ENDROOT
BRANCH   1   7
ATOM      7  O   LIG d   1      -5.410  77.881 117.927  0.00  0.00    -0.368 OA
BRANCH   7   8
ATOM      8  C   LIG d   1      -4.267  77.728 117.051  0.00  0.00     0.119 C 
BRANCH   8   9
ATOM      9  C   LIG d   1      -3.001  77.766 117.930  0.00  0.00     0.028 C 
ATOM     10  C   LIG d   1      -3.159  78.694 119.146  0.00  0.00     0.006 C 
ENDBRANCH   8   9
BRANCH   8  11
ATOM     11  C   LIG d   1      -4.133  78.919 116.097  0.00  0.00     0.028 C 
ATOM     12  C   LIG d   1      -3.004  78.736 115.071  0.00  0.00     0.006 C 
ENDBRANCH   8  11
ENDBRANCH   7   8
ENDBRANCH   1   7
BRANCH   6  13
ATOM     13  N   LIG d   1      -6.932  75.683 116.536  0.00  0.00    -0.311 N 
ATOM     14  C   LIG d   1      -6.872  74.383 116.823  0.00  0.00     0.210 C 
ATOM     15  C   LIG d   1      -6.225  73.511 115.743  0.00  0.00     0.109 C 
ATOM     16  O   LIG d   1      -7.324  73.866 117.856  0.00  0.00    -0.276 OA
ATOM     17  H   LIG d   1      -6.571  76.011 115.662  0.00  0.00     0.149 HD
ENDBRANCH   6  13
BRANCH   5  18
ATOM     18  N   LIG d   1      -9.834  75.736 117.490  0.00  0.00     0.381 N 
ATOM     19  H   LIG d   1     -10.584  75.975 118.107  0.00  0.00    -0.090 HD
ATOM     20  H   LIG d   1      -9.261  75.046 117.944  0.00  0.00    -0.090 HD
ATOM     21  H   LIG d   1     -10.198  75.369 116.639  0.00  0.00    -0.090 HD
ENDBRANCH   5  18
BRANCH   3  22
ATOM     22  C   LIG d   1      -9.324  80.428 118.307  0.00  0.00     0.382 C 
ATOM     23  O   LIG d   1      -8.675  81.359 118.840  0.00  0.00    -0.241 OA
ATOM     24  O   LIG d   1     -10.529  80.595 118.038  0.00  0.00    -0.241 OA
ENDBRANCH   3  22
TORSDOF 7
ENDMDL
MODEL 9
REMARK VINA RESULT:      -4.8      2.274      5.878
REMARK  7 active torsions:
REMARK  status: ('A' for Active; 'I' for Inactive)
REMARK    1  A    between atoms: C_2  and  C_3 
REMARK    2  A    between atoms: C_3  and  O_6 
REMARK    3  A    between atoms: C_3  and  C_4 
REMARK    4  A    between atoms: C_7  and  O_6 
REMARK    5  A    between atoms: C_9  and  C_10 
REMARK    6  A    between atoms: N_15  and  C_14 
REMARK    7  A    between atoms: N_20  and  C_19 
REMARK       I    between atoms: C_22  and  N_20 
ROOT
ATOM      1  C   LIG d   1      -6.649  77.495 117.093  0.00  0.00     0.161 C 
ATOM      2  C   LIG d   1      -5.629  78.413 116.789  0.00  0.00     0.016 C 
ATOM      3  C   LIG d   1      -4.628  78.171 115.821  0.00  0.00     0.038 C 
ATOM      4  C   LIG d   1      -4.667  77.051 114.977  0.00  0.00     0.028 C 
ATOM      5  C   LIG d   1      -5.389  75.856 115.590  0.00  0.00    -0.047 C 
ATOM      6  C   LIG d   1      -6.772  76.316 116.105  0.00  0.00     0.091 C 
ENDROOT
BRANCH   1   7
ATOM      7  O   LIG d   1      -7.909  78.185 117.209  0.00  0.00    -0.368 OA
BRANCH   7   8
ATOM      8  C   LIG d   1      -7.988  79.196 118.244  0.00  0.00     0.119 C 
BRANCH   8   9
ATOM      9  C   LIG d   1      -8.894  78.643 119.362  0.00  0.00     0.028 C 
ATOM     10  C   LIG d   1     -10.284  78.237 118.844  0.00  0.00     0.006 C 
ENDBRANCH   8   9
BRANCH   8  11
ATOM     11  C   LIG d   1      -8.693  80.458 117.738  0.00  0.00     0.028 C 
ATOM     12  C   LIG d   1      -7.719  81.614 117.461  0.00  0.00     0.006 C 
ENDBRANCH   8  11
ENDBRANCH   7   8
ENDBRANCH   1   7
BRANCH   6  13
ATOM     13  N   LIG d   1      -7.511  75.227 116.795  0.00  0.00    -0.311 N 
ATOM     14  C   LIG d   1      -8.771  74.901 116.512  0.00  0.00     0.210 C 
ATOM     15  C   LIG d   1      -9.350  73.761 117.355  0.00  0.00     0.109 C 
ATOM     16  O   LIG d   1      -9.454  75.427 115.619  0.00  0.00    -0.276 OA
ATOM     17  H   LIG d   1      -7.022  74.727 117.512  0.00  0.00     0.149 HD
ENDBRANCH   6  13
BRANCH   5  18
ATOM     18  N   LIG d   1      -5.476  74.809 114.555  0.00  0.00     0.381 N 
ATOM     19  H   LIG d   1      -6.390  74.810 114.148  0.00  0.00    -0.090 HD
ATOM     20  H   LIG d   1      -5.324  73.913 114.985  0.00  0.00    -0.090 HD
ATOM     21  H   LIG d   1      -4.791  74.968 113.850  0.00  0.00    -0.090 HD
ENDBRANCH   5  18
BRANCH   3  22
ATOM     22  C   LIG d   1      -3.550  79.037 115.717  0.00  0.00     0.382 C 
ATOM     23  O   LIG d   1      -2.740  79.148 116.669  0.00  0.00    -0.241 OA
ATOM     24  O   LIG d   1      -3.401  79.741 114.700  0.00  0.00    -0.241 OA
ENDBRANCH   3  22
TORSDOF 7
ENDMDL
