MODEL 1
REMARK VINA RESULT:      -5.9      0.000      0.000
REMARK  7 active torsions:
REMARK  status: ('A' for Active; 'I' for Inactive)
REMARK    1  A    between atoms: C_2  and  C_3 
REMARK    2  A    between atoms: C_3  and  O_6 
REMARK    3  A    between atoms: C_3  and  C_4 
REMARK    4  A    between atoms: C_7  and  O_6 
REMARK    5  A    between atoms: C_9  and  C_10 
REMARK    6  A    between atoms: N_15  and  C_14 
REMARK    7  A    between atoms: N_20  and  C_19 
REMARK       I    between atoms: C_22  and  N_20 
ROOT
ATOM      1  C   LIG d   1      -2.952  77.174 114.540  0.00  0.00     0.161 C 
ATOM      2  C   LIG d   1      -3.046  78.337 113.757  0.00  0.00     0.016 C 
ATOM      3  C   LIG d   1      -1.949  79.188 113.494  0.00  0.00     0.038 C 
ATOM      4  C   LIG d   1      -0.641  78.851 113.873  0.00  0.00     0.028 C 
ATOM      5  C   LIG d   1      -0.580  77.943 115.096  0.00  0.00    -0.047 C 
ATOM      6  C   LIG d   1      -1.511  76.730 114.868  0.00  0.00     0.091 C 
ENDROOT
BRANCH   1   7
ATOM      7  O   LIG d   1      -3.675  76.099 113.906  0.00  0.00    -0.368 OA
BRANCH   7   8
ATOM      8  C   LIG d   1      -4.841  75.611 114.614  0.00  0.00     0.119 C 
BRANCH   8   9
ATOM      9  C   LIG d   1      -5.119  74.179 114.116  0.00  0.00     0.028 C 
ATOM     10  C   LIG d   1      -5.814  73.313 115.180  0.00  0.00     0.006 C 
ENDBRANCH   8   9
BRANCH   8  11
ATOM     11  C   LIG d   1      -6.091  76.417 114.251  0.00  0.00     0.028 C 
ATOM     12  C   LIG d   1      -6.321  76.509 112.734  0.00  0.00     0.006 C 
ENDBRANCH   8  11
ENDBRANCH   7   8
ENDBRANCH   1   7
BRANCH   6  13
ATOM     13  N   LIG d   1      -1.576  75.835 116.053  0.00  0.00    -0.311 N 
ATOM     14  C   LIG d   1      -1.320  74.529 115.999  0.00  0.00     0.210 C 
ATOM     15  C   LIG d   1      -1.463  73.786 117.331  0.00  0.00     0.109 C 
ATOM     16  O   LIG d   1      -0.956  73.921 114.981  0.00  0.00    -0.276 OA
ATOM     17  H   LIG d   1      -1.833  76.251 116.926  0.00  0.00     0.149 HD
ENDBRANCH   6  13
BRANCH   5  18
ATOM     18  N   LIG d   1       0.830  77.559 115.297  0.00  0.00     0.381 N 
ATOM     19  H   LIG d   1       0.922  77.038 116.146  0.00  0.00    -0.090 HD
ATOM     20  H   LIG d   1       1.385  78.393 115.377  0.00  0.00    -0.090 HD
ATOM     21  H   LIG d   1       1.147  77.013 114.527  0.00  0.00    -0.090 HD
ENDBRANCH   5  18
BRANCH   3  22
ATOM     22  C   LIG d   1      -2.161  80.413 112.879  0.00  0.00     0.382 C 
ATOM     23  O   LIG d   1      -1.290  80.888 112.111  0.00  0.00    -0.241 OA
ATOM     24  O   LIG d   1      -3.193  81.069 113.116  0.00  0.00    -0.241 OA
ENDBRANCH   3  22
TORSDOF 7
ENDMDL
MODEL 2
REMARK VINA RESULT:      -5.3     14.869     17.610
REMARK  7 active torsions:
REMARK  status: ('A' for Active; 'I' for Inactive)
REMARK    1  A    between atoms: C_2  and  C_3 
REMARK    2  A    between atoms: C_3  and  O_6 
REMARK    3  A    between atoms: C_3  and  C_4 
REMARK    4  A    between atoms: C_7  and  O_6 
REMARK    5  A    between atoms: C_9  and  C_10 
REMARK    6  A    between atoms: N_15  and  C_14 
REMARK    7  A    between atoms: N_20  and  C_19 
REMARK       I    between atoms: C_22  and  N_20 
ROOT
ATOM      1  C   LIG d   1      -6.249  93.373 118.475  0.00  0.00     0.161 C 
ATOM      2  C   LIG d   1      -7.026  92.407 117.815  0.00  0.00     0.016 C 
ATOM      3  C   LIG d   1      -6.475  91.294 117.139  0.00  0.00     0.038 C 
ATOM      4  C   LIG d   1      -5.107  90.988 117.207  0.00  0.00     0.028 C 
ATOM      5  C   LIG d   1      -4.224  92.210 117.438  0.00  0.00    -0.047 C 
ATOM      6  C   LIG d   1      -4.764  92.996 118.655  0.00  0.00     0.091 C 
ENDROOT
BRANCH   1   7
ATOM      7  O   LIG d   1      -6.844  93.690 119.750  0.00  0.00    -0.368 OA
BRANCH   7   8
ATOM      8  C   LIG d   1      -7.529  94.963 119.835  0.00  0.00     0.119 C 
BRANCH   8   9
ATOM      9  C   LIG d   1      -9.042  94.680 119.755  0.00  0.00     0.028 C 
ATOM     10  C   LIG d   1      -9.519  93.723 120.860  0.00  0.00     0.006 C 
ENDBRANCH   8   9
BRANCH   8  11
ATOM     11  C   LIG d   1      -7.218  95.846 118.623  0.00  0.00     0.028 C 
ATOM     12  C   LIG d   1      -8.402  96.735 118.213  0.00  0.00     0.006 C 
ENDBRANCH   8  11
ENDBRANCH   7   8
ENDBRANCH   1   7
BRANCH   6  13
ATOM     13  N   LIG d   1      -4.008  94.252 118.899  0.00  0.00    -0.311 N 
ATOM     14  C   LIG d   1      -2.981  94.337 119.743  0.00  0.00     0.210 C 
ATOM     15  C   LIG d   1      -2.355  95.730 119.861  0.00  0.00     0.109 C 
ATOM     16  O   LIG d   1      -2.509  93.384 120.381  0.00  0.00    -0.276 OA
ATOM     17  H   LIG d   1      -4.304  95.067 118.399  0.00  0.00     0.149 HD
ENDBRANCH   6  13
BRANCH   5  18
ATOM     18  N   LIG d   1      -2.842  91.731 117.626  0.00  0.00     0.381 N 
ATOM     19  H   LIG d   1      -2.802  90.743 117.475  0.00  0.00    -0.090 HD
ATOM     20  H   LIG d   1      -2.559  91.917 118.572  0.00  0.00    -0.090 HD
ATOM     21  H   LIG d   1      -2.231  92.197 116.992  0.00  0.00    -0.090 HD
ENDBRANCH   5  18
BRANCH   3  22
ATOM     22  C   LIG d   1      -7.290  90.496 116.351  0.00  0.00     0.382 C 
ATOM     23  O   LIG d   1      -8.358  90.035 116.820  0.00  0.00    -0.241 OA
ATOM     24  O   LIG d   1      -6.948  90.194 115.192  0.00  0.00    -0.241 OA
ENDBRANCH   3  22
TORSDOF 7
ENDMDL
MODEL 3
REMARK VINA RESULT:      -5.2     16.439     19.966
REMARK  7 active torsions:
REMARK  status: ('A' for Active; 'I' for Inactive)
REMARK    1  A    between atoms: C_2  and  C_3 
REMARK    2  A    between atoms: C_3  and  O_6 
REMARK    3  A    between atoms: C_3  and  C_4 
REMARK    4  A    between atoms: C_7  and  O_6 
REMARK    5  A    between atoms: C_9  and  C_10 
REMARK    6  A    between atoms: N_15  and  C_14 
REMARK    7  A    between atoms: N_20  and  C_19 
REMARK       I    between atoms: C_22  and  N_20 
ROOT
ATOM      1  C   LIG d   1     -16.422  63.268 115.812  0.00  0.00     0.161 C 
ATOM      2  C   LIG d   1     -16.808  62.027 115.279  0.00  0.00     0.016 C 
ATOM      3  C   LIG d   1     -17.232  61.853 113.942  0.00  0.00     0.038 C 
ATOM      4  C   LIG d   1     -17.154  62.888 112.998  0.00  0.00     0.028 C 
ATOM      5  C   LIG d   1     -17.249  64.279 113.616  0.00  0.00    -0.047 C 
ATOM      6  C   LIG d   1     -16.224  64.387 114.768  0.00  0.00     0.091 C 
ENDROOT
BRANCH   1   7
ATOM      7  O   LIG d   1     -15.230  63.109 116.608  0.00  0.00    -0.368 OA
BRANCH   7   8
ATOM      8  C   LIG d   1     -15.436  62.841 118.017  0.00  0.00     0.119 C 
BRANCH   8   9
ATOM      9  C   LIG d   1     -14.523  63.798 118.807  0.00  0.00     0.028 C 
ATOM     10  C   LIG d   1     -15.016  65.254 118.758  0.00  0.00     0.006 C 
ENDBRANCH   8   9
BRANCH   8  11
ATOM     11  C   LIG d   1     -14.967  61.432 118.391  0.00  0.00     0.028 C 
ATOM     12  C   LIG d   1     -16.133  60.475 118.686  0.00  0.00     0.006 C 
ENDBRANCH   8  11
ENDBRANCH   7   8
ENDBRANCH   1   7
BRANCH   6  13
ATOM     13  N   LIG d   1     -16.308  65.688 115.482  0.00  0.00    -0.311 N 
ATOM     14  C   LIG d   1     -15.592  66.758 115.142  0.00  0.00     0.210 C 
ATOM     15  C   LIG d   1     -15.816  67.992 116.021  0.00  0.00     0.109 C 
ATOM     16  O   LIG d   1     -14.816  66.812 114.176  0.00  0.00    -0.276 OA
ATOM     17  H   LIG d   1     -16.937  65.742 116.259  0.00  0.00     0.149 HD
ENDBRANCH   6  13
BRANCH   5  18
ATOM     18  N   LIG d   1     -17.015  65.261 112.540  0.00  0.00     0.381 N 
ATOM     19  H   LIG d   1     -17.030  64.800 111.652  0.00  0.00    -0.090 HD
ATOM     20  H   LIG d   1     -16.107  65.672 112.667  0.00  0.00    -0.090 HD
ATOM     21  H   LIG d   1     -17.715  65.969 112.567  0.00  0.00    -0.090 HD
ENDBRANCH   5  18
BRANCH   3  22
ATOM     22  C   LIG d   1     -17.779  60.641 113.547  0.00  0.00     0.382 C 
ATOM     23  O   LIG d   1     -17.037  59.644 113.376  0.00  0.00    -0.241 OA
ATOM     24  O   LIG d   1     -19.000  60.544 113.317  0.00  0.00    -0.241 OA
ENDBRANCH   3  22
TORSDOF 7
ENDMDL
MODEL 4
REMARK VINA RESULT:      -5.0      9.244     11.412
REMARK  7 active torsions:
REMARK  status: ('A' for Active; 'I' for Inactive)
REMARK    1  A    between atoms: C_2  and  C_3 
REMARK    2  A    between atoms: C_3  and  O_6 
REMARK    3  A    between atoms: C_3  and  C_4 
REMARK    4  A    between atoms: C_7  and  O_6 
REMARK    5  A    between atoms: C_9  and  C_10 
REMARK    6  A    between atoms: N_15  and  C_14 
REMARK    7  A    between atoms: N_20  and  C_19 
REMARK       I    between atoms: C_22  and  N_20 
ROOT
ATOM      1  C   LIG d   1       2.761  85.020 113.337  0.00  0.00     0.161 C 
ATOM      2  C   LIG d   1       1.436  84.701 112.996  0.00  0.00     0.016 C 
ATOM      3  C   LIG d   1       0.522  85.640 112.464  0.00  0.00     0.038 C 
ATOM      4  C   LIG d   1       0.919  86.933 112.093  0.00  0.00     0.028 C 
ATOM      5  C   LIG d   1       2.115  87.450 112.887  0.00  0.00    -0.047 C 
ATOM      6  C   LIG d   1       3.245  86.397 112.836  0.00  0.00     0.091 C 
ENDROOT
BRANCH   1   7
ATOM      7  O   LIG d   1       3.647  83.980 112.877  0.00  0.00    -0.368 OA
BRANCH   7   8
ATOM      8  C   LIG d   1       4.113  83.048 113.884  0.00  0.00     0.119 C 
BRANCH   8   9
ATOM      9  C   LIG d   1       5.071  83.815 114.816  0.00  0.00     0.028 C 
ATOM     10  C   LIG d   1       5.690  82.909 115.894  0.00  0.00     0.006 C 
ENDBRANCH   8   9
BRANCH   8  11
ATOM     11  C   LIG d   1       4.959  81.933 113.262  0.00  0.00     0.028 C 
ATOM     12  C   LIG d   1       5.604  82.346 111.930  0.00  0.00     0.006 C 
ENDBRANCH   8  11
ENDBRANCH   7   8
ENDBRANCH   1   7
BRANCH   6  13
ATOM     13  N   LIG d   1       4.420  86.787 113.657  0.00  0.00    -0.311 N 
ATOM     14  C   LIG d   1       5.486  87.412 113.160  0.00  0.00     0.210 C 
ATOM     15  C   LIG d   1       6.596  87.704 114.176  0.00  0.00     0.109 C 
ATOM     16  O   LIG d   1       5.605  87.781 111.982  0.00  0.00    -0.276 OA
ATOM     17  H   LIG d   1       4.395  86.553 114.630  0.00  0.00     0.149 HD
ENDBRANCH   6  13
BRANCH   5  18
ATOM     18  N   LIG d   1       2.508  88.748 112.305  0.00  0.00     0.381 N 
ATOM     19  H   LIG d   1       3.505  88.811 112.261  0.00  0.00    -0.090 HD
ATOM     20  H   LIG d   1       2.170  89.485 112.899  0.00  0.00    -0.090 HD
ATOM     21  H   LIG d   1       2.121  88.844 111.392  0.00  0.00    -0.090 HD
ENDBRANCH   5  18
BRANCH   3  22
ATOM     22  C   LIG d   1      -0.816  85.299 112.335  0.00  0.00     0.382 C 
ATOM     23  O   LIG d   1      -1.690  86.198 112.291  0.00  0.00    -0.241 OA
ATOM     24  O   LIG d   1      -1.163  84.104 112.307  0.00  0.00    -0.241 OA
ENDBRANCH   3  22
TORSDOF 7
ENDMDL
MODEL 5
REMARK VINA RESULT:      -4.9     15.775     18.563
REMARK  7 active torsions:
REMARK  status: ('A' for Active; 'I' for Inactive)
REMARK    1  A    between atoms: C_2  and  C_3 
REMARK    2  A    between atoms: C_3  and  O_6 
REMARK    3  A    between atoms: C_3  and  C_4 
REMARK    4  A    between atoms: C_7  and  O_6 
REMARK    5  A    between atoms: C_9  and  C_10 
REMARK    6  A    between atoms: N_15  and  C_14 
REMARK    7  A    between atoms: N_20  and  C_19 
REMARK       I    between atoms: C_22  and  N_20 
ROOT
ATOM      1  C   LIG d   1     -16.340  64.420 115.957  0.00  0.00     0.161 C 
ATOM      2  C   LIG d   1     -15.998  65.419 115.031  0.00  0.00     0.016 C 
ATOM      3  C   LIG d   1     -15.252  66.571 115.369  0.00  0.00     0.038 C 
ATOM      4  C   LIG d   1     -14.664  66.729 116.633  0.00  0.00     0.028 C 
ATOM      5  C   LIG d   1     -15.405  65.991 117.742  0.00  0.00    -0.047 C 
ATOM      6  C   LIG d   1     -15.613  64.520 117.314  0.00  0.00     0.091 C 
ENDROOT
BRANCH   1   7
ATOM      7  O   LIG d   1     -16.131  63.119 115.372  0.00  0.00    -0.368 OA
BRANCH   7   8
ATOM      8  C   LIG d   1     -17.321  62.420 114.931  0.00  0.00     0.119 C 
BRANCH   8   9
ATOM      9  C   LIG d   1     -17.215  60.966 115.429  0.00  0.00     0.028 C 
ATOM     10  C   LIG d   1     -17.449  59.942 114.306  0.00  0.00     0.006 C 
ENDBRANCH   8   9
BRANCH   8  11
ATOM     11  C   LIG d   1     -17.377  62.323 113.404  0.00  0.00     0.028 C 
ATOM     12  C   LIG d   1     -18.250  63.416 112.769  0.00  0.00     0.006 C 
ENDBRANCH   8  11
ENDBRANCH   7   8
ENDBRANCH   1   7
BRANCH   6  13
ATOM     13  N   LIG d   1     -16.405  63.748 118.307  0.00  0.00    -0.311 N 
ATOM     14  C   LIG d   1     -16.029  62.561 118.781  0.00  0.00     0.210 C 
ATOM     15  C   LIG d   1     -17.001  61.927 119.780  0.00  0.00     0.109 C 
ATOM     16  O   LIG d   1     -14.967  61.988 118.493  0.00  0.00    -0.276 OA
ATOM     17  H   LIG d   1     -17.265  64.153 118.619  0.00  0.00     0.149 HD
ENDBRANCH   6  13
BRANCH   5  18
ATOM     18  N   LIG d   1     -14.610  66.127 118.977  0.00  0.00     0.381 N 
ATOM     19  H   LIG d   1     -15.217  66.131 119.772  0.00  0.00    -0.090 HD
ATOM     20  H   LIG d   1     -14.118  67.003 118.952  0.00  0.00    -0.090 HD
ATOM     21  H   LIG d   1     -13.961  65.375 119.049  0.00  0.00    -0.090 HD
ENDBRANCH   5  18
BRANCH   3  22
ATOM     22  C   LIG d   1     -15.121  67.600 114.448  0.00  0.00     0.382 C 
ATOM     23  O   LIG d   1     -15.129  67.347 113.220  0.00  0.00    -0.241 OA
ATOM     24  O   LIG d   1     -14.951  68.773 114.832  0.00  0.00    -0.241 OA
ENDBRANCH   3  22
TORSDOF 7
ENDMDL
MODEL 6
REMARK VINA RESULT:      -4.9     13.673     16.401
REMARK  7 active torsions:
REMARK  status: ('A' for Active; 'I' for Inactive)
REMARK    1  A    between atoms: C_2  and  C_3 
REMARK    2  A    between atoms: C_3  and  O_6 
REMARK    3  A    between atoms: C_3  and  C_4 
REMARK    4  A    between atoms: C_7  and  O_6 
REMARK    5  A    between atoms: C_9  and  C_10 
REMARK    6  A    between atoms: N_15  and  C_14 
REMARK    7  A    between atoms: N_20  and  C_19 
REMARK       I    between atoms: C_22  and  N_20 
ROOT
ATOM      1  C   LIG d   1      -4.159  91.530 118.161  0.00  0.00     0.161 C 
ATOM      2  C   LIG d   1      -5.052  90.836 117.327  0.00  0.00     0.016 C 
ATOM      3  C   LIG d   1      -6.294  91.365 116.906  0.00  0.00     0.038 C 
ATOM      4  C   LIG d   1      -6.662  92.693 117.169  0.00  0.00     0.028 C 
ATOM      5  C   LIG d   1      -6.019  93.261 118.430  0.00  0.00    -0.047 C 
ATOM      6  C   LIG d   1      -4.493  93.022 118.367  0.00  0.00     0.091 C 
ENDROOT
BRANCH   1   7
ATOM      7  O   LIG d   1      -2.813  91.381 117.667  0.00  0.00    -0.368 OA
BRANCH   7   8
ATOM      8  C   LIG d   1      -1.873  90.738 118.561  0.00  0.00     0.119 C 
BRANCH   8   9
ATOM      9  C   LIG d   1      -0.487  91.358 118.300  0.00  0.00     0.028 C 
ATOM     10  C   LIG d   1       0.201  91.825 119.594  0.00  0.00     0.006 C 
ENDBRANCH   8   9
BRANCH   8  11
ATOM     11  C   LIG d   1      -1.720  89.250 118.233  0.00  0.00     0.028 C 
ATOM     12  C   LIG d   1      -2.427  88.339 119.249  0.00  0.00     0.006 C 
ENDBRANCH   8  11
ENDBRANCH   7   8
ENDBRANCH   1   7
BRANCH   6  13
ATOM     13  N   LIG d   1      -3.798  93.473 119.601  0.00  0.00    -0.311 N 
ATOM     14  C   LIG d   1      -2.704  94.233 119.590  0.00  0.00     0.210 C 
ATOM     15  C   LIG d   1      -2.135  94.567 120.972  0.00  0.00     0.109 C 
ATOM     16  O   LIG d   1      -2.170  94.689 118.568  0.00  0.00    -0.276 OA
ATOM     17  H   LIG d   1      -4.182  93.174 120.476  0.00  0.00     0.149 HD
ENDBRANCH   6  13
BRANCH   5  18
ATOM     18  N   LIG d   1      -6.378  94.690 118.508  0.00  0.00     0.381 N 
ATOM     19  H   LIG d   1      -7.155  94.877 117.907  0.00  0.00    -0.090 HD
ATOM     20  H   LIG d   1      -5.597  95.239 118.196  0.00  0.00    -0.090 HD
ATOM     21  H   LIG d   1      -6.609  94.932 119.447  0.00  0.00    -0.090 HD
ENDBRANCH   5  18
BRANCH   3  22
ATOM     22  C   LIG d   1      -7.200  90.549 116.247  0.00  0.00     0.382 C 
ATOM     23  O   LIG d   1      -8.232  90.151 116.839  0.00  0.00    -0.241 OA
ATOM     24  O   LIG d   1      -6.977  90.169 115.082  0.00  0.00    -0.241 OA
ENDBRANCH   3  22
TORSDOF 7
ENDMDL
MODEL 7
REMARK VINA RESULT:      -4.8      2.002      4.988
REMARK  7 active torsions:
REMARK  status: ('A' for Active; 'I' for Inactive)
REMARK    1  A    between atoms: C_2  and  C_3 
REMARK    2  A    between atoms: C_3  and  O_6 
REMARK    3  A    between atoms: C_3  and  C_4 
REMARK    4  A    between atoms: C_7  and  O_6 
REMARK    5  A    between atoms: C_9  and  C_10 
REMARK    6  A    between atoms: N_15  and  C_14 
REMARK    7  A    between atoms: N_20  and  C_19 
REMARK       I    between atoms: C_22  and  N_20 
ROOT
ATOM      1  C   LIG d   1      -2.754  75.768 115.686  0.00  0.00     0.161 C 
ATOM      2  C   LIG d   1      -2.383  74.972 116.783  0.00  0.00     0.016 C 
ATOM      3  C   LIG d   1      -1.053  74.863 117.251  0.00  0.00     0.038 C 
ATOM      4  C   LIG d   1      -0.021  75.666 116.744  0.00  0.00     0.028 C 
ATOM      5  C   LIG d   1      -0.251  76.112 115.304  0.00  0.00    -0.047 C 
ATOM      6  C   LIG d   1      -1.660  76.737 115.191  0.00  0.00     0.091 C 
ENDROOT
BRANCH   1   7
ATOM      7  O   LIG d   1      -3.962  76.491 115.994  0.00  0.00    -0.368 OA
BRANCH   7   8
ATOM      8  C   LIG d   1      -5.202  75.758 115.834  0.00  0.00     0.119 C 
BRANCH   8   9
ATOM      9  C   LIG d   1      -5.371  75.457 114.333  0.00  0.00     0.028 C 
ATOM     10  C   LIG d   1      -5.378  73.949 114.033  0.00  0.00     0.006 C 
ENDBRANCH   8   9
BRANCH   8  11
ATOM     11  C   LIG d   1      -6.410  76.618 116.215  0.00  0.00     0.028 C 
ATOM     12  C   LIG d   1      -6.030  77.833 117.076  0.00  0.00     0.006 C 
ENDBRANCH   8  11
ENDBRANCH   7   8
ENDBRANCH   1   7
BRANCH   6  13
ATOM     13  N   LIG d   1      -1.999  77.123 113.797  0.00  0.00    -0.311 N 
ATOM     14  C   LIG d   1      -2.595  78.271 113.478  0.00  0.00     0.210 C 
ATOM     15  C   LIG d   1      -2.872  78.462 111.983  0.00  0.00     0.109 C 
ATOM     16  O   LIG d   1      -2.891  79.162 114.287  0.00  0.00    -0.276 OA
ATOM     17  H   LIG d   1      -1.765  76.471 113.073  0.00  0.00     0.149 HD
ENDBRANCH   6  13
BRANCH   5  18
ATOM     18  N   LIG d   1       0.829  77.052 114.950  0.00  0.00     0.381 N 
ATOM     19  H   LIG d   1       1.710  76.685 115.251  0.00  0.00    -0.090 HD
ATOM     20  H   LIG d   1       0.671  77.923 115.426  0.00  0.00    -0.090 HD
ATOM     21  H   LIG d   1       0.842  77.202 113.965  0.00  0.00    -0.090 HD
ENDBRANCH   5  18
BRANCH   3  22
ATOM     22  C   LIG d   1      -0.738  73.913 118.210  0.00  0.00     0.382 C 
ATOM     23  O   LIG d   1      -1.274  72.779 118.170  0.00  0.00    -0.241 OA
ATOM     24  O   LIG d   1       0.042  74.190 119.141  0.00  0.00    -0.241 OA
ENDBRANCH   3  22
TORSDOF 7
ENDMDL
MODEL 8
REMARK VINA RESULT:      -4.7      2.387      4.695
REMARK  7 active torsions:
REMARK  status: ('A' for Active; 'I' for Inactive)
REMARK    1  A    between atoms: C_2  and  C_3 
REMARK    2  A    between atoms: C_3  and  O_6 
REMARK    3  A    between atoms: C_3  and  C_4 
REMARK    4  A    between atoms: C_7  and  O_6 
REMARK    5  A    between atoms: C_9  and  C_10 
REMARK    6  A    between atoms: N_15  and  C_14 
REMARK    7  A    between atoms: N_20  and  C_19 
REMARK       I    between atoms: C_22  and  N_20 
ROOT
ATOM      1  C   LIG d   1      -1.988  76.028 115.887  0.00  0.00     0.161 C 
ATOM      2  C   LIG d   1      -3.272  75.928 115.324  0.00  0.00     0.016 C 
ATOM      3  C   LIG d   1      -3.660  76.606 114.146  0.00  0.00     0.038 C 
ATOM      4  C   LIG d   1      -2.738  77.316 113.362  0.00  0.00     0.028 C 
ATOM      5  C   LIG d   1      -1.557  77.859 114.158  0.00  0.00    -0.047 C 
ATOM      6  C   LIG d   1      -0.938  76.709 114.985  0.00  0.00     0.091 C 
ENDROOT
BRANCH   1   7
ATOM      7  O   LIG d   1      -1.530  74.723 116.293  0.00  0.00    -0.368 OA
BRANCH   7   8
ATOM      8  C   LIG d   1      -1.752  74.372 117.681  0.00  0.00     0.119 C 
BRANCH   8   9
ATOM      9  C   LIG d   1      -1.587  75.657 118.515  0.00  0.00     0.028 C 
ATOM     10  C   LIG d   1      -0.184  75.779 119.134  0.00  0.00     0.006 C 
ENDBRANCH   8   9
BRANCH   8  11
ATOM     11  C   LIG d   1      -0.673  73.414 118.194  0.00  0.00     0.028 C 
ATOM     12  C   LIG d   1      -1.219  72.381 119.192  0.00  0.00     0.006 C 
ENDBRANCH   8  11
ENDBRANCH   7   8
ENDBRANCH   1   7
BRANCH   6  13
ATOM     13  N   LIG d   1       0.172  77.172 115.858  0.00  0.00    -0.311 N 
ATOM     14  C   LIG d   1       1.416  76.706 115.772  0.00  0.00     0.210 C 
ATOM     15  C   LIG d   1       2.403  77.303 116.780  0.00  0.00     0.109 C 
ATOM     16  O   LIG d   1       1.804  75.877 114.935  0.00  0.00    -0.276 OA
ATOM     17  H   LIG d   1      -0.048  77.867 116.546  0.00  0.00     0.149 HD
ENDBRANCH   6  13
BRANCH   5  18
ATOM     18  N   LIG d   1      -0.609  78.456 113.199  0.00  0.00     0.381 N 
ATOM     19  H   LIG d   1       0.285  78.017 113.288  0.00  0.00    -0.090 HD
ATOM     20  H   LIG d   1      -0.504  79.433 113.411  0.00  0.00    -0.090 HD
ATOM     21  H   LIG d   1      -0.950  78.346 112.269  0.00  0.00    -0.090 HD
ENDBRANCH   5  18
BRANCH   3  22
ATOM     22  C   LIG d   1      -4.992  76.610 113.762  0.00  0.00     0.382 C 
ATOM     23  O   LIG d   1      -5.303  76.881 112.577  0.00  0.00    -0.241 OA
ATOM     24  O   LIG d   1      -5.890  76.391 114.597  0.00  0.00    -0.241 OA
ENDBRANCH   3  22
TORSDOF 7
ENDMDL
MODEL 9
REMARK VINA RESULT:      -4.7     16.856     19.998
REMARK  7 active torsions:
REMARK  status: ('A' for Active; 'I' for Inactive)
REMARK    1  A    between atoms: C_2  and  C_3 
REMARK    2  A    between atoms: C_3  and  O_6 
REMARK    3  A    between atoms: C_3  and  C_4 
REMARK    4  A    between atoms: C_7  and  O_6 
REMARK    5  A    between atoms: C_9  and  C_10 
REMARK    6  A    between atoms: N_15  and  C_14 
REMARK    7  A    between atoms: N_20  and  C_19 
REMARK       I    between atoms: C_22  and  N_20 
ROOT
ATOM      1  C   LIG d   1     -16.224  63.113 116.343  0.00  0.00     0.161 C 
ATOM      2  C   LIG d   1     -15.868  64.411 116.746  0.00  0.00     0.016 C 
ATOM      3  C   LIG d   1     -15.863  65.523 115.873  0.00  0.00     0.038 C 
ATOM      4  C   LIG d   1     -16.362  65.441 114.565  0.00  0.00     0.028 C 
ATOM      5  C   LIG d   1     -16.257  64.043 113.963  0.00  0.00    -0.047 C 
ATOM      6  C   LIG d   1     -16.878  63.026 114.948  0.00  0.00     0.091 C 
ENDROOT
BRANCH   1   7
ATOM      7  O   LIG d   1     -17.079  62.510 117.335  0.00  0.00    -0.368 OA
BRANCH   7   8
ATOM      8  C   LIG d   1     -16.484  61.458 118.134  0.00  0.00     0.119 C 
BRANCH   8   9
ATOM      9  C   LIG d   1     -17.225  60.149 117.801  0.00  0.00     0.028 C 
ATOM     10  C   LIG d   1     -18.677  60.393 117.357  0.00  0.00     0.006 C 
ENDBRANCH   8   9
BRANCH   8  11
ATOM     11  C   LIG d   1     -16.723  61.691 119.629  0.00  0.00     0.028 C 
ATOM     12  C   LIG d   1     -15.460  62.159 120.368  0.00  0.00     0.006 C 
ENDBRANCH   8  11
ENDBRANCH   7   8
ENDBRANCH   1   7
BRANCH   6  13
ATOM     13  N   LIG d   1     -16.742  61.624 114.474  0.00  0.00    -0.311 N 
ATOM     14  C   LIG d   1     -17.673  61.000 113.755  0.00  0.00     0.210 C 
ATOM     15  C   LIG d   1     -17.342  59.550 113.387  0.00  0.00     0.109 C 
ATOM     16  O   LIG d   1     -18.727  61.519 113.359  0.00  0.00    -0.276 OA
ATOM     17  H   LIG d   1     -15.903  61.137 114.724  0.00  0.00     0.149 HD
ENDBRANCH   6  13
BRANCH   5  18
ATOM     18  N   LIG d   1     -16.937  64.070 112.655  0.00  0.00     0.381 N 
ATOM     19  H   LIG d   1     -16.874  63.170 112.222  0.00  0.00    -0.090 HD
ATOM     20  H   LIG d   1     -16.476  64.738 112.062  0.00  0.00    -0.090 HD
ATOM     21  H   LIG d   1     -17.894  64.323 112.772  0.00  0.00    -0.090 HD
ENDBRANCH   5  18
BRANCH   3  22
ATOM     22  C   LIG d   1     -15.316  66.725 116.296  0.00  0.00     0.382 C 
ATOM     23  O   LIG d   1     -16.003  67.775 116.255  0.00  0.00    -0.241 OA
ATOM     24  O   LIG d   1     -14.131  66.782 116.676  0.00  0.00    -0.241 OA
ENDBRANCH   3  22
TORSDOF 7
ENDMDL
