MODEL 1
REMARK VINA RESULT:      -5.4      0.000      0.000
REMARK  7 active torsions:
REMARK  status: ('A' for Active; 'I' for Inactive)
REMARK    1  A    between atoms: C_2  and  C_3 
REMARK    2  A    between atoms: C_3  and  O_6 
REMARK    3  A    between atoms: C_3  and  C_4 
REMARK    4  A    between atoms: C_7  and  O_6 
REMARK    5  A    between atoms: C_9  and  C_10 
REMARK    6  A    between atoms: N_15  and  C_14 
REMARK    7  A    between atoms: N_20  and  C_19 
REMARK       I    between atoms: C_22  and  N_20 
ROOT
ATOM      1  C   LIG d   1      -7.165  74.848 118.074  0.00  0.00     0.161 C 
ATOM      2  C   LIG d   1      -7.238  73.543 117.559  0.00  0.00     0.016 C 
ATOM      3  C   LIG d   1      -8.452  72.919 117.191  0.00  0.00     0.038 C 
ATOM      4  C   LIG d   1      -9.669  73.617 117.171  0.00  0.00     0.028 C 
ATOM      5  C   LIG d   1      -9.718  74.776 118.161  0.00  0.00    -0.047 C 
ATOM      6  C   LIG d   1      -8.470  75.664 117.956  0.00  0.00     0.091 C 
ENDROOT
BRANCH   1   7
ATOM      7  O   LIG d   1      -6.073  75.557 117.457  0.00  0.00    -0.368 OA
BRANCH   7   8
ATOM      8  C   LIG d   1      -5.187  74.765 116.628  0.00  0.00     0.119 C 
BRANCH   8   9
ATOM      9  C   LIG d   1      -3.777  74.849 117.245  0.00  0.00     0.028 C 
ATOM     10  C   LIG d   1      -3.544  76.170 117.996  0.00  0.00     0.006 C 
ENDBRANCH   8   9
BRANCH   8  11
ATOM     11  C   LIG d   1      -5.052  75.365 115.225  0.00  0.00     0.028 C 
ATOM     12  C   LIG d   1      -6.410  75.635 114.559  0.00  0.00     0.006 C 
ENDBRANCH   8  11
ENDBRANCH   7   8
ENDBRANCH   1   7
BRANCH   6  13
ATOM     13  N   LIG d   1      -8.396  76.775 118.940  0.00  0.00    -0.311 N 
ATOM     14  C   LIG d   1      -9.035  77.934 118.787  0.00  0.00     0.210 C 
ATOM     15  C   LIG d   1      -8.808  78.951 119.910  0.00  0.00     0.109 C 
ATOM     16  O   LIG d   1      -9.795  78.204 117.845  0.00  0.00    -0.276 OA
ATOM     17  H   LIG d   1      -7.827  76.630 119.751  0.00  0.00     0.149 HD
ENDBRANCH   6  13
BRANCH   5  18
ATOM     18  N   LIG d   1     -10.985  75.499 117.938  0.00  0.00     0.381 N 
ATOM     19  H   LIG d   1     -11.518  75.517 118.784  0.00  0.00    -0.090 HD
ATOM     20  H   LIG d   1     -11.518  75.012 117.239  0.00  0.00    -0.090 HD
ATOM     21  H   LIG d   1     -10.797  76.430 117.635  0.00  0.00    -0.090 HD
ENDBRANCH   5  18
BRANCH   3  22
ATOM     22  C   LIG d   1      -8.462  71.569 116.875  0.00  0.00     0.382 C 
ATOM     23  O   LIG d   1      -7.590  71.099 116.106  0.00  0.00    -0.241 OA
ATOM     24  O   LIG d   1      -9.359  70.824 117.314  0.00  0.00    -0.241 OA
ENDBRANCH   3  22
TORSDOF 7
ENDMDL
MODEL 2
REMARK VINA RESULT:      -5.4     17.119     19.166
REMARK  7 active torsions:
REMARK  status: ('A' for Active; 'I' for Inactive)
REMARK    1  A    between atoms: C_2  and  C_3 
REMARK    2  A    between atoms: C_3  and  O_6 
REMARK    3  A    between atoms: C_3  and  C_4 
REMARK    4  A    between atoms: C_7  and  O_6 
REMARK    5  A    between atoms: C_9  and  C_10 
REMARK    6  A    between atoms: N_15  and  C_14 
REMARK    7  A    between atoms: N_20  and  C_19 
REMARK       I    between atoms: C_22  and  N_20 
ROOT
ATOM      1  C   LIG d   1       0.926  57.406 117.925  0.00  0.00     0.161 C 
ATOM      2  C   LIG d   1       0.790  58.434 116.978  0.00  0.00     0.016 C 
ATOM      3  C   LIG d   1      -0.460  58.918 116.528  0.00  0.00     0.038 C 
ATOM      4  C   LIG d   1      -1.667  58.506 117.111  0.00  0.00     0.028 C 
ATOM      5  C   LIG d   1      -1.603  57.106 117.713  0.00  0.00    -0.047 C 
ATOM      6  C   LIG d   1      -0.379  57.021 118.653  0.00  0.00     0.091 C 
ENDROOT
BRANCH   1   7
ATOM      7  O   LIG d   1       1.949  57.752 118.879  0.00  0.00    -0.368 OA
BRANCH   7   8
ATOM      8  C   LIG d   1       2.333  59.148 118.924  0.00  0.00     0.119 C 
BRANCH   8   9
ATOM      9  C   LIG d   1       3.871  59.208 118.841  0.00  0.00     0.028 C 
ATOM     10  C   LIG d   1       4.373  59.447 117.407  0.00  0.00     0.006 C 
ENDBRANCH   8   9
BRANCH   8  11
ATOM     11  C   LIG d   1       1.975  59.782 120.271  0.00  0.00     0.028 C 
ATOM     12  C   LIG d   1       0.518  60.270 120.331  0.00  0.00     0.006 C 
ENDBRANCH   8  11
ENDBRANCH   7   8
ENDBRANCH   1   7
BRANCH   6  13
ATOM     13  N   LIG d   1      -0.193  55.659 119.220  0.00  0.00    -0.311 N 
ATOM     14  C   LIG d   1      -0.684  55.283 120.399  0.00  0.00     0.210 C 
ATOM     15  C   LIG d   1      -0.359  53.841 120.804  0.00  0.00     0.109 C 
ATOM     16  O   LIG d   1      -1.384  55.995 121.134  0.00  0.00    -0.276 OA
ATOM     17  H   LIG d   1       0.337  55.007 118.675  0.00  0.00     0.149 HD
ENDBRANCH   6  13
BRANCH   5  18
ATOM     18  N   LIG d   1      -2.882  56.859 118.406  0.00  0.00     0.381 N 
ATOM     19  H   LIG d   1      -3.297  56.017 118.060  0.00  0.00    -0.090 HD
ATOM     20  H   LIG d   1      -3.508  57.622 118.214  0.00  0.00    -0.090 HD
ATOM     21  H   LIG d   1      -2.729  56.785 119.387  0.00  0.00    -0.090 HD
ENDBRANCH   5  18
BRANCH   3  22
ATOM     22  C   LIG d   1      -0.512  59.795 115.456  0.00  0.00     0.382 C 
ATOM     23  O   LIG d   1      -1.620  60.208 115.036  0.00  0.00    -0.241 OA
ATOM     24  O   LIG d   1       0.533  60.145 114.874  0.00  0.00    -0.241 OA
ENDBRANCH   3  22
TORSDOF 7
ENDMDL
MODEL 3
REMARK VINA RESULT:      -5.3      2.446      5.280
REMARK  7 active torsions:
REMARK  status: ('A' for Active; 'I' for Inactive)
REMARK    1  A    between atoms: C_2  and  C_3 
REMARK    2  A    between atoms: C_3  and  O_6 
REMARK    3  A    between atoms: C_3  and  C_4 
REMARK    4  A    between atoms: C_7  and  O_6 
REMARK    5  A    between atoms: C_9  and  C_10 
REMARK    6  A    between atoms: N_15  and  C_14 
REMARK    7  A    between atoms: N_20  and  C_19 
REMARK       I    between atoms: C_22  and  N_20 
ROOT
ATOM      1  C   LIG d   1      -8.033  75.764 119.137  0.00  0.00     0.161 C 
ATOM      2  C   LIG d   1      -9.285  76.017 119.721  0.00  0.00     0.016 C 
ATOM      3  C   LIG d   1      -9.988  77.233 119.559  0.00  0.00     0.038 C 
ATOM      4  C   LIG d   1      -9.553  78.228 118.671  0.00  0.00     0.028 C 
ATOM      5  C   LIG d   1      -8.044  78.225 118.451  0.00  0.00    -0.047 C 
ATOM      6  C   LIG d   1      -7.594  76.794 118.076  0.00  0.00     0.091 C 
ENDROOT
BRANCH   1   7
ATOM      7  O   LIG d   1      -8.013  74.434 118.582  0.00  0.00    -0.368 OA
BRANCH   7   8
ATOM      8  C   LIG d   1      -9.285  73.743 118.536  0.00  0.00     0.119 C 
BRANCH   8   9
ATOM      9  C   LIG d   1      -9.071  72.338 119.132  0.00  0.00     0.028 C 
ATOM     10  C   LIG d   1      -9.045  71.241 118.055  0.00  0.00     0.006 C 
ENDBRANCH   8   9
BRANCH   8  11
ATOM     11  C   LIG d   1      -9.739  73.506 117.093  0.00  0.00     0.028 C 
ATOM     12  C   LIG d   1     -10.390  74.747 116.462  0.00  0.00     0.006 C 
ENDBRANCH   8  11
ENDBRANCH   7   8
ENDBRANCH   1   7
BRANCH   6  13
ATOM     13  N   LIG d   1      -6.120  76.685 117.925  0.00  0.00    -0.311 N 
ATOM     14  C   LIG d   1      -5.489  76.830 116.761  0.00  0.00     0.210 C 
ATOM     15  C   LIG d   1      -3.968  76.658 116.824  0.00  0.00     0.109 C 
ATOM     16  O   LIG d   1      -6.041  77.117 115.689  0.00  0.00    -0.276 OA
ATOM     17  H   LIG d   1      -5.590  76.485 118.751  0.00  0.00     0.149 HD
ENDBRANCH   6  13
BRANCH   5  18
ATOM     18  N   LIG d   1      -7.744  79.219 117.402  0.00  0.00     0.381 N 
ATOM     19  H   LIG d   1      -6.888  78.979 116.943  0.00  0.00    -0.090 HD
ATOM     20  H   LIG d   1      -7.630  80.120 117.832  0.00  0.00    -0.090 HD
ATOM     21  H   LIG d   1      -8.488  79.250 116.740  0.00  0.00    -0.090 HD
ENDBRANCH   5  18
BRANCH   3  22
ATOM     22  C   LIG d   1     -11.121  77.479 120.320  0.00  0.00     0.382 C 
ATOM     23  O   LIG d   1     -11.519  78.656 120.488  0.00  0.00    -0.241 OA
ATOM     24  O   LIG d   1     -11.723  76.542 120.877  0.00  0.00    -0.241 OA
ENDBRANCH   3  22
TORSDOF 7
ENDMDL
MODEL 4
REMARK VINA RESULT:      -5.3      1.996      4.834
REMARK  7 active torsions:
REMARK  status: ('A' for Active; 'I' for Inactive)
REMARK    1  A    between atoms: C_2  and  C_3 
REMARK    2  A    between atoms: C_3  and  O_6 
REMARK    3  A    between atoms: C_3  and  C_4 
REMARK    4  A    between atoms: C_7  and  O_6 
REMARK    5  A    between atoms: C_9  and  C_10 
REMARK    6  A    between atoms: N_15  and  C_14 
REMARK    7  A    between atoms: N_20  and  C_19 
REMARK       I    between atoms: C_22  and  N_20 
ROOT
ATOM      1  C   LIG d   1      -7.818  76.388 117.581  0.00  0.00     0.161 C 
ATOM      2  C   LIG d   1      -7.690  77.782 117.464  0.00  0.00     0.016 C 
ATOM      3  C   LIG d   1      -8.679  78.693 117.902  0.00  0.00     0.038 C 
ATOM      4  C   LIG d   1      -9.803  78.274 118.628  0.00  0.00     0.028 C 
ATOM      5  C   LIG d   1     -10.220  76.839 118.326  0.00  0.00    -0.047 C 
ATOM      6  C   LIG d   1      -8.987  75.918 118.471  0.00  0.00     0.091 C 
ENDROOT
BRANCH   1   7
ATOM      7  O   LIG d   1      -6.576  75.821 118.045  0.00  0.00    -0.368 OA
BRANCH   7   8
ATOM      8  C   LIG d   1      -5.941  74.867 117.158  0.00  0.00     0.119 C 
BRANCH   8   9
ATOM      9  C   LIG d   1      -4.485  75.328 116.948  0.00  0.00     0.028 C 
ATOM     10  C   LIG d   1      -3.908  76.031 118.189  0.00  0.00     0.006 C 
ENDBRANCH   8   9
BRANCH   8  11
ATOM     11  C   LIG d   1      -6.578  74.890 115.766  0.00  0.00     0.028 C 
ATOM     12  C   LIG d   1      -5.554  75.129 114.645  0.00  0.00     0.006 C 
ENDBRANCH   8  11
ENDBRANCH   7   8
ENDBRANCH   1   7
BRANCH   6  13
ATOM     13  N   LIG d   1      -9.288  74.507 118.111  0.00  0.00    -0.311 N 
ATOM     14  C   LIG d   1      -8.979  73.470 118.887  0.00  0.00     0.210 C 
ATOM     15  C   LIG d   1      -9.359  72.100 118.318  0.00  0.00     0.109 C 
ATOM     16  O   LIG d   1      -8.455  73.558 120.008  0.00  0.00    -0.276 OA
ATOM     17  H   LIG d   1      -9.740  74.348 117.232  0.00  0.00     0.149 HD
ENDBRANCH   6  13
BRANCH   5  18
ATOM     18  N   LIG d   1     -11.315  76.489 119.249  0.00  0.00     0.381 N 
ATOM     19  H   LIG d   1     -12.171  76.898 118.931  0.00  0.00    -0.090 HD
ATOM     20  H   LIG d   1     -11.106  76.862 120.159  0.00  0.00    -0.090 HD
ATOM     21  H   LIG d   1     -11.413  75.499 119.303  0.00  0.00    -0.090 HD
ENDBRANCH   5  18
BRANCH   3  22
ATOM     22  C   LIG d   1      -8.567  80.037 117.578  0.00  0.00     0.382 C 
ATOM     23  O   LIG d   1      -9.547  80.803 117.736  0.00  0.00    -0.241 OA
ATOM     24  O   LIG d   1      -7.511  80.483 117.089  0.00  0.00    -0.241 OA
ENDBRANCH   3  22
TORSDOF 7
ENDMDL
MODEL 5
REMARK VINA RESULT:      -5.2      2.163      4.769
REMARK  7 active torsions:
REMARK  status: ('A' for Active; 'I' for Inactive)
REMARK    1  A    between atoms: C_2  and  C_3 
REMARK    2  A    between atoms: C_3  and  O_6 
REMARK    3  A    between atoms: C_3  and  C_4 
REMARK    4  A    between atoms: C_7  and  O_6 
REMARK    5  A    between atoms: C_9  and  C_10 
REMARK    6  A    between atoms: N_15  and  C_14 
REMARK    7  A    between atoms: N_20  and  C_19 
REMARK       I    between atoms: C_22  and  N_20 
ROOT
ATOM      1  C   LIG d   1      -7.781  76.075 116.122  0.00  0.00     0.161 C 
ATOM      2  C   LIG d   1      -6.563  76.012 115.426  0.00  0.00     0.016 C 
ATOM      3  C   LIG d   1      -5.367  76.604 115.894  0.00  0.00     0.038 C 
ATOM      4  C   LIG d   1      -5.274  77.175 117.172  0.00  0.00     0.028 C 
ATOM      5  C   LIG d   1      -6.604  77.706 117.697  0.00  0.00    -0.047 C 
ATOM      6  C   LIG d   1      -7.673  76.597 117.570  0.00  0.00     0.091 C 
ENDROOT
BRANCH   1   7
ATOM      7  O   LIG d   1      -8.423  74.784 116.102  0.00  0.00    -0.368 OA
BRANCH   7   8
ATOM      8  C   LIG d   1      -8.164  73.926 117.240  0.00  0.00     0.119 C 
BRANCH   8   9
ATOM      9  C   LIG d   1      -7.124  72.877 116.802  0.00  0.00     0.028 C 
ATOM     10  C   LIG d   1      -7.739  71.478 116.628  0.00  0.00     0.006 C 
ENDBRANCH   8   9
BRANCH   8  11
ATOM     11  C   LIG d   1      -9.410  73.124 117.629  0.00  0.00     0.028 C 
ATOM     12  C   LIG d   1      -9.755  73.244 119.122  0.00  0.00     0.006 C 
ENDBRANCH   8  11
ENDBRANCH   7   8
ENDBRANCH   1   7
BRANCH   6  13
ATOM     13  N   LIG d   1      -9.023  77.061 117.984  0.00  0.00    -0.311 N 
ATOM     14  C   LIG d   1      -9.503  76.912 119.217  0.00  0.00     0.210 C 
ATOM     15  C   LIG d   1     -10.925  77.443 119.425  0.00  0.00     0.109 C 
ATOM     16  O   LIG d   1      -8.875  76.420 120.166  0.00  0.00    -0.276 OA
ATOM     17  H   LIG d   1      -9.588  77.499 117.283  0.00  0.00     0.149 HD
ENDBRANCH   6  13
BRANCH   5  18
ATOM     18  N   LIG d   1      -6.390  78.147 119.089  0.00  0.00     0.381 N 
ATOM     19  H   LIG d   1      -7.182  78.671 119.404  0.00  0.00    -0.090 HD
ATOM     20  H   LIG d   1      -5.583  78.745 119.120  0.00  0.00    -0.090 HD
ATOM     21  H   LIG d   1      -6.249  77.356 119.679  0.00  0.00    -0.090 HD
ENDBRANCH   5  18
BRANCH   3  22
ATOM     22  C   LIG d   1      -4.259  76.665 115.063  0.00  0.00     0.382 C 
ATOM     23  O   LIG d   1      -3.798  75.615 114.555  0.00  0.00    -0.241 OA
ATOM     24  O   LIG d   1      -3.687  77.751 114.851  0.00  0.00    -0.241 OA
ENDBRANCH   3  22
TORSDOF 7
ENDMDL
MODEL 6
REMARK VINA RESULT:      -5.2     15.714     17.285
REMARK  7 active torsions:
REMARK  status: ('A' for Active; 'I' for Inactive)
REMARK    1  A    between atoms: C_2  and  C_3 
REMARK    2  A    between atoms: C_3  and  O_6 
REMARK    3  A    between atoms: C_3  and  C_4 
REMARK    4  A    between atoms: C_7  and  O_6 
REMARK    5  A    between atoms: C_9  and  C_10 
REMARK    6  A    between atoms: N_15  and  C_14 
REMARK    7  A    between atoms: N_20  and  C_19 
REMARK       I    between atoms: C_22  and  N_20 
ROOT
ATOM      1  C   LIG d   1      -3.248  90.972 118.113  0.00  0.00     0.161 C 
ATOM      2  C   LIG d   1      -3.824  90.330 117.004  0.00  0.00     0.016 C 
ATOM      3  C   LIG d   1      -5.030  90.754 116.399  0.00  0.00     0.038 C 
ATOM      4  C   LIG d   1      -5.667  91.947 116.772  0.00  0.00     0.028 C 
ATOM      5  C   LIG d   1      -5.395  92.353 118.216  0.00  0.00    -0.047 C 
ATOM      6  C   LIG d   1      -3.869  92.340 118.463  0.00  0.00     0.091 C 
ENDROOT
BRANCH   1   7
ATOM      7  O   LIG d   1      -1.826  91.103 117.917  0.00  0.00    -0.368 OA
BRANCH   7   8
ATOM      8  C   LIG d   1      -1.004  90.060 118.497  0.00  0.00     0.119 C 
BRANCH   8   9
ATOM      9  C   LIG d   1      -0.505  90.569 119.863  0.00  0.00     0.028 C 
ATOM     10  C   LIG d   1      -1.291  89.964 121.038  0.00  0.00     0.006 C 
ENDBRANCH   8   9
BRANCH   8  11
ATOM     11  C   LIG d   1       0.261  89.821 117.667  0.00  0.00     0.028 C 
ATOM     12  C   LIG d   1       0.737  91.082 116.929  0.00  0.00     0.006 C 
ENDBRANCH   8  11
ENDBRANCH   7   8
ENDBRANCH   1   7
BRANCH   6  13
ATOM     13  N   LIG d   1      -3.520  92.644 119.875  0.00  0.00    -0.311 N 
ATOM     14  C   LIG d   1      -2.688  93.621 120.231  0.00  0.00     0.210 C 
ATOM     15  C   LIG d   1      -2.450  93.751 121.739  0.00  0.00     0.109 C 
ATOM     16  O   LIG d   1      -2.148  94.412 119.443  0.00  0.00    -0.276 OA
ATOM     17  H   LIG d   1      -3.938  92.070 120.582  0.00  0.00     0.149 HD
ENDBRANCH   6  13
BRANCH   5  18
ATOM     18  N   LIG d   1      -6.004  93.679 118.428  0.00  0.00     0.381 N 
ATOM     19  H   LIG d   1      -5.549  94.357 117.850  0.00  0.00    -0.090 HD
ATOM     20  H   LIG d   1      -5.875  93.946 119.389  0.00  0.00    -0.090 HD
ATOM     21  H   LIG d   1      -6.976  93.647 118.212  0.00  0.00    -0.090 HD
ENDBRANCH   5  18
BRANCH   3  22
ATOM     22  C   LIG d   1      -5.632  89.958 115.436  0.00  0.00     0.382 C 
ATOM     23  O   LIG d   1      -6.567  90.419 114.738  0.00  0.00    -0.241 OA
ATOM     24  O   LIG d   1      -5.283  88.772 115.288  0.00  0.00    -0.241 OA
ENDBRANCH   3  22
TORSDOF 7
ENDMDL
MODEL 7
REMARK VINA RESULT:      -5.1      2.448      4.406
REMARK  7 active torsions:
REMARK  status: ('A' for Active; 'I' for Inactive)
REMARK    1  A    between atoms: C_2  and  C_3 
REMARK    2  A    between atoms: C_3  and  O_6 
REMARK    3  A    between atoms: C_3  and  C_4 
REMARK    4  A    between atoms: C_7  and  O_6 
REMARK    5  A    between atoms: C_9  and  C_10 
REMARK    6  A    between atoms: N_15  and  C_14 
REMARK    7  A    between atoms: N_20  and  C_19 
REMARK       I    between atoms: C_22  and  N_20 
ROOT
ATOM      1  C   LIG d   1      -7.464  75.995 118.851  0.00  0.00     0.161 C 
ATOM      2  C   LIG d   1      -8.836  75.754 119.030  0.00  0.00     0.016 C 
ATOM      3  C   LIG d   1      -9.839  76.702 118.723  0.00  0.00     0.038 C 
ATOM      4  C   LIG d   1      -9.544  77.908 118.071  0.00  0.00     0.028 C 
ATOM      5  C   LIG d   1      -8.127  78.407 118.332  0.00  0.00    -0.047 C 
ATOM      6  C   LIG d   1      -7.130  77.263 118.038  0.00  0.00     0.091 C 
ENDROOT
BRANCH   1   7
ATOM      7  O   LIG d   1      -6.838  74.840 118.259  0.00  0.00    -0.368 OA
BRANCH   7   8
ATOM      8  C   LIG d   1      -7.386  74.397 116.993  0.00  0.00     0.119 C 
BRANCH   8   9
ATOM      9  C   LIG d   1      -7.704  72.895 117.126  0.00  0.00     0.028 C 
ATOM     10  C   LIG d   1      -9.215  72.619 117.198  0.00  0.00     0.006 C 
ENDBRANCH   8   9
BRANCH   8  11
ATOM     11  C   LIG d   1      -6.348  74.494 115.871  0.00  0.00     0.028 C 
ATOM     12  C   LIG d   1      -6.679  75.589 114.845  0.00  0.00     0.006 C 
ENDBRANCH   8  11
ENDBRANCH   7   8
ENDBRANCH   1   7
BRANCH   6  13
ATOM     13  N   LIG d   1      -5.727  77.640 118.348  0.00  0.00    -0.311 N 
ATOM     14  C   LIG d   1      -4.891  78.157 117.449  0.00  0.00     0.210 C 
ATOM     15  C   LIG d   1      -3.482  78.456 117.973  0.00  0.00     0.109 C 
ATOM     16  O   LIG d   1      -5.191  78.425 116.276  0.00  0.00    -0.276 OA
ATOM     17  H   LIG d   1      -5.409  77.485 119.285  0.00  0.00     0.149 HD
ENDBRANCH   6  13
BRANCH   5  18
ATOM     18  N   LIG d   1      -7.910  79.595 117.485  0.00  0.00     0.381 N 
ATOM     19  H   LIG d   1      -7.227  80.192 117.907  0.00  0.00    -0.090 HD
ATOM     20  H   LIG d   1      -8.773  80.105 117.413  0.00  0.00    -0.090 HD
ATOM     21  H   LIG d   1      -7.603  79.317 116.579  0.00  0.00    -0.090 HD
ENDBRANCH   5  18
BRANCH   3  22
ATOM     22  C   LIG d   1     -11.150  76.463 119.106  0.00  0.00     0.382 C 
ATOM     23  O   LIG d   1     -11.422  76.248 120.311  0.00  0.00    -0.241 OA
ATOM     24  O   LIG d   1     -12.059  76.416 118.254  0.00  0.00    -0.241 OA
ENDBRANCH   3  22
TORSDOF 7
ENDMDL
MODEL 8
REMARK VINA RESULT:      -5.0     10.168     12.022
REMARK  7 active torsions:
REMARK  status: ('A' for Active; 'I' for Inactive)
REMARK    1  A    between atoms: C_2  and  C_3 
REMARK    2  A    between atoms: C_3  and  O_6 
REMARK    3  A    between atoms: C_3  and  C_4 
REMARK    4  A    between atoms: C_7  and  O_6 
REMARK    5  A    between atoms: C_9  and  C_10 
REMARK    6  A    between atoms: N_15  and  C_14 
REMARK    7  A    between atoms: N_20  and  C_19 
REMARK       I    between atoms: C_22  and  N_20 
ROOT
ATOM      1  C   LIG d   1     -14.564  67.128 118.417  0.00  0.00     0.161 C 
ATOM      2  C   LIG d   1     -15.351  66.729 117.323  0.00  0.00     0.016 C 
ATOM      3  C   LIG d   1     -16.019  65.485 117.257  0.00  0.00     0.038 C 
ATOM      4  C   LIG d   1     -16.067  64.610 118.353  0.00  0.00     0.028 C 
ATOM      5  C   LIG d   1     -14.871  64.746 119.289  0.00  0.00    -0.047 C 
ATOM      6  C   LIG d   1     -14.696  66.234 119.668  0.00  0.00     0.091 C 
ENDROOT
BRANCH   1   7
ATOM      7  O   LIG d   1     -14.849  68.501 118.749  0.00  0.00    -0.368 OA
BRANCH   7   8
ATOM      8  C   LIG d   1     -16.201  68.952 118.490  0.00  0.00     0.119 C 
BRANCH   8   9
ATOM      9  C   LIG d   1     -16.117  70.416 118.014  0.00  0.00     0.028 C 
ATOM     10  C   LIG d   1     -16.733  71.398 119.026  0.00  0.00     0.006 C 
ENDBRANCH   8   9
BRANCH   8  11
ATOM     11  C   LIG d   1     -17.032  68.991 119.776  0.00  0.00     0.028 C 
ATOM     12  C   LIG d   1     -18.097  67.884 119.831  0.00  0.00     0.006 C 
ENDBRANCH   8  11
ENDBRANCH   7   8
ENDBRANCH   1   7
BRANCH   6  13
ATOM     13  N   LIG d   1     -13.497  66.466 120.514  0.00  0.00    -0.311 N 
ATOM     14  C   LIG d   1     -13.529  67.142 121.662  0.00  0.00     0.210 C 
ATOM     15  C   LIG d   1     -12.177  67.283 122.368  0.00  0.00     0.109 C 
ATOM     16  O   LIG d   1     -14.555  67.611 122.178  0.00  0.00    -0.276 OA
ATOM     17  H   LIG d   1     -12.628  66.094 120.186  0.00  0.00     0.149 HD
ENDBRANCH   6  13
BRANCH   5  18
ATOM     18  N   LIG d   1     -15.118  63.878 120.456  0.00  0.00     0.381 N 
ATOM     19  H   LIG d   1     -14.577  63.040 120.375  0.00  0.00    -0.090 HD
ATOM     20  H   LIG d   1     -16.091  63.625 120.474  0.00  0.00    -0.090 HD
ATOM     21  H   LIG d   1     -14.877  64.358 121.295  0.00  0.00    -0.090 HD
ENDBRANCH   5  18
BRANCH   3  22
ATOM     22  C   LIG d   1     -16.614  65.086 116.070  0.00  0.00     0.382 C 
ATOM     23  O   LIG d   1     -17.806  64.695 116.067  0.00  0.00    -0.241 OA
ATOM     24  O   LIG d   1     -15.961  65.071 115.010  0.00  0.00    -0.241 OA
ENDBRANCH   3  22
TORSDOF 7
ENDMDL
MODEL 9
REMARK VINA RESULT:      -4.9      2.818      4.272
REMARK  7 active torsions:
REMARK  status: ('A' for Active; 'I' for Inactive)
REMARK    1  A    between atoms: C_2  and  C_3 
REMARK    2  A    between atoms: C_3  and  O_6 
REMARK    3  A    between atoms: C_3  and  C_4 
REMARK    4  A    between atoms: C_7  and  O_6 
REMARK    5  A    between atoms: C_9  and  C_10 
REMARK    6  A    between atoms: N_15  and  C_14 
REMARK    7  A    between atoms: N_20  and  C_19 
REMARK       I    between atoms: C_22  and  N_20 
ROOT
ATOM      1  C   LIG d   1      -7.403  77.132 117.302  0.00  0.00     0.161 C 
ATOM      2  C   LIG d   1      -8.593  76.428 117.548  0.00  0.00     0.016 C 
ATOM      3  C   LIG d   1      -9.738  77.015 118.134  0.00  0.00     0.038 C 
ATOM      4  C   LIG d   1      -9.822  78.394 118.377  0.00  0.00     0.028 C 
ATOM      5  C   LIG d   1      -8.466  79.052 118.612  0.00  0.00    -0.047 C 
ATOM      6  C   LIG d   1      -7.514  78.664 117.457  0.00  0.00     0.091 C 
ENDROOT
BRANCH   1   7
ATOM      7  O   LIG d   1      -6.899  76.797 115.994  0.00  0.00    -0.368 OA
BRANCH   7   8
ATOM      8  C   LIG d   1      -5.702  75.982 115.962  0.00  0.00     0.119 C 
BRANCH   8   9
ATOM      9  C   LIG d   1      -6.080  74.627 115.332  0.00  0.00     0.028 C 
ATOM     10  C   LIG d   1      -6.455  73.574 116.388  0.00  0.00     0.006 C 
ENDBRANCH   8   9
BRANCH   8  11
ATOM     11  C   LIG d   1      -5.216  75.650 117.376  0.00  0.00     0.028 C 
ATOM     12  C   LIG d   1      -3.719  75.937 117.575  0.00  0.00     0.006 C 
ENDBRANCH   8  11
ENDBRANCH   7   8
ENDBRANCH   1   7
BRANCH   6  13
ATOM     13  N   LIG d   1      -6.140  79.196 117.652  0.00  0.00    -0.311 N 
ATOM     14  C   LIG d   1      -5.737  80.375 117.181  0.00  0.00     0.210 C 
ATOM     15  C   LIG d   1      -4.276  80.724 117.477  0.00  0.00     0.109 C 
ATOM     16  O   LIG d   1      -6.461  81.179 116.573  0.00  0.00    -0.276 OA
ATOM     17  H   LIG d   1      -5.497  78.623 118.161  0.00  0.00     0.149 HD
ENDBRANCH   6  13
BRANCH   5  18
ATOM     18  N   LIG d   1      -8.688  80.506 118.714  0.00  0.00     0.381 N 
ATOM     19  H   LIG d   1      -8.885  80.753 119.663  0.00  0.00    -0.090 HD
ATOM     20  H   LIG d   1      -9.483  80.754 118.152  0.00  0.00    -0.090 HD
ATOM     21  H   LIG d   1      -7.881  80.998 118.396  0.00  0.00    -0.090 HD
ENDBRANCH   5  18
BRANCH   3  22
ATOM     22  C   LIG d   1     -10.801  76.213 118.521  0.00  0.00     0.382 C 
ATOM     23  O   LIG d   1     -11.904  76.305 117.931  0.00  0.00    -0.241 OA
ATOM     24  O   LIG d   1     -10.683  75.429 119.482  0.00  0.00    -0.241 OA
ENDBRANCH   3  22
TORSDOF 7
ENDMDL
