MODEL 1
REMARK VINA RESULT:      -5.6      0.000      0.000
REMARK  7 active torsions:
REMARK  status: ('A' for Active; 'I' for Inactive)
REMARK    1  A    between atoms: C_2  and  C_3 
REMARK    2  A    between atoms: C_3  and  O_6 
REMARK    3  A    between atoms: C_3  and  C_4 
REMARK    4  A    between atoms: C_7  and  O_6 
REMARK    5  A    between atoms: C_9  and  C_10 
REMARK    6  A    between atoms: N_15  and  C_14 
REMARK    7  A    between atoms: N_20  and  C_19 
REMARK       I    between atoms: C_22  and  N_20 
ROOT
ATOM      1  C   LIG d   1      -4.786  91.859 117.890  0.00  0.00     0.161 C 
ATOM      2  C   LIG d   1      -4.991  90.918 116.868  0.00  0.00     0.016 C 
ATOM      3  C   LIG d   1      -5.918  91.100 115.816  0.00  0.00     0.038 C 
ATOM      4  C   LIG d   1      -6.599  92.313 115.630  0.00  0.00     0.028 C 
ATOM      5  C   LIG d   1      -6.799  93.099 116.921  0.00  0.00    -0.047 C 
ATOM      6  C   LIG d   1      -5.439  93.235 117.642  0.00  0.00     0.091 C 
ENDROOT
BRANCH   1   7
ATOM      7  O   LIG d   1      -3.374  92.012 118.138  0.00  0.00    -0.368 OA
BRANCH   7   8
ATOM      8  C   LIG d   1      -2.826  91.211 119.214  0.00  0.00     0.119 C 
BRANCH   8   9
ATOM      9  C   LIG d   1      -2.073  92.164 120.163  0.00  0.00     0.028 C 
ATOM     10  C   LIG d   1      -1.101  93.090 119.414  0.00  0.00     0.006 C 
ENDBRANCH   8   9
BRANCH   8  11
ATOM     11  C   LIG d   1      -1.766  90.233 118.696  0.00  0.00     0.028 C 
ATOM     12  C   LIG d   1      -2.329  88.826 118.440  0.00  0.00     0.006 C 
ENDBRANCH   8  11
ENDBRANCH   7   8
ENDBRANCH   1   7
BRANCH   6  13
ATOM     13  N   LIG d   1      -5.560  93.919 118.956  0.00  0.00    -0.311 N 
ATOM     14  C   LIG d   1      -4.717  94.863 119.371  0.00  0.00     0.210 C 
ATOM     15  C   LIG d   1      -5.011  95.424 120.767  0.00  0.00     0.109 C 
ATOM     16  O   LIG d   1      -3.774  95.313 118.704  0.00  0.00    -0.276 OA
ATOM     17  H   LIG d   1      -6.316  93.637 119.549  0.00  0.00     0.149 HD
ENDBRANCH   6  13
BRANCH   5  18
ATOM     18  N   LIG d   1      -7.397  94.399 116.563  0.00  0.00     0.381 N 
ATOM     19  H   LIG d   1      -8.091  94.269 115.854  0.00  0.00    -0.090 HD
ATOM     20  H   LIG d   1      -6.678  94.997 116.194  0.00  0.00    -0.090 HD
ATOM     21  H   LIG d   1      -7.807  94.819 117.368  0.00  0.00    -0.090 HD
ENDBRANCH   5  18
BRANCH   3  22
ATOM     22  C   LIG d   1      -6.201  90.048 114.959  0.00  0.00     0.382 C 
ATOM     23  O   LIG d   1      -7.383  89.836 114.595  0.00  0.00    -0.241 OA
ATOM     24  O   LIG d   1      -5.296  89.281 114.580  0.00  0.00    -0.241 OA
ENDBRANCH   3  22
TORSDOF 7
ENDMDL
MODEL 2
REMARK VINA RESULT:      -5.4      2.364      4.581
REMARK  7 active torsions:
REMARK  status: ('A' for Active; 'I' for Inactive)
REMARK    1  A    between atoms: C_2  and  C_3 
REMARK    2  A    between atoms: C_3  and  O_6 
REMARK    3  A    between atoms: C_3  and  C_4 
REMARK    4  A    between atoms: C_7  and  O_6 
REMARK    5  A    between atoms: C_9  and  C_10 
REMARK    6  A    between atoms: N_15  and  C_14 
REMARK    7  A    between atoms: N_20  and  C_19 
REMARK       I    between atoms: C_22  and  N_20 
ROOT
ATOM      1  C   LIG d   1      -6.402  93.653 117.536  0.00  0.00     0.161 C 
ATOM      2  C   LIG d   1      -6.933  92.519 116.899  0.00  0.00     0.016 C 
ATOM      3  C   LIG d   1      -6.186  91.346 116.647  0.00  0.00     0.038 C 
ATOM      4  C   LIG d   1      -4.889  91.170 117.154  0.00  0.00     0.028 C 
ATOM      5  C   LIG d   1      -4.138  92.480 117.365  0.00  0.00    -0.047 C 
ATOM      6  C   LIG d   1      -5.023  93.438 118.195  0.00  0.00     0.091 C 
ENDROOT
BRANCH   1   7
ATOM      7  O   LIG d   1      -7.345  94.158 118.502  0.00  0.00    -0.368 OA
BRANCH   7   8
ATOM      8  C   LIG d   1      -8.371  95.042 117.989  0.00  0.00     0.119 C 
BRANCH   8   9
ATOM      9  C   LIG d   1      -7.698  96.388 117.655  0.00  0.00     0.028 C 
ATOM     10  C   LIG d   1      -7.221  97.133 118.912  0.00  0.00     0.006 C 
ENDBRANCH   8   9
BRANCH   8  11
ATOM     11  C   LIG d   1      -9.415  95.367 119.061  0.00  0.00     0.028 C 
ATOM     12  C   LIG d   1      -9.652  94.201 120.034  0.00  0.00     0.006 C 
ENDBRANCH   8  11
ENDBRANCH   7   8
ENDBRANCH   1   7
BRANCH   6  13
ATOM     13  N   LIG d   1      -4.398  94.774 118.376  0.00  0.00    -0.311 N 
ATOM     14  C   LIG d   1      -4.090  95.284 119.567  0.00  0.00     0.210 C 
ATOM     15  C   LIG d   1      -3.471  96.685 119.530  0.00  0.00     0.109 C 
ATOM     16  O   LIG d   1      -4.242  94.697 120.649  0.00  0.00    -0.276 OA
ATOM     17  H   LIG d   1      -4.212  95.306 117.548  0.00  0.00     0.149 HD
ENDBRANCH   6  13
BRANCH   5  18
ATOM     18  N   LIG d   1      -2.858  92.159 118.023  0.00  0.00     0.381 N 
ATOM     19  H   LIG d   1      -2.732  92.746 118.823  0.00  0.00    -0.090 HD
ATOM     20  H   LIG d   1      -2.107  92.337 117.380  0.00  0.00    -0.090 HD
ATOM     21  H   LIG d   1      -2.848  91.202 118.300  0.00  0.00    -0.090 HD
ENDBRANCH   5  18
BRANCH   3  22
ATOM     22  C   LIG d   1      -6.721  90.349 115.846  0.00  0.00     0.382 C 
ATOM     23  O   LIG d   1      -7.965  90.248 115.718  0.00  0.00    -0.241 OA
ATOM     24  O   LIG d   1      -5.977  89.522 115.285  0.00  0.00    -0.241 OA
ENDBRANCH   3  22
TORSDOF 7
ENDMDL
MODEL 3
REMARK VINA RESULT:      -5.1      2.309      4.381
REMARK  7 active torsions:
REMARK  status: ('A' for Active; 'I' for Inactive)
REMARK    1  A    between atoms: C_2  and  C_3 
REMARK    2  A    between atoms: C_3  and  O_6 
REMARK    3  A    between atoms: C_3  and  C_4 
REMARK    4  A    between atoms: C_7  and  O_6 
REMARK    5  A    between atoms: C_9  and  C_10 
REMARK    6  A    between atoms: N_15  and  C_14 
REMARK    7  A    between atoms: N_20  and  C_19 
REMARK       I    between atoms: C_22  and  N_20 
ROOT
ATOM      1  C   LIG d   1      -6.530  93.843 117.680  0.00  0.00     0.161 C 
ATOM      2  C   LIG d   1      -6.997  92.663 117.078  0.00  0.00     0.016 C 
ATOM      3  C   LIG d   1      -6.172  91.547 116.810  0.00  0.00     0.038 C 
ATOM      4  C   LIG d   1      -4.847  91.478 117.267  0.00  0.00     0.028 C 
ATOM      5  C   LIG d   1      -4.191  92.844 117.432  0.00  0.00    -0.047 C 
ATOM      6  C   LIG d   1      -5.114  93.744 118.286  0.00  0.00     0.091 C 
ENDROOT
BRANCH   1   7
ATOM      7  O   LIG d   1      -7.471  94.289 118.677  0.00  0.00    -0.368 OA
BRANCH   7   8
ATOM      8  C   LIG d   1      -7.238  93.821 120.028  0.00  0.00     0.119 C 
BRANCH   8   9
ATOM      9  C   LIG d   1      -8.446  92.953 120.432  0.00  0.00     0.028 C 
ATOM     10  C   LIG d   1      -8.811  93.110 121.917  0.00  0.00     0.006 C 
ENDBRANCH   8   9
BRANCH   8  11
ATOM     11  C   LIG d   1      -7.222  94.983 121.026  0.00  0.00     0.028 C 
ATOM     12  C   LIG d   1      -7.421  96.350 120.351  0.00  0.00     0.006 C 
ENDBRANCH   8  11
ENDBRANCH   7   8
ENDBRANCH   1   7
BRANCH   6  13
ATOM     13  N   LIG d   1      -4.587  95.126 118.426  0.00  0.00    -0.311 N 
ATOM     14  C   LIG d   1      -3.858  95.531 119.465  0.00  0.00     0.210 C 
ATOM     15  C   LIG d   1      -3.432  97.002 119.421  0.00  0.00     0.109 C 
ATOM     16  O   LIG d   1      -3.497  94.803 120.402  0.00  0.00    -0.276 OA
ATOM     17  H   LIG d   1      -4.806  95.774 117.695  0.00  0.00     0.149 HD
ENDBRANCH   6  13
BRANCH   5  18
ATOM     18  N   LIG d   1      -2.866  92.631 118.043  0.00  0.00     0.381 N 
ATOM     19  H   LIG d   1      -2.974  92.296 118.980  0.00  0.00    -0.090 HD
ATOM     20  H   LIG d   1      -2.378  93.509 118.077  0.00  0.00    -0.090 HD
ATOM     21  H   LIG d   1      -2.344  91.974 117.506  0.00  0.00    -0.090 HD
ENDBRANCH   5  18
BRANCH   3  22
ATOM     22  C   LIG d   1      -6.660  90.500 116.043  0.00  0.00     0.382 C 
ATOM     23  O   LIG d   1      -5.865  89.679 115.524  0.00  0.00    -0.241 OA
ATOM     24  O   LIG d   1      -7.881  90.392 115.825  0.00  0.00    -0.241 OA
ENDBRANCH   3  22
TORSDOF 7
ENDMDL
MODEL 4
REMARK VINA RESULT:      -4.8      1.509      4.909
REMARK  7 active torsions:
REMARK  status: ('A' for Active; 'I' for Inactive)
REMARK    1  A    between atoms: C_2  and  C_3 
REMARK    2  A    between atoms: C_3  and  O_6 
REMARK    3  A    between atoms: C_3  and  C_4 
REMARK    4  A    between atoms: C_7  and  O_6 
REMARK    5  A    between atoms: C_9  and  C_10 
REMARK    6  A    between atoms: N_15  and  C_14 
REMARK    7  A    between atoms: N_20  and  C_19 
REMARK       I    between atoms: C_22  and  N_20 
ROOT
ATOM      1  C   LIG d   1      -3.866  92.639 118.052  0.00  0.00     0.161 C 
ATOM      2  C   LIG d   1      -3.766  93.747 118.909  0.00  0.00     0.016 C 
ATOM      3  C   LIG d   1      -4.800  94.697 119.078  0.00  0.00     0.038 C 
ATOM      4  C   LIG d   1      -6.070  94.518 118.511  0.00  0.00     0.028 C 
ATOM      5  C   LIG d   1      -6.052  93.681 117.236  0.00  0.00    -0.047 C 
ATOM      6  C   LIG d   1      -5.285  92.367 117.510  0.00  0.00     0.091 C 
ENDROOT
BRANCH   1   7
ATOM      7  O   LIG d   1      -3.347  91.465 118.707  0.00  0.00    -0.368 OA
BRANCH   7   8
ATOM      8  C   LIG d   1      -1.904  91.339 118.739  0.00  0.00     0.119 C 
BRANCH   8   9
ATOM      9  C   LIG d   1      -1.512  90.248 117.723  0.00  0.00     0.028 C 
ATOM     10  C   LIG d   1      -2.591  89.161 117.583  0.00  0.00     0.006 C 
ENDBRANCH   8   9
BRANCH   8  11
ATOM     11  C   LIG d   1      -1.419  90.821 120.096  0.00  0.00     0.028 C 
ATOM     12  C   LIG d   1      -2.323  91.261 121.259  0.00  0.00     0.006 C 
ENDBRANCH   8  11
ENDBRANCH   7   8
ENDBRANCH   1   7
BRANCH   6  13
ATOM     13  N   LIG d   1      -5.148  91.527 116.292  0.00  0.00    -0.311 N 
ATOM     14  C   LIG d   1      -6.037  90.600 115.937  0.00  0.00     0.210 C 
ATOM     15  C   LIG d   1      -5.694  89.833 114.656  0.00  0.00     0.109 C 
ATOM     16  O   LIG d   1      -7.092  90.363 116.543  0.00  0.00    -0.276 OA
ATOM     17  H   LIG d   1      -4.337  91.675 115.724  0.00  0.00     0.149 HD
ENDBRANCH   6  13
BRANCH   5  18
ATOM     18  N   LIG d   1      -7.453  93.459 116.830  0.00  0.00     0.381 N 
ATOM     19  H   LIG d   1      -7.585  93.771 115.888  0.00  0.00    -0.090 HD
ATOM     20  H   LIG d   1      -8.054  93.997 117.428  0.00  0.00    -0.090 HD
ATOM     21  H   LIG d   1      -7.680  92.491 116.902  0.00  0.00    -0.090 HD
ENDBRANCH   5  18
BRANCH   3  22
ATOM     22  C   LIG d   1      -4.554  95.861 119.790  0.00  0.00     0.382 C 
ATOM     23  O   LIG d   1      -5.287  96.169 120.760  0.00  0.00    -0.241 OA
ATOM     24  O   LIG d   1      -3.636  96.629 119.446  0.00  0.00    -0.241 OA
ENDBRANCH   3  22
TORSDOF 7
ENDMDL
MODEL 5
REMARK VINA RESULT:      -4.8     13.407     15.796
REMARK  7 active torsions:
REMARK  status: ('A' for Active; 'I' for Inactive)
REMARK    1  A    between atoms: C_2  and  C_3 
REMARK    2  A    between atoms: C_3  and  O_6 
REMARK    3  A    between atoms: C_3  and  C_4 
REMARK    4  A    between atoms: C_7  and  O_6 
REMARK    5  A    between atoms: C_9  and  C_10 
REMARK    6  A    between atoms: N_15  and  C_14 
REMARK    7  A    between atoms: N_20  and  C_19 
REMARK       I    between atoms: C_22  and  N_20 
ROOT
ATOM      1  C   LIG d   1      -9.794  78.411 118.982  0.00  0.00     0.161 C 
ATOM      2  C   LIG d   1     -10.060  79.637 118.350  0.00  0.00     0.016 C 
ATOM      3  C   LIG d   1      -9.052  80.553 117.972  0.00  0.00     0.038 C 
ATOM      4  C   LIG d   1      -7.689  80.235 118.066  0.00  0.00     0.028 C 
ATOM      5  C   LIG d   1      -7.377  79.221 119.161  0.00  0.00    -0.047 C 
ATOM      6  C   LIG d   1      -8.307  77.998 118.992  0.00  0.00     0.091 C 
ENDROOT
BRANCH   1   7
ATOM      7  O   LIG d   1     -10.599  77.372 118.392  0.00  0.00    -0.368 OA
BRANCH   7   8
ATOM      8  C   LIG d   1     -11.338  76.535 119.316  0.00  0.00     0.119 C 
BRANCH   8   9
ATOM      9  C   LIG d   1     -12.716  76.254 118.686  0.00  0.00     0.028 C 
ATOM     10  C   LIG d   1     -13.357  74.965 119.227  0.00  0.00     0.006 C 
ENDBRANCH   8   9
BRANCH   8  11
ATOM     11  C   LIG d   1     -11.633  77.275 120.624  0.00  0.00     0.028 C 
ATOM     12  C   LIG d   1     -11.229  76.469 121.868  0.00  0.00     0.006 C 
ENDBRANCH   8  11
ENDBRANCH   7   8
ENDBRANCH   1   7
BRANCH   6  13
ATOM     13  N   LIG d   1      -8.127  76.994 120.073  0.00  0.00    -0.311 N 
ATOM     14  C   LIG d   1      -7.753  75.735 119.849  0.00  0.00     0.210 C 
ATOM     15  C   LIG d   1      -7.646  74.861 121.102  0.00  0.00     0.109 C 
ATOM     16  O   LIG d   1      -7.470  75.269 118.736  0.00  0.00    -0.276 OA
ATOM     17  H   LIG d   1      -8.305  77.296 121.010  0.00  0.00     0.149 HD
ENDBRANCH   6  13
BRANCH   5  18
ATOM     18  N   LIG d   1      -5.946  78.878 119.056  0.00  0.00     0.381 N 
ATOM     19  H   LIG d   1      -5.396  79.578 119.512  0.00  0.00    -0.090 HD
ATOM     20  H   LIG d   1      -5.687  78.856 118.086  0.00  0.00    -0.090 HD
ATOM     21  H   LIG d   1      -5.778  77.988 119.473  0.00  0.00    -0.090 HD
ENDBRANCH   5  18
BRANCH   3  22
ATOM     22  C   LIG d   1      -9.404  81.820 117.531  0.00  0.00     0.382 C 
ATOM     23  O   LIG d   1      -8.875  82.293 116.497  0.00  0.00    -0.241 OA
ATOM     24  O   LIG d   1     -10.211  82.513 118.179  0.00  0.00    -0.241 OA
ENDBRANCH   3  22
TORSDOF 7
ENDMDL
MODEL 6
REMARK VINA RESULT:      -4.8     13.705     16.066
REMARK  7 active torsions:
REMARK  status: ('A' for Active; 'I' for Inactive)
REMARK    1  A    between atoms: C_2  and  C_3 
REMARK    2  A    between atoms: C_3  and  O_6 
REMARK    3  A    between atoms: C_3  and  C_4 
REMARK    4  A    between atoms: C_7  and  O_6 
REMARK    5  A    between atoms: C_9  and  C_10 
REMARK    6  A    between atoms: N_15  and  C_14 
REMARK    7  A    between atoms: N_20  and  C_19 
REMARK       I    between atoms: C_22  and  N_20 
ROOT
ATOM      1  C   LIG d   1      -9.865  77.926 118.846  0.00  0.00     0.161 C 
ATOM      2  C   LIG d   1     -10.283  79.231 119.157  0.00  0.00     0.016 C 
ATOM      3  C   LIG d   1      -9.525  80.384 118.851  0.00  0.00     0.038 C 
ATOM      4  C   LIG d   1      -8.359  80.321 118.074  0.00  0.00     0.028 C 
ATOM      5  C   LIG d   1      -7.638  78.981 118.172  0.00  0.00    -0.047 C 
ATOM      6  C   LIG d   1      -8.650  77.845 117.900  0.00  0.00     0.091 C 
ENDROOT
BRANCH   1   7
ATOM      7  O   LIG d   1     -10.971  77.174 118.308  0.00  0.00    -0.368 OA
BRANCH   7   8
ATOM      8  C   LIG d   1     -11.960  76.723 119.265  0.00  0.00     0.119 C 
BRANCH   8   9
ATOM      9  C   LIG d   1     -11.234  75.844 120.303  0.00  0.00     0.028 C 
ATOM     10  C   LIG d   1     -11.316  76.426 121.724  0.00  0.00     0.006 C 
ENDBRANCH   8   9
BRANCH   8  11
ATOM     11  C   LIG d   1     -12.993  75.803 118.607  0.00  0.00     0.028 C 
ATOM     12  C   LIG d   1     -13.553  74.748 119.574  0.00  0.00     0.006 C 
ENDBRANCH   8  11
ENDBRANCH   7   8
ENDBRANCH   1   7
BRANCH   6  13
ATOM     13  N   LIG d   1      -8.045  76.497 118.059  0.00  0.00    -0.311 N 
ATOM     14  C   LIG d   1      -7.507  75.810 117.052  0.00  0.00     0.210 C 
ATOM     15  C   LIG d   1      -6.957  74.431 117.430  0.00  0.00     0.109 C 
ATOM     16  O   LIG d   1      -7.405  76.226 115.888  0.00  0.00    -0.276 OA
ATOM     17  H   LIG d   1      -8.057  76.097 118.977  0.00  0.00     0.149 HD
ENDBRANCH   6  13
BRANCH   5  18
ATOM     18  N   LIG d   1      -6.521  79.004 117.209  0.00  0.00     0.381 N 
ATOM     19  H   LIG d   1      -5.945  79.805 117.377  0.00  0.00    -0.090 HD
ATOM     20  H   LIG d   1      -6.895  79.074 116.279  0.00  0.00    -0.090 HD
ATOM     21  H   LIG d   1      -5.979  78.173 117.295  0.00  0.00    -0.090 HD
ENDBRANCH   5  18
BRANCH   3  22
ATOM     22  C   LIG d   1      -9.911  81.615 119.360  0.00  0.00     0.382 C 
ATOM     23  O   LIG d   1      -9.915  81.808 120.600  0.00  0.00    -0.241 OA
ATOM     24  O   LIG d   1     -10.298  82.521 118.597  0.00  0.00    -0.241 OA
ENDBRANCH   3  22
TORSDOF 7
ENDMDL
MODEL 7
REMARK VINA RESULT:      -4.8     12.730     14.995
REMARK  7 active torsions:
REMARK  status: ('A' for Active; 'I' for Inactive)
REMARK    1  A    between atoms: C_2  and  C_3 
REMARK    2  A    between atoms: C_3  and  O_6 
REMARK    3  A    between atoms: C_3  and  C_4 
REMARK    4  A    between atoms: C_7  and  O_6 
REMARK    5  A    between atoms: C_9  and  C_10 
REMARK    6  A    between atoms: N_15  and  C_14 
REMARK    7  A    between atoms: N_20  and  C_19 
REMARK       I    between atoms: C_22  and  N_20 
ROOT
ATOM      1  C   LIG d   1      -6.254  77.485 117.386  0.00  0.00     0.161 C 
ATOM      2  C   LIG d   1      -7.612  77.289 117.688  0.00  0.00     0.016 C 
ATOM      3  C   LIG d   1      -8.495  78.343 118.019  0.00  0.00     0.038 C 
ATOM      4  C   LIG d   1      -8.112  79.689 117.922  0.00  0.00     0.028 C 
ATOM      5  C   LIG d   1      -6.615  79.908 118.111  0.00  0.00    -0.047 C 
ATOM      6  C   LIG d   1      -5.845  78.956 117.167  0.00  0.00     0.091 C 
ENDROOT
BRANCH   1   7
ATOM      7  O   LIG d   1      -5.888  76.688 116.242  0.00  0.00    -0.368 OA
BRANCH   7   8
ATOM      8  C   LIG d   1      -5.118  75.492 116.518  0.00  0.00     0.119 C 
BRANCH   8   9
ATOM      9  C   LIG d   1      -3.770  75.631 115.784  0.00  0.00     0.028 C 
ATOM     10  C   LIG d   1      -2.569  75.364 116.707  0.00  0.00     0.006 C 
ENDBRANCH   8   9
BRANCH   8  11
ATOM     11  C   LIG d   1      -5.781  74.250 115.916  0.00  0.00     0.028 C 
ATOM     12  C   LIG d   1      -6.809  73.607 116.860  0.00  0.00     0.006 C 
ENDBRANCH   8  11
ENDBRANCH   7   8
ENDBRANCH   1   7
BRANCH   6  13
ATOM     13  N   LIG d   1      -4.373  79.046 117.348  0.00  0.00    -0.311 N 
ATOM     14  C   LIG d   1      -3.518  79.206 116.339  0.00  0.00     0.210 C 
ATOM     15  C   LIG d   1      -2.042  79.254 116.744  0.00  0.00     0.109 C 
ATOM     16  O   LIG d   1      -3.845  79.346 115.151  0.00  0.00    -0.276 OA
ATOM     17  H   LIG d   1      -4.023  78.974 118.284  0.00  0.00     0.149 HD
ENDBRANCH   6  13
BRANCH   5  18
ATOM     18  N   LIG d   1      -6.336  81.333 117.849  0.00  0.00     0.381 N 
ATOM     19  H   LIG d   1      -6.574  81.878 118.653  0.00  0.00    -0.090 HD
ATOM     20  H   LIG d   1      -6.906  81.639 117.080  0.00  0.00    -0.090 HD
ATOM     21  H   LIG d   1      -5.373  81.457 117.628  0.00  0.00    -0.090 HD
ENDBRANCH   5  18
BRANCH   3  22
ATOM     22  C   LIG d   1      -9.766  78.052 118.491  0.00  0.00     0.382 C 
ATOM     23  O   LIG d   1     -10.576  78.981 118.722  0.00  0.00    -0.241 OA
ATOM     24  O   LIG d   1     -10.097  76.875 118.729  0.00  0.00    -0.241 OA
ENDBRANCH   3  22
TORSDOF 7
ENDMDL
MODEL 8
REMARK VINA RESULT:      -4.7     12.829     14.955
REMARK  7 active torsions:
REMARK  status: ('A' for Active; 'I' for Inactive)
REMARK    1  A    between atoms: C_2  and  C_3 
REMARK    2  A    between atoms: C_3  and  O_6 
REMARK    3  A    between atoms: C_3  and  C_4 
REMARK    4  A    between atoms: C_7  and  O_6 
REMARK    5  A    between atoms: C_9  and  C_10 
REMARK    6  A    between atoms: N_15  and  C_14 
REMARK    7  A    between atoms: N_20  and  C_19 
REMARK       I    between atoms: C_22  and  N_20 
ROOT
ATOM      1  C   LIG d   1      -7.605  77.430 119.050  0.00  0.00     0.161 C 
ATOM      2  C   LIG d   1      -8.837  76.757 119.107  0.00  0.00     0.016 C 
ATOM      3  C   LIG d   1     -10.085  77.403 118.950  0.00  0.00     0.038 C 
ATOM      4  C   LIG d   1     -10.179  78.751 118.574  0.00  0.00     0.028 C 
ATOM      5  C   LIG d   1      -8.976  79.585 119.002  0.00  0.00    -0.047 C 
ATOM      6  C   LIG d   1      -7.684  78.880 118.530  0.00  0.00     0.091 C 
ENDROOT
BRANCH   1   7
ATOM      7  O   LIG d   1      -6.667  76.667 118.266  0.00  0.00    -0.368 OA
BRANCH   7   8
ATOM      8  C   LIG d   1      -6.625  76.970 116.850  0.00  0.00     0.119 C 
BRANCH   8   9
ATOM      9  C   LIG d   1      -7.119  75.721 116.094  0.00  0.00     0.028 C 
ATOM     10  C   LIG d   1      -6.746  74.414 116.814  0.00  0.00     0.006 C 
ENDBRANCH   8   9
BRANCH   8  11
ATOM     11  C   LIG d   1      -5.188  77.193 116.370  0.00  0.00     0.028 C 
ATOM     12  C   LIG d   1      -4.159  77.102 117.508  0.00  0.00     0.006 C 
ENDBRANCH   8  11
ENDBRANCH   7   8
ENDBRANCH   1   7
BRANCH   6  13
ATOM     13  N   LIG d   1      -6.456  79.587 118.981  0.00  0.00    -0.311 N 
ATOM     14  C   LIG d   1      -5.784  80.447 118.218  0.00  0.00     0.210 C 
ATOM     15  C   LIG d   1      -4.535  81.049 118.868  0.00  0.00     0.109 C 
ATOM     16  O   LIG d   1      -6.122  80.794 117.076  0.00  0.00    -0.276 OA
ATOM     17  H   LIG d   1      -6.129  79.388 119.906  0.00  0.00     0.149 HD
ENDBRANCH   6  13
BRANCH   5  18
ATOM     18  N   LIG d   1      -9.142  80.934 118.427  0.00  0.00     0.381 N 
ATOM     19  H   LIG d   1      -9.529  80.865 117.507  0.00  0.00    -0.090 HD
ATOM     20  H   LIG d   1      -8.240  81.370 118.357  0.00  0.00    -0.090 HD
ATOM     21  H   LIG d   1      -9.740  81.480 119.007  0.00  0.00    -0.090 HD
ENDBRANCH   5  18
BRANCH   3  22
ATOM     22  C   LIG d   1     -11.256  76.708 119.211  0.00  0.00     0.382 C 
ATOM     23  O   LIG d   1     -11.405  76.120 120.309  0.00  0.00    -0.241 OA
ATOM     24  O   LIG d   1     -12.146  76.624 118.344  0.00  0.00    -0.241 OA
ENDBRANCH   3  22
TORSDOF 7
ENDMDL
MODEL 9
REMARK VINA RESULT:      -4.7     13.159     15.129
REMARK  7 active torsions:
REMARK  status: ('A' for Active; 'I' for Inactive)
REMARK    1  A    between atoms: C_2  and  C_3 
REMARK    2  A    between atoms: C_3  and  O_6 
REMARK    3  A    between atoms: C_3  and  C_4 
REMARK    4  A    between atoms: C_7  and  O_6 
REMARK    5  A    between atoms: C_9  and  C_10 
REMARK    6  A    between atoms: N_15  and  C_14 
REMARK    7  A    between atoms: N_20  and  C_19 
REMARK       I    between atoms: C_22  and  N_20 
ROOT
ATOM      1  C   LIG d   1      -9.565  78.375 118.296  0.00  0.00     0.161 C 
ATOM      2  C   LIG d   1      -8.999  77.220 117.732  0.00  0.00     0.016 C 
ATOM      3  C   LIG d   1      -7.631  77.111 117.390  0.00  0.00     0.038 C 
ATOM      4  C   LIG d   1      -6.701  78.104 117.731  0.00  0.00     0.028 C 
ATOM      5  C   LIG d   1      -7.314  79.496 117.844  0.00  0.00    -0.047 C 
ATOM      6  C   LIG d   1      -8.544  79.428 118.777  0.00  0.00     0.091 C 
ENDROOT
BRANCH   1   7
ATOM      7  O   LIG d   1     -10.452  78.010 119.372  0.00  0.00    -0.368 OA
BRANCH   7   8
ATOM      8  C   LIG d   1     -10.493  76.603 119.714  0.00  0.00     0.119 C 
BRANCH   8   9
ATOM      9  C   LIG d   1     -11.968  76.225 119.947  0.00  0.00     0.028 C 
ATOM     10  C   LIG d   1     -12.732  76.004 118.631  0.00  0.00     0.006 C 
ENDBRANCH   8   9
BRANCH   8  11
ATOM     11  C   LIG d   1      -9.790  76.334 121.048  0.00  0.00     0.028 C 
ATOM     12  C   LIG d   1      -8.644  75.317 120.924  0.00  0.00     0.006 C 
ENDBRANCH   8  11
ENDBRANCH   7   8
ENDBRANCH   1   7
BRANCH   6  13
ATOM     13  N   LIG d   1      -9.254  80.730 118.876  0.00  0.00    -0.311 N 
ATOM     14  C   LIG d   1      -8.990  81.639 119.813  0.00  0.00     0.210 C 
ATOM     15  C   LIG d   1      -9.850  82.905 119.746  0.00  0.00     0.109 C 
ATOM     16  O   LIG d   1      -8.102  81.532 120.672  0.00  0.00    -0.276 OA
ATOM     17  H   LIG d   1      -9.968  80.913 118.199  0.00  0.00     0.149 HD
ENDBRANCH   6  13
BRANCH   5  18
ATOM     18  N   LIG d   1      -6.264  80.407 118.338  0.00  0.00     0.381 N 
ATOM     19  H   LIG d   1      -5.625  79.903 118.920  0.00  0.00    -0.090 HD
ATOM     20  H   LIG d   1      -6.693  81.129 118.890  0.00  0.00    -0.090 HD
ATOM     21  H   LIG d   1      -5.775  80.812 117.570  0.00  0.00    -0.090 HD
ENDBRANCH   5  18
BRANCH   3  22
ATOM     22  C   LIG d   1      -7.189  76.016 116.664  0.00  0.00     0.382 C 
ATOM     23  O   LIG d   1      -7.069  74.900 117.224  0.00  0.00    -0.241 OA
ATOM     24  O   LIG d   1      -6.868  76.140 115.467  0.00  0.00    -0.241 OA
ENDBRANCH   3  22
TORSDOF 7
ENDMDL
