MODEL 1
REMARK VINA RESULT:      -5.6      0.000      0.000
REMARK  7 active torsions:
REMARK  status: ('A' for Active; 'I' for Inactive)
REMARK    1  A    between atoms: C_2  and  C_3 
REMARK    2  A    between atoms: C_3  and  O_6 
REMARK    3  A    between atoms: C_3  and  C_4 
REMARK    4  A    between atoms: C_7  and  O_6 
REMARK    5  A    between atoms: C_9  and  C_10 
REMARK    6  A    between atoms: N_15  and  C_14 
REMARK    7  A    between atoms: N_20  and  C_19 
REMARK       I    between atoms: C_22  and  N_20 
ROOT
ATOM      1  C   LIG d   1      -3.146  76.935 116.210  0.00  0.00     0.161 C 
ATOM      2  C   LIG d   1      -3.349  77.932 115.241  0.00  0.00     0.016 C 
ATOM      3  C   LIG d   1      -2.395  78.260 114.250  0.00  0.00     0.038 C 
ATOM      4  C   LIG d   1      -1.227  77.504 114.067  0.00  0.00     0.028 C 
ATOM      5  C   LIG d   1      -0.747  76.812 115.338  0.00  0.00    -0.047 C 
ATOM      6  C   LIG d   1      -1.926  76.026 115.957  0.00  0.00     0.091 C 
ENDROOT
BRANCH   1   7
ATOM      7  O   LIG d   1      -4.341  76.142 116.352  0.00  0.00    -0.368 OA
BRANCH   7   8
ATOM      8  C   LIG d   1      -5.537  76.673 115.730  0.00  0.00     0.119 C 
BRANCH   8   9
ATOM      9  C   LIG d   1      -6.575  76.906 116.846  0.00  0.00     0.028 C 
ATOM     10  C   LIG d   1      -7.748  75.915 116.771  0.00  0.00     0.006 C 
ENDBRANCH   8   9
BRANCH   8  11
ATOM     11  C   LIG d   1      -6.177  75.650 114.788  0.00  0.00     0.028 C 
ATOM     12  C   LIG d   1      -5.247  74.467 114.472  0.00  0.00     0.006 C 
ENDBRANCH   8  11
ENDBRANCH   7   8
ENDBRANCH   1   7
BRANCH   6  13
ATOM     13  N   LIG d   1      -1.565  75.387 117.249  0.00  0.00    -0.311 N 
ATOM     14  C   LIG d   1      -1.246  74.100 117.367  0.00  0.00     0.210 C 
ATOM     15  C   LIG d   1      -0.926  73.640 118.793  0.00  0.00     0.109 C 
ATOM     16  O   LIG d   1      -1.166  73.301 116.421  0.00  0.00    -0.276 OA
ATOM     17  H   LIG d   1      -1.574  75.970 118.064  0.00  0.00     0.149 HD
ENDBRANCH   6  13
BRANCH   5  18
ATOM     18  N   LIG d   1       0.394  75.952 114.974  0.00  0.00     0.381 N 
ATOM     19  H   LIG d   1       1.222  76.275 115.434  0.00  0.00    -0.090 HD
ATOM     20  H   LIG d   1       0.542  76.010 113.982  0.00  0.00    -0.090 HD
ATOM     21  H   LIG d   1       0.207  75.009 115.235  0.00  0.00    -0.090 HD
ENDBRANCH   5  18
BRANCH   3  22
ATOM     22  C   LIG d   1      -2.587  79.379 113.455  0.00  0.00     0.382 C 
ATOM     23  O   LIG d   1      -2.189  79.379 112.265  0.00  0.00    -0.241 OA
ATOM     24  O   LIG d   1      -3.112  80.406 113.926  0.00  0.00    -0.241 OA
ENDBRANCH   3  22
TORSDOF 7
ENDMDL
MODEL 2
REMARK VINA RESULT:      -5.5     14.260     16.490
REMARK  7 active torsions:
REMARK  status: ('A' for Active; 'I' for Inactive)
REMARK    1  A    between atoms: C_2  and  C_3 
REMARK    2  A    between atoms: C_3  and  O_6 
REMARK    3  A    between atoms: C_3  and  C_4 
REMARK    4  A    between atoms: C_7  and  O_6 
REMARK    5  A    between atoms: C_9  and  C_10 
REMARK    6  A    between atoms: N_15  and  C_14 
REMARK    7  A    between atoms: N_20  and  C_19 
REMARK       I    between atoms: C_22  and  N_20 
ROOT
ATOM      1  C   LIG d   1      -5.595  92.866 117.324  0.00  0.00     0.161 C 
ATOM      2  C   LIG d   1      -6.665  92.002 117.038  0.00  0.00     0.016 C 
ATOM      3  C   LIG d   1      -6.498  90.636 116.716  0.00  0.00     0.038 C 
ATOM      4  C   LIG d   1      -5.251  90.000 116.805  0.00  0.00     0.028 C 
ATOM      5  C   LIG d   1      -4.073  90.946 116.599  0.00  0.00    -0.047 C 
ATOM      6  C   LIG d   1      -4.237  92.164 117.535  0.00  0.00     0.091 C 
ENDROOT
BRANCH   1   7
ATOM      7  O   LIG d   1      -5.918  93.685 118.465  0.00  0.00    -0.368 OA
BRANCH   7   8
ATOM      8  C   LIG d   1      -5.664  93.097 119.764  0.00  0.00     0.119 C 
BRANCH   8   9
ATOM      9  C   LIG d   1      -7.015  92.996 120.499  0.00  0.00     0.028 C 
ATOM     10  C   LIG d   1      -6.907  92.221 121.823  0.00  0.00     0.006 C 
ENDBRANCH   8   9
BRANCH   8  11
ATOM     11  C   LIG d   1      -4.798  94.015 120.632  0.00  0.00     0.028 C 
ATOM     12  C   LIG d   1      -4.554  95.388 119.986  0.00  0.00     0.006 C 
ENDBRANCH   8  11
ENDBRANCH   7   8
ENDBRANCH   1   7
BRANCH   6  13
ATOM     13  N   LIG d   1      -3.170  93.179 117.337  0.00  0.00    -0.311 N 
ATOM     14  C   LIG d   1      -2.078  93.254 118.096  0.00  0.00     0.210 C 
ATOM     15  C   LIG d   1      -1.114  94.388 117.733  0.00  0.00     0.109 C 
ATOM     16  O   LIG d   1      -1.801  92.469 119.015  0.00  0.00    -0.276 OA
ATOM     17  H   LIG d   1      -3.299  93.837 116.593  0.00  0.00     0.149 HD
ENDBRANCH   6  13
BRANCH   5  18
ATOM     18  N   LIG d   1      -2.838  90.181 116.855  0.00  0.00     0.381 N 
ATOM     19  H   LIG d   1      -2.994  89.211 116.665  0.00  0.00    -0.090 HD
ATOM     20  H   LIG d   1      -2.592  90.277 117.825  0.00  0.00    -0.090 HD
ATOM     21  H   LIG d   1      -2.099  90.525 116.282  0.00  0.00    -0.090 HD
ENDBRANCH   5  18
BRANCH   3  22
ATOM     22  C   LIG d   1      -7.582  89.900 116.259  0.00  0.00     0.382 C 
ATOM     23  O   LIG d   1      -7.876  88.812 116.809  0.00  0.00    -0.241 OA
ATOM     24  O   LIG d   1      -8.241  90.290 115.276  0.00  0.00    -0.241 OA
ENDBRANCH   3  22
TORSDOF 7
ENDMDL
MODEL 3
REMARK VINA RESULT:      -5.4     15.014     17.279
REMARK  7 active torsions:
REMARK  status: ('A' for Active; 'I' for Inactive)
REMARK    1  A    between atoms: C_2  and  C_3 
REMARK    2  A    between atoms: C_3  and  O_6 
REMARK    3  A    between atoms: C_3  and  C_4 
REMARK    4  A    between atoms: C_7  and  O_6 
REMARK    5  A    between atoms: C_9  and  C_10 
REMARK    6  A    between atoms: N_15  and  C_14 
REMARK    7  A    between atoms: N_20  and  C_19 
REMARK       I    between atoms: C_22  and  N_20 
ROOT
ATOM      1  C   LIG d   1      -5.617  92.970 117.568  0.00  0.00     0.161 C 
ATOM      2  C   LIG d   1      -6.473  91.955 117.110  0.00  0.00     0.016 C 
ATOM      3  C   LIG d   1      -6.024  90.668 116.736  0.00  0.00     0.038 C 
ATOM      4  C   LIG d   1      -4.698  90.257 116.940  0.00  0.00     0.028 C 
ATOM      5  C   LIG d   1      -3.698  91.409 116.927  0.00  0.00    -0.047 C 
ATOM      6  C   LIG d   1      -4.184  92.506 117.902  0.00  0.00     0.091 C 
ENDROOT
BRANCH   1   7
ATOM      7  O   LIG d   1      -6.208  93.631 118.704  0.00  0.00    -0.368 OA
BRANCH   7   8
ATOM      8  C   LIG d   1      -6.648  94.995 118.491  0.00  0.00     0.119 C 
BRANCH   8   9
ATOM      9  C   LIG d   1      -5.996  95.868 119.580  0.00  0.00     0.028 C 
ATOM     10  C   LIG d   1      -5.445  97.191 119.021  0.00  0.00     0.006 C 
ENDBRANCH   8   9
BRANCH   8  11
ATOM     11  C   LIG d   1      -8.157  95.134 118.709  0.00  0.00     0.028 C 
ATOM     12  C   LIG d   1      -8.547  95.138 120.196  0.00  0.00     0.006 C 
ENDBRANCH   8  11
ENDBRANCH   7   8
ENDBRANCH   1   7
BRANCH   6  13
ATOM     13  N   LIG d   1      -3.307  93.706 117.888  0.00  0.00    -0.311 N 
ATOM     14  C   LIG d   1      -2.754  94.223 118.984  0.00  0.00     0.210 C 
ATOM     15  C   LIG d   1      -1.901  95.473 118.749  0.00  0.00     0.109 C 
ATOM     16  O   LIG d   1      -2.863  93.746 120.123  0.00  0.00    -0.276 OA
ATOM     17  H   LIG d   1      -3.141  94.138 117.001  0.00  0.00     0.149 HD
ENDBRANCH   6  13
BRANCH   5  18
ATOM     18  N   LIG d   1      -2.379  90.858 117.288  0.00  0.00     0.381 N 
ATOM     19  H   LIG d   1      -2.018  91.338 118.088  0.00  0.00    -0.090 HD
ATOM     20  H   LIG d   1      -1.745  91.002 116.522  0.00  0.00    -0.090 HD
ATOM     21  H   LIG d   1      -2.458  89.884 117.484  0.00  0.00    -0.090 HD
ENDBRANCH   5  18
BRANCH   3  22
ATOM     22  C   LIG d   1      -6.897  89.789 116.114  0.00  0.00     0.382 C 
ATOM     23  O   LIG d   1      -7.665  89.075 116.803  0.00  0.00    -0.241 OA
ATOM     24  O   LIG d   1      -6.896  89.668 114.874  0.00  0.00    -0.241 OA
ENDBRANCH   3  22
TORSDOF 7
ENDMDL
MODEL 4
REMARK VINA RESULT:      -5.4     17.074     18.321
REMARK  7 active torsions:
REMARK  status: ('A' for Active; 'I' for Inactive)
REMARK    1  A    between atoms: C_2  and  C_3 
REMARK    2  A    between atoms: C_3  and  O_6 
REMARK    3  A    between atoms: C_3  and  C_4 
REMARK    4  A    between atoms: C_7  and  O_6 
REMARK    5  A    between atoms: C_9  and  C_10 
REMARK    6  A    between atoms: N_15  and  C_14 
REMARK    7  A    between atoms: N_20  and  C_19 
REMARK       I    between atoms: C_22  and  N_20 
ROOT
ATOM      1  C   LIG d   1      -1.137  60.218 118.932  0.00  0.00     0.161 C 
ATOM      2  C   LIG d   1       0.165  60.028 118.441  0.00  0.00     0.016 C 
ATOM      3  C   LIG d   1       1.205  59.442 119.199  0.00  0.00     0.038 C 
ATOM      4  C   LIG d   1       0.970  58.864 120.456  0.00  0.00     0.028 C 
ATOM      5  C   LIG d   1      -0.210  59.483 121.197  0.00  0.00    -0.047 C 
ATOM      6  C   LIG d   1      -1.440  59.494 120.260  0.00  0.00     0.091 C 
ENDROOT
BRANCH   1   7
ATOM      7  O   LIG d   1      -2.098  59.842 117.926  0.00  0.00    -0.368 OA
BRANCH   7   8
ATOM      8  C   LIG d   1      -2.521  58.456 117.935  0.00  0.00     0.119 C 
BRANCH   8   9
ATOM      9  C   LIG d   1      -2.048  57.819 116.614  0.00  0.00     0.028 C 
ATOM     10  C   LIG d   1      -0.847  56.879 116.813  0.00  0.00     0.006 C 
ENDBRANCH   8   9
BRANCH   8  11
ATOM     11  C   LIG d   1      -4.048  58.340 117.917  0.00  0.00     0.028 C 
ATOM     12  C   LIG d   1      -4.750  59.707 117.914  0.00  0.00     0.006 C 
ENDBRANCH   8  11
ENDBRANCH   7   8
ENDBRANCH   1   7
BRANCH   6  13
ATOM     13  N   LIG d   1      -2.617  60.160 120.877  0.00  0.00    -0.311 N 
ATOM     14  C   LIG d   1      -3.575  59.501 121.527  0.00  0.00     0.210 C 
ATOM     15  C   LIG d   1      -4.708  60.377 122.069  0.00  0.00     0.109 C 
ATOM     16  O   LIG d   1      -3.576  58.278 121.735  0.00  0.00    -0.276 OA
ATOM     17  H   LIG d   1      -2.679  61.155 120.784  0.00  0.00     0.149 HD
ENDBRANCH   6  13
BRANCH   5  18
ATOM     18  N   LIG d   1      -0.427  58.697 122.426  0.00  0.00     0.381 N 
ATOM     19  H   LIG d   1      -1.313  58.932 122.826  0.00  0.00    -0.090 HD
ATOM     20  H   LIG d   1       0.290  58.929 123.091  0.00  0.00    -0.090 HD
ATOM     21  H   LIG d   1      -0.395  57.724 122.219  0.00  0.00    -0.090 HD
ENDBRANCH   5  18
BRANCH   3  22
ATOM     22  C   LIG d   1       2.504  59.465 118.717  0.00  0.00     0.382 C 
ATOM     23  O   LIG d   1       2.880  60.402 117.972  0.00  0.00    -0.241 OA
ATOM     24  O   LIG d   1       3.293  58.537 118.981  0.00  0.00    -0.241 OA
ENDBRANCH   3  22
TORSDOF 7
ENDMDL
MODEL 5
REMARK VINA RESULT:      -5.4      3.494      6.073
REMARK  7 active torsions:
REMARK  status: ('A' for Active; 'I' for Inactive)
REMARK    1  A    between atoms: C_2  and  C_3 
REMARK    2  A    between atoms: C_3  and  O_6 
REMARK    3  A    between atoms: C_3  and  C_4 
REMARK    4  A    between atoms: C_7  and  O_6 
REMARK    5  A    between atoms: C_9  and  C_10 
REMARK    6  A    between atoms: N_15  and  C_14 
REMARK    7  A    between atoms: N_20  and  C_19 
REMARK       I    between atoms: C_22  and  N_20 
ROOT
ATOM      1  C   LIG d   1      -6.138  77.786 117.143  0.00  0.00     0.161 C 
ATOM      2  C   LIG d   1      -7.507  77.658 117.432  0.00  0.00     0.016 C 
ATOM      3  C   LIG d   1      -8.288  78.703 117.977  0.00  0.00     0.038 C 
ATOM      4  C   LIG d   1      -7.783  80.003 118.131  0.00  0.00     0.028 C 
ATOM      5  C   LIG d   1      -6.271  80.047 118.325  0.00  0.00    -0.047 C 
ATOM      6  C   LIG d   1      -5.597  79.230 117.200  0.00  0.00     0.091 C 
ENDROOT
BRANCH   1   7
ATOM      7  O   LIG d   1      -5.852  77.194 115.860  0.00  0.00    -0.368 OA
BRANCH   7   8
ATOM      8  C   LIG d   1      -5.328  75.844 115.883  0.00  0.00     0.119 C 
BRANCH   8   9
ATOM      9  C   LIG d   1      -3.818  75.928 115.588  0.00  0.00     0.028 C 
ATOM     10  C   LIG d   1      -3.022  74.803 116.270  0.00  0.00     0.006 C 
ENDBRANCH   8   9
BRANCH   8  11
ATOM     11  C   LIG d   1      -5.916  74.997 114.750  0.00  0.00     0.028 C 
ATOM     12  C   LIG d   1      -6.571  75.847 113.650  0.00  0.00     0.006 C 
ENDBRANCH   8  11
ENDBRANCH   7   8
ENDBRANCH   1   7
BRANCH   6  13
ATOM     13  N   LIG d   1      -4.122  79.151 117.362  0.00  0.00    -0.311 N 
ATOM     14  C   LIG d   1      -3.262  79.357 116.366  0.00  0.00     0.210 C 
ATOM     15  C   LIG d   1      -1.785  79.208 116.745  0.00  0.00     0.109 C 
ATOM     16  O   LIG d   1      -3.582  79.681 115.212  0.00  0.00    -0.276 OA
ATOM     17  H   LIG d   1      -3.775  78.924 118.274  0.00  0.00     0.149 HD
ENDBRANCH   6  13
BRANCH   5  18
ATOM     18  N   LIG d   1      -5.864  81.465 118.334  0.00  0.00     0.381 N 
ATOM     19  H   LIG d   1      -4.870  81.531 118.420  0.00  0.00    -0.090 HD
ATOM     20  H   LIG d   1      -6.281  81.918 119.128  0.00  0.00    -0.090 HD
ATOM     21  H   LIG d   1      -6.163  81.910 117.494  0.00  0.00    -0.090 HD
ENDBRANCH   5  18
BRANCH   3  22
ATOM     22  C   LIG d   1      -9.578  78.441 118.413  0.00  0.00     0.382 C 
ATOM     23  O   LIG d   1     -10.103  77.325 118.182  0.00  0.00    -0.241 OA
ATOM     24  O   LIG d   1     -10.239  79.321 118.995  0.00  0.00    -0.241 OA
ENDBRANCH   3  22
TORSDOF 7
ENDMDL
MODEL 6
REMARK VINA RESULT:      -5.4      2.053      2.941
REMARK  7 active torsions:
REMARK  status: ('A' for Active; 'I' for Inactive)
REMARK    1  A    between atoms: C_2  and  C_3 
REMARK    2  A    between atoms: C_3  and  O_6 
REMARK    3  A    between atoms: C_3  and  C_4 
REMARK    4  A    between atoms: C_7  and  O_6 
REMARK    5  A    between atoms: C_9  and  C_10 
REMARK    6  A    between atoms: N_15  and  C_14 
REMARK    7  A    between atoms: N_20  and  C_19 
REMARK       I    between atoms: C_22  and  N_20 
ROOT
ATOM      1  C   LIG d   1      -3.152  78.590 115.621  0.00  0.00     0.161 C 
ATOM      2  C   LIG d   1      -3.135  79.735 114.807  0.00  0.00     0.016 C 
ATOM      3  C   LIG d   1      -2.334  79.854 113.648  0.00  0.00     0.038 C 
ATOM      4  C   LIG d   1      -1.603  78.772 113.137  0.00  0.00     0.028 C 
ATOM      5  C   LIG d   1      -1.195  77.759 114.202  0.00  0.00    -0.047 C 
ATOM      6  C   LIG d   1      -2.446  77.357 115.018  0.00  0.00     0.091 C 
ENDROOT
BRANCH   1   7
ATOM      7  O   LIG d   1      -4.510  78.264 115.979  0.00  0.00    -0.368 OA
BRANCH   7   8
ATOM      8  C   LIG d   1      -5.099  79.060 117.036  0.00  0.00     0.119 C 
BRANCH   8   9
ATOM      9  C   LIG d   1      -4.285  78.800 118.319  0.00  0.00     0.028 C 
ATOM     10  C   LIG d   1      -3.805  80.102 118.983  0.00  0.00     0.006 C 
ENDBRANCH   8   9
BRANCH   8  11
ATOM     11  C   LIG d   1      -6.522  78.594 117.357  0.00  0.00     0.028 C 
ATOM     12  C   LIG d   1      -7.428  79.737 117.842  0.00  0.00     0.006 C 
ENDBRANCH   8  11
ENDBRANCH   7   8
ENDBRANCH   1   7
BRANCH   6  13
ATOM     13  N   LIG d   1      -2.121  76.434 116.136  0.00  0.00    -0.311 N 
ATOM     14  C   LIG d   1      -2.193  75.107 116.035  0.00  0.00     0.210 C 
ATOM     15  C   LIG d   1      -1.834  74.342 117.313  0.00  0.00     0.109 C 
ATOM     16  O   LIG d   1      -2.490  74.492 115.000  0.00  0.00    -0.276 OA
ATOM     17  H   LIG d   1      -1.840  76.848 117.003  0.00  0.00     0.149 HD
ENDBRANCH   6  13
BRANCH   5  18
ATOM     18  N   LIG d   1      -0.563  76.619 113.514  0.00  0.00     0.381 N 
ATOM     19  H   LIG d   1      -0.908  76.554 112.578  0.00  0.00    -0.090 HD
ATOM     20  H   LIG d   1      -0.804  75.772 113.999  0.00  0.00    -0.090 HD
ATOM     21  H   LIG d   1       0.427  76.733 113.503  0.00  0.00    -0.090 HD
ENDBRANCH   5  18
BRANCH   3  22
ATOM     22  C   LIG d   1      -2.228  81.081 113.010  0.00  0.00     0.382 C 
ATOM     23  O   LIG d   1      -3.262  81.689 112.644  0.00  0.00    -0.241 OA
ATOM     24  O   LIG d   1      -1.109  81.566 112.757  0.00  0.00    -0.241 OA
ENDBRANCH   3  22
TORSDOF 7
ENDMDL
MODEL 7
REMARK VINA RESULT:      -5.3     14.069     16.589
REMARK  7 active torsions:
REMARK  status: ('A' for Active; 'I' for Inactive)
REMARK    1  A    between atoms: C_2  and  C_3 
REMARK    2  A    between atoms: C_3  and  O_6 
REMARK    3  A    between atoms: C_3  and  C_4 
REMARK    4  A    between atoms: C_7  and  O_6 
REMARK    5  A    between atoms: C_9  and  C_10 
REMARK    6  A    between atoms: N_15  and  C_14 
REMARK    7  A    between atoms: N_20  and  C_19 
REMARK       I    between atoms: C_22  and  N_20 
ROOT
ATOM      1  C   LIG d   1      -4.198  91.581 117.516  0.00  0.00     0.161 C 
ATOM      2  C   LIG d   1      -4.710  91.031 116.328  0.00  0.00     0.016 C 
ATOM      3  C   LIG d   1      -5.921  91.454 115.734  0.00  0.00     0.038 C 
ATOM      4  C   LIG d   1      -6.631  92.566 116.208  0.00  0.00     0.028 C 
ATOM      5  C   LIG d   1      -6.420  92.831 117.695  0.00  0.00    -0.047 C 
ATOM      6  C   LIG d   1      -4.902  92.871 117.987  0.00  0.00     0.091 C 
ENDROOT
BRANCH   1   7
ATOM      7  O   LIG d   1      -2.781  91.805 117.380  0.00  0.00    -0.368 OA
BRANCH   7   8
ATOM      8  C   LIG d   1      -1.944  91.244 118.421  0.00  0.00     0.119 C 
BRANCH   8   9
ATOM      9  C   LIG d   1      -0.817  92.256 118.705  0.00  0.00     0.028 C 
ATOM     10  C   LIG d   1      -1.062  93.613 118.025  0.00  0.00     0.006 C 
ENDBRANCH   8   9
BRANCH   8  11
ATOM     11  C   LIG d   1      -1.236  89.973 117.942  0.00  0.00     0.028 C 
ATOM     12  C   LIG d   1      -1.991  88.690 118.323  0.00  0.00     0.006 C 
ENDBRANCH   8  11
ENDBRANCH   7   8
ENDBRANCH   1   7
BRANCH   6  13
ATOM     13  N   LIG d   1      -4.607  93.041 119.434  0.00  0.00    -0.311 N 
ATOM     14  C   LIG d   1      -4.334  94.219 119.992  0.00  0.00     0.210 C 
ATOM     15  C   LIG d   1      -4.039  94.169 121.495  0.00  0.00     0.109 C 
ATOM     16  O   LIG d   1      -4.338  95.304 119.392  0.00  0.00    -0.276 OA
ATOM     17  H   LIG d   1      -4.613  92.216 120.001  0.00  0.00     0.149 HD
ENDBRANCH   6  13
BRANCH   5  18
ATOM     18  N   LIG d   1      -7.105  94.095 118.025  0.00  0.00     0.381 N 
ATOM     19  H   LIG d   1      -7.341  94.582 117.184  0.00  0.00    -0.090 HD
ATOM     20  H   LIG d   1      -6.482  94.673 118.560  0.00  0.00    -0.090 HD
ATOM     21  H   LIG d   1      -7.930  93.908 118.551  0.00  0.00    -0.090 HD
ENDBRANCH   5  18
BRANCH   3  22
ATOM     22  C   LIG d   1      -6.454  90.735 114.675  0.00  0.00     0.382 C 
ATOM     23  O   LIG d   1      -7.145  91.318 113.806  0.00  0.00    -0.241 OA
ATOM     24  O   LIG d   1      -6.290  89.502 114.602  0.00  0.00    -0.241 OA
ENDBRANCH   3  22
TORSDOF 7
ENDMDL
MODEL 8
REMARK VINA RESULT:      -5.3     15.075     17.593
REMARK  7 active torsions:
REMARK  status: ('A' for Active; 'I' for Inactive)
REMARK    1  A    between atoms: C_2  and  C_3 
REMARK    2  A    between atoms: C_3  and  O_6 
REMARK    3  A    between atoms: C_3  and  C_4 
REMARK    4  A    between atoms: C_7  and  O_6 
REMARK    5  A    between atoms: C_9  and  C_10 
REMARK    6  A    between atoms: N_15  and  C_14 
REMARK    7  A    between atoms: N_20  and  C_19 
REMARK       I    between atoms: C_22  and  N_20 
ROOT
ATOM      1  C   LIG d   1     -16.500  65.057 114.637  0.00  0.00     0.161 C 
ATOM      2  C   LIG d   1     -16.135  66.044 113.706  0.00  0.00     0.016 C 
ATOM      3  C   LIG d   1     -15.150  67.026 113.958  0.00  0.00     0.038 C 
ATOM      4  C   LIG d   1     -14.350  66.995 115.110  0.00  0.00     0.028 C 
ATOM      5  C   LIG d   1     -15.026  66.320 116.299  0.00  0.00    -0.047 C 
ATOM      6  C   LIG d   1     -15.560  64.939 115.855  0.00  0.00     0.091 C 
ENDROOT
BRANCH   1   7
ATOM      7  O   LIG d   1     -16.624  63.783 113.975  0.00  0.00    -0.368 OA
BRANCH   7   8
ATOM      8  C   LIG d   1     -17.975  63.307 113.757  0.00  0.00     0.119 C 
BRANCH   8   9
ATOM      9  C   LIG d   1     -18.934  64.317 114.417  0.00  0.00     0.028 C 
ATOM     10  C   LIG d   1     -19.990  64.852 113.435  0.00  0.00     0.006 C 
ENDBRANCH   8   9
BRANCH   8  11
ATOM     11  C   LIG d   1     -18.223  61.981 114.481  0.00  0.00     0.028 C 
ATOM     12  C   LIG d   1     -16.922  61.298 114.935  0.00  0.00     0.006 C 
ENDBRANCH   8  11
ENDBRANCH   7   8
ENDBRANCH   1   7
BRANCH   6  13
ATOM     13  N   LIG d   1     -16.310  64.247 116.936  0.00  0.00    -0.311 N 
ATOM     14  C   LIG d   1     -15.752  63.372 117.771  0.00  0.00     0.210 C 
ATOM     15  C   LIG d   1     -16.708  62.759 118.799  0.00  0.00     0.109 C 
ATOM     16  O   LIG d   1     -14.549  63.069 117.778  0.00  0.00    -0.276 OA
ATOM     17  H   LIG d   1     -17.285  64.458 117.022  0.00  0.00     0.149 HD
ENDBRANCH   6  13
BRANCH   5  18
ATOM     18  N   LIG d   1     -14.033  66.234 117.387  0.00  0.00     0.381 N 
ATOM     19  H   LIG d   1     -13.116  66.404 117.023  0.00  0.00    -0.090 HD
ATOM     20  H   LIG d   1     -14.052  65.306 117.772  0.00  0.00    -0.090 HD
ATOM     21  H   LIG d   1     -14.245  66.900 118.096  0.00  0.00    -0.090 HD
ENDBRANCH   5  18
BRANCH   3  22
ATOM     22  C   LIG d   1     -14.985  68.078 113.070  0.00  0.00     0.382 C 
ATOM     23  O   LIG d   1     -14.366  69.109 113.428  0.00  0.00    -0.241 OA
ATOM     24  O   LIG d   1     -15.484  68.027 111.930  0.00  0.00    -0.241 OA
ENDBRANCH   3  22
TORSDOF 7
ENDMDL
MODEL 9
REMARK VINA RESULT:      -5.3     15.462     17.004
REMARK  7 active torsions:
REMARK  status: ('A' for Active; 'I' for Inactive)
REMARK    1  A    between atoms: C_2  and  C_3 
REMARK    2  A    between atoms: C_3  and  O_6 
REMARK    3  A    between atoms: C_3  and  C_4 
REMARK    4  A    between atoms: C_7  and  O_6 
REMARK    5  A    between atoms: C_9  and  C_10 
REMARK    6  A    between atoms: N_15  and  C_14 
REMARK    7  A    between atoms: N_20  and  C_19 
REMARK       I    between atoms: C_22  and  N_20 
ROOT
ATOM      1  C   LIG d   1     -14.659  65.985 116.372  0.00  0.00     0.161 C 
ATOM      2  C   LIG d   1     -14.717  66.961 115.363  0.00  0.00     0.016 C 
ATOM      3  C   LIG d   1     -15.366  66.759 114.123  0.00  0.00     0.038 C 
ATOM      4  C   LIG d   1     -16.136  65.615 113.866  0.00  0.00     0.028 C 
ATOM      5  C   LIG d   1     -15.686  64.392 114.659  0.00  0.00    -0.047 C 
ATOM      6  C   LIG d   1     -15.587  64.772 116.154  0.00  0.00     0.091 C 
ENDROOT
BRANCH   1   7
ATOM      7  O   LIG d   1     -14.920  66.592 117.654  0.00  0.00    -0.368 OA
BRANCH   7   8
ATOM      8  C   LIG d   1     -16.264  66.435 118.171  0.00  0.00     0.119 C 
BRANCH   8   9
ATOM      9  C   LIG d   1     -17.008  67.764 117.938  0.00  0.00     0.028 C 
ATOM     10  C   LIG d   1     -17.700  68.281 119.211  0.00  0.00     0.006 C 
ENDBRANCH   8   9
BRANCH   8  11
ATOM     11  C   LIG d   1     -16.257  66.235 119.689  0.00  0.00     0.028 C 
ATOM     12  C   LIG d   1     -15.104  65.338 120.167  0.00  0.00     0.006 C 
ENDBRANCH   8  11
ENDBRANCH   7   8
ENDBRANCH   1   7
BRANCH   6  13
ATOM     13  N   LIG d   1     -15.072  63.656 116.990  0.00  0.00    -0.311 N 
ATOM     14  C   LIG d   1     -15.861  62.781 117.611  0.00  0.00     0.210 C 
ATOM     15  C   LIG d   1     -15.127  61.721 118.437  0.00  0.00     0.109 C 
ATOM     16  O   LIG d   1     -17.099  62.763 117.530  0.00  0.00    -0.276 OA
ATOM     17  H   LIG d   1     -14.079  63.578 117.084  0.00  0.00     0.149 HD
ENDBRANCH   6  13
BRANCH   5  18
ATOM     18  N   LIG d   1     -16.656  63.312 114.400  0.00  0.00     0.381 N 
ATOM     19  H   LIG d   1     -16.470  62.537 115.005  0.00  0.00    -0.090 HD
ATOM     20  H   LIG d   1     -16.552  63.002 113.450  0.00  0.00    -0.090 HD
ATOM     21  H   LIG d   1     -17.584  63.643 114.550  0.00  0.00    -0.090 HD
ENDBRANCH   5  18
BRANCH   3  22
ATOM     22  C   LIG d   1     -15.215  67.693 113.109  0.00  0.00     0.382 C 
ATOM     23  O   LIG d   1     -15.524  67.393 111.930  0.00  0.00    -0.241 OA
ATOM     24  O   LIG d   1     -14.733  68.816 113.350  0.00  0.00    -0.241 OA
ENDBRANCH   3  22
TORSDOF 7
ENDMDL
