MODEL 1
REMARK VINA RESULT:      -5.4      0.000      0.000
REMARK  7 active torsions:
REMARK  status: ('A' for Active; 'I' for Inactive)
REMARK    1  A    between atoms: C_2  and  C_3 
REMARK    2  A    between atoms: C_3  and  O_6 
REMARK    3  A    between atoms: C_3  and  C_4 
REMARK    4  A    between atoms: C_7  and  O_6 
REMARK    5  A    between atoms: C_9  and  C_10 
REMARK    6  A    between atoms: N_15  and  C_14 
REMARK    7  A    between atoms: N_20  and  C_19 
REMARK       I    between atoms: C_22  and  N_20 
ROOT
ATOM      1  C   LIG d   1      -6.908  93.716 117.606  0.00  0.00     0.161 C 
ATOM      2  C   LIG d   1      -7.536  92.584 117.061  0.00  0.00     0.016 C 
ATOM      3  C   LIG d   1      -6.839  91.413 116.685  0.00  0.00     0.038 C 
ATOM      4  C   LIG d   1      -5.477  91.236 116.972  0.00  0.00     0.028 C 
ATOM      5  C   LIG d   1      -4.702  92.547 117.062  0.00  0.00    -0.047 C 
ATOM      6  C   LIG d   1      -5.440  93.500 118.029  0.00  0.00     0.091 C 
ENDROOT
BRANCH   1   7
ATOM      7  O   LIG d   1      -7.681  94.216 118.716  0.00  0.00    -0.368 OA
BRANCH   7   8
ATOM      8  C   LIG d   1      -8.756  95.129 118.383  0.00  0.00     0.119 C 
BRANCH   8   9
ATOM      9  C   LIG d   1      -8.114  96.461 117.949  0.00  0.00     0.028 C 
ATOM     10  C   LIG d   1      -7.458  97.207 119.123  0.00  0.00     0.006 C 
ENDBRANCH   8   9
BRANCH   8  11
ATOM     11  C   LIG d   1      -9.600  95.468 119.616  0.00  0.00     0.028 C 
ATOM     12  C   LIG d   1     -10.304  94.240 120.213  0.00  0.00     0.006 C 
ENDBRANCH   8  11
ENDBRANCH   7   8
ENDBRANCH   1   7
BRANCH   6  13
ATOM     13  N   LIG d   1      -4.795  94.837 118.110  0.00  0.00    -0.311 N 
ATOM     14  C   LIG d   1      -3.901  95.164 119.042  0.00  0.00     0.210 C 
ATOM     15  C   LIG d   1      -3.374  96.600 118.957  0.00  0.00     0.109 C 
ATOM     16  O   LIG d   1      -3.471  94.391 119.912  0.00  0.00    -0.276 OA
ATOM     17  H   LIG d   1      -5.062  95.515 117.424  0.00  0.00     0.149 HD
ENDBRANCH   6  13
BRANCH   5  18
ATOM     18  N   LIG d   1      -3.331  92.225 117.501  0.00  0.00     0.381 N 
ATOM     19  H   LIG d   1      -2.857  93.063 117.770  0.00  0.00    -0.090 HD
ATOM     20  H   LIG d   1      -2.832  91.813 116.732  0.00  0.00    -0.090 HD
ATOM     21  H   LIG d   1      -3.359  91.589 118.267  0.00  0.00    -0.090 HD
ENDBRANCH   5  18
BRANCH   3  22
ATOM     22  C   LIG d   1      -7.497  90.418 115.978  0.00  0.00     0.382 C 
ATOM     23  O   LIG d   1      -8.508  89.862 116.472  0.00  0.00    -0.241 OA
ATOM     24  O   LIG d   1      -7.067  90.038 114.873  0.00  0.00    -0.241 OA
ENDBRANCH   3  22
TORSDOF 7
ENDMDL
MODEL 2
REMARK VINA RESULT:      -5.3      2.399      4.462
REMARK  7 active torsions:
REMARK  status: ('A' for Active; 'I' for Inactive)
REMARK    1  A    between atoms: C_2  and  C_3 
REMARK    2  A    between atoms: C_3  and  O_6 
REMARK    3  A    between atoms: C_3  and  C_4 
REMARK    4  A    between atoms: C_7  and  O_6 
REMARK    5  A    between atoms: C_9  and  C_10 
REMARK    6  A    between atoms: N_15  and  C_14 
REMARK    7  A    between atoms: N_20  and  C_19 
REMARK       I    between atoms: C_22  and  N_20 
ROOT
ATOM      1  C   LIG d   1      -6.123  92.042 118.575  0.00  0.00     0.161 C 
ATOM      2  C   LIG d   1      -6.326  91.273 117.417  0.00  0.00     0.016 C 
ATOM      3  C   LIG d   1      -6.820  91.808 116.205  0.00  0.00     0.038 C 
ATOM      4  C   LIG d   1      -7.002  93.186 116.022  0.00  0.00     0.028 C 
ATOM      5  C   LIG d   1      -7.291  93.936 117.319  0.00  0.00    -0.047 C 
ATOM      6  C   LIG d   1      -6.211  93.568 118.362  0.00  0.00     0.091 C 
ENDROOT
BRANCH   1   7
ATOM      7  O   LIG d   1      -4.861  91.692 119.178  0.00  0.00    -0.368 OA
BRANCH   7   8
ATOM      8  C   LIG d   1      -3.681  91.938 118.375  0.00  0.00     0.119 C 
BRANCH   8   9
ATOM      9  C   LIG d   1      -2.770  90.702 118.501  0.00  0.00     0.028 C 
ATOM     10  C   LIG d   1      -3.197  89.560 117.563  0.00  0.00     0.006 C 
ENDBRANCH   8   9
BRANCH   8  11
ATOM     11  C   LIG d   1      -2.860  93.105 118.933  0.00  0.00     0.028 C 
ATOM     12  C   LIG d   1      -2.575  94.189 117.881  0.00  0.00     0.006 C 
ENDBRANCH   8  11
ENDBRANCH   7   8
ENDBRANCH   1   7
BRANCH   6  13
ATOM     13  N   LIG d   1      -6.466  94.193 119.686  0.00  0.00    -0.311 N 
ATOM     14  C   LIG d   1      -5.927  95.350 120.067  0.00  0.00     0.210 C 
ATOM     15  C   LIG d   1      -6.305  95.805 121.480  0.00  0.00     0.109 C 
ATOM     16  O   LIG d   1      -5.197  96.058 119.356  0.00  0.00    -0.276 OA
ATOM     17  H   LIG d   1      -7.071  93.701 120.314  0.00  0.00     0.149 HD
ENDBRANCH   6  13
BRANCH   5  18
ATOM     18  N   LIG d   1      -7.322  95.376 117.003  0.00  0.00     0.381 N 
ATOM     19  H   LIG d   1      -8.266  95.669 116.849  0.00  0.00    -0.090 HD
ATOM     20  H   LIG d   1      -6.800  95.536 116.159  0.00  0.00    -0.090 HD
ATOM     21  H   LIG d   1      -6.924  95.898 117.752  0.00  0.00    -0.090 HD
ENDBRANCH   5  18
BRANCH   3  22
ATOM     22  C   LIG d   1      -7.174  90.954 115.171  0.00  0.00     0.382 C 
ATOM     23  O   LIG d   1      -8.253  91.129 114.556  0.00  0.00    -0.241 OA
ATOM     24  O   LIG d   1      -6.450  89.984 114.876  0.00  0.00    -0.241 OA
ENDBRANCH   3  22
TORSDOF 7
ENDMDL
MODEL 3
REMARK VINA RESULT:      -5.3      2.462      4.586
REMARK  7 active torsions:
REMARK  status: ('A' for Active; 'I' for Inactive)
REMARK    1  A    between atoms: C_2  and  C_3 
REMARK    2  A    between atoms: C_3  and  O_6 
REMARK    3  A    between atoms: C_3  and  C_4 
REMARK    4  A    between atoms: C_7  and  O_6 
REMARK    5  A    between atoms: C_9  and  C_10 
REMARK    6  A    between atoms: N_15  and  C_14 
REMARK    7  A    between atoms: N_20  and  C_19 
REMARK       I    between atoms: C_22  and  N_20 
ROOT
ATOM      1  C   LIG d   1      -4.876  92.130 117.624  0.00  0.00     0.161 C 
ATOM      2  C   LIG d   1      -5.455  91.325 116.629  0.00  0.00     0.016 C 
ATOM      3  C   LIG d   1      -6.528  91.750 115.811  0.00  0.00     0.038 C 
ATOM      4  C   LIG d   1      -6.997  93.072 115.832  0.00  0.00     0.028 C 
ATOM      5  C   LIG d   1      -6.781  93.771 117.170  0.00  0.00    -0.047 C 
ATOM      6  C   LIG d   1      -5.301  93.613 117.585  0.00  0.00     0.091 C 
ENDROOT
BRANCH   1   7
ATOM      7  O   LIG d   1      -3.440  92.019 117.567  0.00  0.00    -0.368 OA
BRANCH   7   8
ATOM      8  C   LIG d   1      -2.816  91.270 118.640  0.00  0.00     0.119 C 
BRANCH   8   9
ATOM      9  C   LIG d   1      -2.378  89.911 118.062  0.00  0.00     0.028 C 
ATOM     10  C   LIG d   1      -2.968  88.724 118.841  0.00  0.00     0.006 C 
ENDBRANCH   8   9
BRANCH   8  11
ATOM     11  C   LIG d   1      -3.822  90.936 119.745  0.00  0.00     0.028 C 
ATOM     12  C   LIG d   1      -3.510  91.648 121.070  0.00  0.00     0.006 C 
ENDBRANCH   8  11
ENDBRANCH   7   8
ENDBRANCH   1   7
BRANCH   6  13
ATOM     13  N   LIG d   1      -5.022  94.195 118.924  0.00  0.00    -0.311 N 
ATOM     14  C   LIG d   1      -3.945  94.931 119.194  0.00  0.00     0.210 C 
ATOM     15  C   LIG d   1      -3.841  95.418 120.642  0.00  0.00     0.109 C 
ATOM     16  O   LIG d   1      -3.083  95.254 118.363  0.00  0.00    -0.276 OA
ATOM     17  H   LIG d   1      -5.686  94.009 119.650  0.00  0.00     0.149 HD
ENDBRANCH   6  13
BRANCH   5  18
ATOM     18  N   LIG d   1      -7.189  95.179 117.008  0.00  0.00     0.381 N 
ATOM     19  H   LIG d   1      -7.231  95.624 117.903  0.00  0.00    -0.090 HD
ATOM     20  H   LIG d   1      -8.106  95.207 116.599  0.00  0.00    -0.090 HD
ATOM     21  H   LIG d   1      -6.541  95.657 116.421  0.00  0.00    -0.090 HD
ENDBRANCH   5  18
BRANCH   3  22
ATOM     22  C   LIG d   1      -7.169  90.836 114.989  0.00  0.00     0.382 C 
ATOM     23  O   LIG d   1      -6.579  89.785 114.640  0.00  0.00    -0.241 OA
ATOM     24  O   LIG d   1      -8.313  91.071 114.555  0.00  0.00    -0.241 OA
ENDBRANCH   3  22
TORSDOF 7
ENDMDL
MODEL 4
REMARK VINA RESULT:      -5.1      2.084      4.550
REMARK  7 active torsions:
REMARK  status: ('A' for Active; 'I' for Inactive)
REMARK    1  A    between atoms: C_2  and  C_3 
REMARK    2  A    between atoms: C_3  and  O_6 
REMARK    3  A    between atoms: C_3  and  C_4 
REMARK    4  A    between atoms: C_7  and  O_6 
REMARK    5  A    between atoms: C_9  and  C_10 
REMARK    6  A    between atoms: N_15  and  C_14 
REMARK    7  A    between atoms: N_20  and  C_19 
REMARK       I    between atoms: C_22  and  N_20 
ROOT
ATOM      1  C   LIG d   1      -4.931  92.954 117.645  0.00  0.00     0.161 C 
ATOM      2  C   LIG d   1      -4.997  91.900 116.719  0.00  0.00     0.016 C 
ATOM      3  C   LIG d   1      -6.136  91.633 115.924  0.00  0.00     0.038 C 
ATOM      4  C   LIG d   1      -7.238  92.501 115.892  0.00  0.00     0.028 C 
ATOM      5  C   LIG d   1      -7.420  93.295 117.181  0.00  0.00    -0.047 C 
ATOM      6  C   LIG d   1      -6.081  93.977 117.544  0.00  0.00     0.091 C 
ENDROOT
BRANCH   1   7
ATOM      7  O   LIG d   1      -3.657  93.620 117.536  0.00  0.00    -0.368 OA
BRANCH   7   8
ATOM      8  C   LIG d   1      -2.743  93.433 118.645  0.00  0.00     0.119 C 
BRANCH   8   9
ATOM      9  C   LIG d   1      -1.911  94.723 118.782  0.00  0.00     0.028 C 
ATOM     10  C   LIG d   1      -2.789  95.970 118.981  0.00  0.00     0.006 C 
ENDBRANCH   8   9
BRANCH   8  11
ATOM     11  C   LIG d   1      -1.728  92.325 118.350  0.00  0.00     0.028 C 
ATOM     12  C   LIG d   1      -0.362  92.871 117.906  0.00  0.00     0.006 C 
ENDBRANCH   8  11
ENDBRANCH   7   8
ENDBRANCH   1   7
BRANCH   6  13
ATOM     13  N   LIG d   1      -6.149  94.707 118.837  0.00  0.00    -0.311 N 
ATOM     14  C   LIG d   1      -6.530  95.979 118.941  0.00  0.00     0.210 C 
ATOM     15  C   LIG d   1      -6.509  96.545 120.365  0.00  0.00     0.109 C 
ATOM     16  O   LIG d   1      -6.913  96.683 117.995  0.00  0.00    -0.276 OA
ATOM     17  H   LIG d   1      -5.885  94.202 119.660  0.00  0.00     0.149 HD
ENDBRANCH   6  13
BRANCH   5  18
ATOM     18  N   LIG d   1      -8.517  94.256 116.960  0.00  0.00     0.381 N 
ATOM     19  H   LIG d   1      -9.374  93.762 116.804  0.00  0.00    -0.090 HD
ATOM     20  H   LIG d   1      -8.313  94.800 116.141  0.00  0.00    -0.090 HD
ATOM     21  H   LIG d   1      -8.611  94.855 117.751  0.00  0.00    -0.090 HD
ENDBRANCH   5  18
BRANCH   3  22
ATOM     22  C   LIG d   1      -6.195  90.465 115.179  0.00  0.00     0.382 C 
ATOM     23  O   LIG d   1      -7.276  90.114 114.648  0.00  0.00    -0.241 OA
ATOM     24  O   LIG d   1      -5.192  89.736 115.067  0.00  0.00    -0.241 OA
ENDBRANCH   3  22
TORSDOF 7
ENDMDL
MODEL 5
REMARK VINA RESULT:      -5.0      2.810      5.534
REMARK  7 active torsions:
REMARK  status: ('A' for Active; 'I' for Inactive)
REMARK    1  A    between atoms: C_2  and  C_3 
REMARK    2  A    between atoms: C_3  and  O_6 
REMARK    3  A    between atoms: C_3  and  C_4 
REMARK    4  A    between atoms: C_7  and  O_6 
REMARK    5  A    between atoms: C_9  and  C_10 
REMARK    6  A    between atoms: N_15  and  C_14 
REMARK    7  A    between atoms: N_20  and  C_19 
REMARK       I    between atoms: C_22  and  N_20 
ROOT
ATOM      1  C   LIG d   1      -4.282  91.152 117.530  0.00  0.00     0.161 C 
ATOM      2  C   LIG d   1      -5.278  90.721 116.638  0.00  0.00     0.016 C 
ATOM      3  C   LIG d   1      -6.336  91.547 116.195  0.00  0.00     0.038 C 
ATOM      4  C   LIG d   1      -6.386  92.916 116.499  0.00  0.00     0.028 C 
ATOM      5  C   LIG d   1      -5.682  93.272 117.804  0.00  0.00    -0.047 C 
ATOM      6  C   LIG d   1      -4.257  92.673 117.785  0.00  0.00     0.091 C 
ENDROOT
BRANCH   1   7
ATOM      7  O   LIG d   1      -2.991  90.698 117.078  0.00  0.00    -0.368 OA
BRANCH   7   8
ATOM      8  C   LIG d   1      -2.568  89.398 117.558  0.00  0.00     0.119 C 
BRANCH   8   9
ATOM      9  C   LIG d   1      -3.000  89.287 119.033  0.00  0.00     0.028 C 
ATOM     10  C   LIG d   1      -2.643  87.923 119.648  0.00  0.00     0.006 C 
ENDBRANCH   8   9
BRANCH   8  11
ATOM     11  C   LIG d   1      -1.041  89.280 117.573  0.00  0.00     0.028 C 
ATOM     12  C   LIG d   1      -0.337  90.620 117.307  0.00  0.00     0.006 C 
ENDBRANCH   8  11
ENDBRANCH   7   8
ENDBRANCH   1   7
BRANCH   6  13
ATOM     13  N   LIG d   1      -3.529  92.903 119.060  0.00  0.00    -0.311 N 
ATOM     14  C   LIG d   1      -2.383  93.578 119.139  0.00  0.00     0.210 C 
ATOM     15  C   LIG d   1      -1.789  93.682 120.547  0.00  0.00     0.109 C 
ATOM     16  O   LIG d   1      -1.819  94.128 118.180  0.00  0.00    -0.276 OA
ATOM     17  H   LIG d   1      -3.932  92.519 119.892  0.00  0.00     0.149 HD
ENDBRANCH   6  13
BRANCH   5  18
ATOM     18  N   LIG d   1      -5.690  94.742 117.928  0.00  0.00     0.381 N 
ATOM     19  H   LIG d   1      -5.094  95.144 117.233  0.00  0.00    -0.090 HD
ATOM     20  H   LIG d   1      -5.334  94.994 118.833  0.00  0.00    -0.090 HD
ATOM     21  H   LIG d   1      -6.618  95.088 117.821  0.00  0.00    -0.090 HD
ENDBRANCH   5  18
BRANCH   3  22
ATOM     22  C   LIG d   1      -7.382  90.995 115.471  0.00  0.00     0.382 C 
ATOM     23  O   LIG d   1      -7.736  89.810 115.684  0.00  0.00    -0.241 OA
ATOM     24  O   LIG d   1      -7.948  91.652 114.577  0.00  0.00    -0.241 OA
ENDBRANCH   3  22
TORSDOF 7
ENDMDL
MODEL 6
REMARK VINA RESULT:      -5.0      1.692      2.731
REMARK  7 active torsions:
REMARK  status: ('A' for Active; 'I' for Inactive)
REMARK    1  A    between atoms: C_2  and  C_3 
REMARK    2  A    between atoms: C_3  and  O_6 
REMARK    3  A    between atoms: C_3  and  C_4 
REMARK    4  A    between atoms: C_7  and  O_6 
REMARK    5  A    between atoms: C_9  and  C_10 
REMARK    6  A    between atoms: N_15  and  C_14 
REMARK    7  A    between atoms: N_20  and  C_19 
REMARK       I    between atoms: C_22  and  N_20 
ROOT
ATOM      1  C   LIG d   1      -5.647  93.282 117.067  0.00  0.00     0.161 C 
ATOM      2  C   LIG d   1      -6.741  92.536 116.596  0.00  0.00     0.016 C 
ATOM      3  C   LIG d   1      -6.660  91.165 116.258  0.00  0.00     0.038 C 
ATOM      4  C   LIG d   1      -5.509  90.406 116.512  0.00  0.00     0.028 C 
ATOM      5  C   LIG d   1      -4.226  91.231 116.514  0.00  0.00    -0.047 C 
ATOM      6  C   LIG d   1      -4.412  92.443 117.455  0.00  0.00     0.091 C 
ENDROOT
BRANCH   1   7
ATOM      7  O   LIG d   1      -6.060  94.109 118.173  0.00  0.00    -0.368 OA
BRANCH   7   8
ATOM      8  C   LIG d   1      -5.725  93.619 119.495  0.00  0.00     0.119 C 
BRANCH   8   9
ATOM      9  C   LIG d   1      -7.045  93.268 120.207  0.00  0.00     0.028 C 
ATOM     10  C   LIG d   1      -8.169  94.268 119.886  0.00  0.00     0.006 C 
ENDBRANCH   8   9
BRANCH   8  11
ATOM     11  C   LIG d   1      -5.082  94.716 120.349  0.00  0.00     0.028 C 
ATOM     12  C   LIG d   1      -4.659  95.942 119.525  0.00  0.00     0.006 C 
ENDBRANCH   8  11
ENDBRANCH   7   8
ENDBRANCH   1   7
BRANCH   6  13
ATOM     13  N   LIG d   1      -3.234  93.349 117.451  0.00  0.00    -0.311 N 
ATOM     14  C   LIG d   1      -2.236  93.258 118.328  0.00  0.00     0.210 C 
ATOM     15  C   LIG d   1      -1.129  94.303 118.159  0.00  0.00     0.109 C 
ATOM     16  O   LIG d   1      -2.146  92.390 119.210  0.00  0.00    -0.276 OA
ATOM     17  H   LIG d   1      -3.210  94.063 116.750  0.00  0.00     0.149 HD
ENDBRANCH   6  13
BRANCH   5  18
ATOM     18  N   LIG d   1      -3.124  90.342 116.927  0.00  0.00     0.381 N 
ATOM     19  H   LIG d   1      -3.198  89.466 116.448  0.00  0.00    -0.090 HD
ATOM     20  H   LIG d   1      -3.199  90.169 117.914  0.00  0.00    -0.090 HD
ATOM     21  H   LIG d   1      -2.247  90.768 116.722  0.00  0.00    -0.090 HD
ENDBRANCH   5  18
BRANCH   3  22
ATOM     22  C   LIG d   1      -7.728  90.551 115.621  0.00  0.00     0.382 C 
ATOM     23  O   LIG d   1      -8.183  91.032 114.555  0.00  0.00    -0.241 OA
ATOM     24  O   LIG d   1      -8.269  89.547 116.122  0.00  0.00    -0.241 OA
ENDBRANCH   3  22
TORSDOF 7
ENDMDL
MODEL 7
REMARK VINA RESULT:      -4.9     14.668     17.574
REMARK  7 active torsions:
REMARK  status: ('A' for Active; 'I' for Inactive)
REMARK    1  A    between atoms: C_2  and  C_3 
REMARK    2  A    between atoms: C_3  and  O_6 
REMARK    3  A    between atoms: C_3  and  C_4 
REMARK    4  A    between atoms: C_7  and  O_6 
REMARK    5  A    between atoms: C_9  and  C_10 
REMARK    6  A    between atoms: N_15  and  C_14 
REMARK    7  A    between atoms: N_20  and  C_19 
REMARK       I    between atoms: C_22  and  N_20 
ROOT
ATOM      1  C   LIG d   1      -3.187  77.322 116.062  0.00  0.00     0.161 C 
ATOM      2  C   LIG d   1      -2.518  76.153 115.660  0.00  0.00     0.016 C 
ATOM      3  C   LIG d   1      -1.785  75.332 116.547  0.00  0.00     0.038 C 
ATOM      4  C   LIG d   1      -1.797  75.543 117.934  0.00  0.00     0.028 C 
ATOM      5  C   LIG d   1      -2.042  76.997 118.323  0.00  0.00    -0.047 C 
ATOM      6  C   LIG d   1      -3.303  77.507 117.589  0.00  0.00     0.091 C 
ENDROOT
BRANCH   1   7
ATOM      7  O   LIG d   1      -4.491  77.373 115.450  0.00  0.00    -0.368 OA
BRANCH   7   8
ATOM      8  C   LIG d   1      -5.469  76.430 115.952  0.00  0.00     0.119 C 
BRANCH   8   9
ATOM      9  C   LIG d   1      -5.923  75.558 114.766  0.00  0.00     0.028 C 
ATOM     10  C   LIG d   1      -5.485  74.091 114.914  0.00  0.00     0.006 C 
ENDBRANCH   8   9
BRANCH   8  11
ATOM     11  C   LIG d   1      -6.733  77.144 116.438  0.00  0.00     0.028 C 
ATOM     12  C   LIG d   1      -7.772  76.179 117.032  0.00  0.00     0.006 C 
ENDBRANCH   8  11
ENDBRANCH   7   8
ENDBRANCH   1   7
BRANCH   6  13
ATOM     13  N   LIG d   1      -3.566  78.947 117.848  0.00  0.00    -0.311 N 
ATOM     14  C   LIG d   1      -4.426  79.381 118.768  0.00  0.00     0.210 C 
ATOM     15  C   LIG d   1      -4.562  80.904 118.859  0.00  0.00     0.109 C 
ATOM     16  O   LIG d   1      -5.065  78.650 119.540  0.00  0.00    -0.276 OA
ATOM     17  H   LIG d   1      -3.067  79.610 117.288  0.00  0.00     0.149 HD
ENDBRANCH   6  13
BRANCH   5  18
ATOM     18  N   LIG d   1      -2.167  77.050 119.792  0.00  0.00     0.381 N 
ATOM     19  H   LIG d   1      -2.016  77.987 120.111  0.00  0.00    -0.090 HD
ATOM     20  H   LIG d   1      -1.462  76.461 120.199  0.00  0.00    -0.090 HD
ATOM     21  H   LIG d   1      -3.071  76.738 120.069  0.00  0.00    -0.090 HD
ENDBRANCH   5  18
BRANCH   3  22
ATOM     22  C   LIG d   1      -0.997  74.308 116.043  0.00  0.00     0.382 C 
ATOM     23  O   LIG d   1      -0.460  73.488 116.826  0.00  0.00    -0.241 OA
ATOM     24  O   LIG d   1      -0.781  74.221 114.820  0.00  0.00    -0.241 OA
ENDBRANCH   3  22
TORSDOF 7
ENDMDL
MODEL 8
REMARK VINA RESULT:      -4.9     32.711     35.426
REMARK  7 active torsions:
REMARK  status: ('A' for Active; 'I' for Inactive)
REMARK    1  A    between atoms: C_2  and  C_3 
REMARK    2  A    between atoms: C_3  and  O_6 
REMARK    3  A    between atoms: C_3  and  C_4 
REMARK    4  A    between atoms: C_7  and  O_6 
REMARK    5  A    between atoms: C_9  and  C_10 
REMARK    6  A    between atoms: N_15  and  C_14 
REMARK    7  A    between atoms: N_20  and  C_19 
REMARK       I    between atoms: C_22  and  N_20 
ROOT
ATOM      1  C   LIG d   1      -2.607  58.305 121.235  0.00  0.00     0.161 C 
ATOM      2  C   LIG d   1      -3.244  57.407 120.362  0.00  0.00     0.016 C 
ATOM      3  C   LIG d   1      -4.358  57.756 119.564  0.00  0.00     0.038 C 
ATOM      4  C   LIG d   1      -4.820  59.077 119.473  0.00  0.00     0.028 C 
ATOM      5  C   LIG d   1      -4.527  59.909 120.717  0.00  0.00    -0.047 C 
ATOM      6  C   LIG d   1      -3.027  59.780 121.065  0.00  0.00     0.091 C 
ENDROOT
BRANCH   1   7
ATOM      7  O   LIG d   1      -1.177  58.173 121.112  0.00  0.00    -0.368 OA
BRANCH   7   8
ATOM      8  C   LIG d   1      -0.672  57.925 119.776  0.00  0.00     0.119 C 
BRANCH   8   9
ATOM      9  C   LIG d   1       0.363  56.788 119.877  0.00  0.00     0.028 C 
ATOM     10  C   LIG d   1      -0.182  55.450 119.347  0.00  0.00     0.006 C 
ENDBRANCH   8   9
BRANCH   8  11
ATOM     11  C   LIG d   1       0.104  59.133 119.241  0.00  0.00     0.028 C 
ATOM     12  C   LIG d   1       1.181  58.742 118.217  0.00  0.00     0.006 C 
ENDBRANCH   8  11
ENDBRANCH   7   8
ENDBRANCH   1   7
BRANCH   6  13
ATOM     13  N   LIG d   1      -2.672  60.495 122.319  0.00  0.00    -0.311 N 
ATOM     14  C   LIG d   1      -1.658  61.353 122.411  0.00  0.00     0.210 C 
ATOM     15  C   LIG d   1      -1.453  61.966 123.800  0.00  0.00     0.109 C 
ATOM     16  O   LIG d   1      -0.928  61.691 121.466  0.00  0.00    -0.276 OA
ATOM     17  H   LIG d   1      -3.232  60.304 123.127  0.00  0.00     0.149 HD
ENDBRANCH   6  13
BRANCH   5  18
ATOM     18  N   LIG d   1      -4.937  61.297 120.432  0.00  0.00     0.381 N 
ATOM     19  H   LIG d   1      -5.191  61.384 119.468  0.00  0.00    -0.090 HD
ATOM     20  H   LIG d   1      -4.161  61.908 120.610  0.00  0.00    -0.090 HD
ATOM     21  H   LIG d   1      -5.709  61.550 121.010  0.00  0.00    -0.090 HD
ENDBRANCH   5  18
BRANCH   3  22
ATOM     22  C   LIG d   1      -5.048  56.768 118.878  0.00  0.00     0.382 C 
ATOM     23  O   LIG d   1      -6.028  56.198 119.416  0.00  0.00    -0.241 OA
ATOM     24  O   LIG d   1      -4.676  56.408 117.745  0.00  0.00    -0.241 OA
ENDBRANCH   3  22
TORSDOF 7
ENDMDL
MODEL 9
REMARK VINA RESULT:      -4.8      2.963      4.986
REMARK  7 active torsions:
REMARK  status: ('A' for Active; 'I' for Inactive)
REMARK    1  A    between atoms: C_2  and  C_3 
REMARK    2  A    between atoms: C_3  and  O_6 
REMARK    3  A    between atoms: C_3  and  C_4 
REMARK    4  A    between atoms: C_7  and  O_6 
REMARK    5  A    between atoms: C_9  and  C_10 
REMARK    6  A    between atoms: N_15  and  C_14 
REMARK    7  A    between atoms: N_20  and  C_19 
REMARK       I    between atoms: C_22  and  N_20 
ROOT
ATOM      1  C   LIG d   1      -4.328  92.277 117.400  0.00  0.00     0.161 C 
ATOM      2  C   LIG d   1      -5.556  92.896 117.112  0.00  0.00     0.016 C 
ATOM      3  C   LIG d   1      -6.497  92.370 116.198  0.00  0.00     0.038 C 
ATOM      4  C   LIG d   1      -6.340  91.101 115.620  0.00  0.00     0.028 C 
ATOM      5  C   LIG d   1      -4.882  90.670 115.493  0.00  0.00    -0.047 C 
ATOM      6  C   LIG d   1      -4.188  90.837 116.864  0.00  0.00     0.091 C 
ENDROOT
BRANCH   1   7
ATOM      7  O   LIG d   1      -4.087  92.308 118.821  0.00  0.00    -0.368 OA
BRANCH   7   8
ATOM      8  C   LIG d   1      -3.073  93.237 119.276  0.00  0.00     0.119 C 
BRANCH   8   9
ATOM      9  C   LIG d   1      -3.794  94.400 119.984  0.00  0.00     0.028 C 
ATOM     10  C   LIG d   1      -3.327  95.775 119.479  0.00  0.00     0.006 C 
ENDBRANCH   8   9
BRANCH   8  11
ATOM     11  C   LIG d   1      -2.334  93.876 118.096  0.00  0.00     0.028 C 
ATOM     12  C   LIG d   1      -0.856  93.463 118.025  0.00  0.00     0.006 C 
ENDBRANCH   8  11
ENDBRANCH   7   8
ENDBRANCH   1   7
BRANCH   6  13
ATOM     13  N   LIG d   1      -2.738  90.517 116.808  0.00  0.00    -0.311 N 
ATOM     14  C   LIG d   1      -2.157  89.609 117.590  0.00  0.00     0.210 C 
ATOM     15  C   LIG d   1      -0.647  89.449 117.383  0.00  0.00     0.109 C 
ATOM     16  O   LIG d   1      -2.753  88.899 118.413  0.00  0.00    -0.276 OA
ATOM     17  H   LIG d   1      -2.184  91.025 116.146  0.00  0.00     0.149 HD
ENDBRANCH   6  13
BRANCH   5  18
ATOM     18  N   LIG d   1      -4.870  89.278 115.005  0.00  0.00     0.381 N 
ATOM     19  H   LIG d   1      -4.617  88.660 115.750  0.00  0.00    -0.090 HD
ATOM     20  H   LIG d   1      -4.182  89.195 114.278  0.00  0.00    -0.090 HD
ATOM     21  H   LIG d   1      -5.769  89.033 114.651  0.00  0.00    -0.090 HD
ENDBRANCH   5  18
BRANCH   3  22
ATOM     22  C   LIG d   1      -7.592  93.133 115.823  0.00  0.00     0.382 C 
ATOM     23  O   LIG d   1      -7.968  93.145 114.626  0.00  0.00    -0.241 OA
ATOM     24  O   LIG d   1      -8.183  93.844 116.658  0.00  0.00    -0.241 OA
ENDBRANCH   3  22
TORSDOF 7
ENDMDL
