MODEL 1
REMARK VINA RESULT:      -5.7      0.000      0.000
REMARK  7 active torsions:
REMARK  status: ('A' for Active; 'I' for Inactive)
REMARK    1  A    between atoms: C_2  and  C_3 
REMARK    2  A    between atoms: C_3  and  O_6 
REMARK    3  A    between atoms: C_3  and  C_4 
REMARK    4  A    between atoms: C_7  and  O_6 
REMARK    5  A    between atoms: C_9  and  C_10 
REMARK    6  A    between atoms: N_15  and  C_14 
REMARK    7  A    between atoms: N_20  and  C_19 
REMARK       I    between atoms: C_22  and  N_20 
ROOT
ATOM      1  C   LIG d   1      -8.881  74.392 117.752  0.00  0.00     0.161 C 
ATOM      2  C   LIG d   1     -10.283  74.480 117.727  0.00  0.00     0.016 C 
ATOM      3  C   LIG d   1     -11.001  75.599 118.209  0.00  0.00     0.038 C 
ATOM      4  C   LIG d   1     -10.354  76.777 118.612  0.00  0.00     0.028 C 
ATOM      5  C   LIG d   1      -8.938  76.545 119.127  0.00  0.00    -0.047 C 
ATOM      6  C   LIG d   1      -8.156  75.712 118.085  0.00  0.00     0.091 C 
ENDROOT
BRANCH   1   7
ATOM      7  O   LIG d   1      -8.403  73.860 116.501  0.00  0.00    -0.368 OA
BRANCH   7   8
ATOM      8  C   LIG d   1      -7.479  72.748 116.592  0.00  0.00     0.119 C 
BRANCH   8   9
ATOM      9  C   LIG d   1      -6.209  73.136 115.810  0.00  0.00     0.028 C 
ATOM     10  C   LIG d   1      -6.422  74.375 114.924  0.00  0.00     0.006 C 
ENDBRANCH   8   9
BRANCH   8  11
ATOM     11  C   LIG d   1      -8.028  71.506 115.884  0.00  0.00     0.028 C 
ATOM     12  C   LIG d   1      -9.235  70.892 116.610  0.00  0.00     0.006 C 
ENDBRANCH   8  11
ENDBRANCH   7   8
ENDBRANCH   1   7
BRANCH   6  13
ATOM     13  N   LIG d   1      -6.786  75.369 118.548  0.00  0.00    -0.311 N 
ATOM     14  C   LIG d   1      -5.701  76.060 118.202  0.00  0.00     0.210 C 
ATOM     15  C   LIG d   1      -4.384  75.523 118.773  0.00  0.00     0.109 C 
ATOM     16  O   LIG d   1      -5.707  77.085 117.504  0.00  0.00    -0.276 OA
ATOM     17  H   LIG d   1      -6.693  74.569 119.143  0.00  0.00     0.149 HD
ENDBRANCH   6  13
BRANCH   5  18
ATOM     18  N   LIG d   1      -8.334  77.867 119.382  0.00  0.00     0.381 N 
ATOM     19  H   LIG d   1      -7.477  77.756 119.885  0.00  0.00    -0.090 HD
ATOM     20  H   LIG d   1      -8.964  78.409 119.946  0.00  0.00    -0.090 HD
ATOM     21  H   LIG d   1      -8.163  78.335 118.519  0.00  0.00    -0.090 HD
ENDBRANCH   5  18
BRANCH   3  22
ATOM     22  C   LIG d   1     -12.380  75.531 118.329  0.00  0.00     0.382 C 
ATOM     23  O   LIG d   1     -13.003  76.437 118.934  0.00  0.00    -0.241 OA
ATOM     24  O   LIG d   1     -13.006  74.553 117.877  0.00  0.00    -0.241 OA
ENDBRANCH   3  22
TORSDOF 7
ENDMDL
MODEL 2
REMARK VINA RESULT:      -5.7     13.109     15.441
REMARK  7 active torsions:
REMARK  status: ('A' for Active; 'I' for Inactive)
REMARK    1  A    between atoms: C_2  and  C_3 
REMARK    2  A    between atoms: C_3  and  O_6 
REMARK    3  A    between atoms: C_3  and  C_4 
REMARK    4  A    between atoms: C_7  and  O_6 
REMARK    5  A    between atoms: C_9  and  C_10 
REMARK    6  A    between atoms: N_15  and  C_14 
REMARK    7  A    between atoms: N_20  and  C_19 
REMARK       I    between atoms: C_22  and  N_20 
ROOT
ATOM      1  C   LIG d   1       2.080  83.632 112.680  0.00  0.00     0.161 C 
ATOM      2  C   LIG d   1       2.159  84.703 111.775  0.00  0.00     0.016 C 
ATOM      3  C   LIG d   1       2.291  86.053 112.176  0.00  0.00     0.038 C 
ATOM      4  C   LIG d   1       2.507  86.411 113.515  0.00  0.00     0.028 C 
ATOM      5  C   LIG d   1       1.930  85.409 114.510  0.00  0.00    -0.047 C 
ATOM      6  C   LIG d   1       2.425  83.992 114.140  0.00  0.00     0.091 C 
ENDROOT
BRANCH   1   7
ATOM      7  O   LIG d   1       2.909  82.545 112.223  0.00  0.00    -0.368 OA
BRANCH   7   8
ATOM      8  C   LIG d   1       2.488  81.893 111.000  0.00  0.00     0.119 C 
BRANCH   8   9
ATOM      9  C   LIG d   1       1.804  80.569 111.392  0.00  0.00     0.028 C 
ATOM     10  C   LIG d   1       0.278  80.621 111.214  0.00  0.00     0.006 C 
ENDBRANCH   8   9
BRANCH   8  11
ATOM     11  C   LIG d   1       3.690  81.490 110.141  0.00  0.00     0.028 C 
ATOM     12  C   LIG d   1       4.272  82.667 109.340  0.00  0.00     0.006 C 
ENDBRANCH   8  11
ENDBRANCH   7   8
ENDBRANCH   1   7
BRANCH   6  13
ATOM     13  N   LIG d   1       1.840  82.941 115.013  0.00  0.00    -0.311 N 
ATOM     14  C   LIG d   1       2.570  82.139 115.786  0.00  0.00     0.210 C 
ATOM     15  C   LIG d   1       1.769  81.112 116.591  0.00  0.00     0.109 C 
ATOM     16  O   LIG d   1       3.803  82.203 115.905  0.00  0.00    -0.276 OA
ATOM     17  H   LIG d   1       0.843  82.842 115.001  0.00  0.00     0.149 HD
ENDBRANCH   6  13
BRANCH   5  18
ATOM     18  N   LIG d   1       2.345  85.833 115.860  0.00  0.00     0.381 N 
ATOM     19  H   LIG d   1       3.317  85.638 115.993  0.00  0.00    -0.090 HD
ATOM     20  H   LIG d   1       1.823  85.309 116.540  0.00  0.00    -0.090 HD
ATOM     21  H   LIG d   1       2.175  86.807 115.979  0.00  0.00    -0.090 HD
ENDBRANCH   5  18
BRANCH   3  22
ATOM     22  C   LIG d   1       2.168  87.064 111.236  0.00  0.00     0.382 C 
ATOM     23  O   LIG d   1       1.832  86.789 110.059  0.00  0.00    -0.241 OA
ATOM     24  O   LIG d   1       2.433  88.243 111.538  0.00  0.00    -0.241 OA
ENDBRANCH   3  22
TORSDOF 7
ENDMDL
MODEL 3
REMARK VINA RESULT:      -5.6      0.719      1.880
REMARK  7 active torsions:
REMARK  status: ('A' for Active; 'I' for Inactive)
REMARK    1  A    between atoms: C_2  and  C_3 
REMARK    2  A    between atoms: C_3  and  O_6 
REMARK    3  A    between atoms: C_3  and  C_4 
REMARK    4  A    between atoms: C_7  and  O_6 
REMARK    5  A    between atoms: C_9  and  C_10 
REMARK    6  A    between atoms: N_15  and  C_14 
REMARK    7  A    between atoms: N_20  and  C_19 
REMARK       I    between atoms: C_22  and  N_20 
ROOT
ATOM      1  C   LIG d   1      -8.751  75.054 117.327  0.00  0.00     0.161 C 
ATOM      2  C   LIG d   1     -10.152  74.957 117.366  0.00  0.00     0.016 C 
ATOM      3  C   LIG d   1     -10.970  75.806 118.147  0.00  0.00     0.038 C 
ATOM      4  C   LIG d   1     -10.448  76.914 118.830  0.00  0.00     0.028 C 
ATOM      5  C   LIG d   1      -8.985  76.749 119.225  0.00  0.00    -0.047 C 
ATOM      6  C   LIG d   1      -8.173  76.328 117.979  0.00  0.00     0.091 C 
ENDROOT
BRANCH   1   7
ATOM      7  O   LIG d   1      -8.290  74.934 115.967  0.00  0.00    -0.368 OA
BRANCH   7   8
ATOM      8  C   LIG d   1      -7.559  73.725 115.646  0.00  0.00     0.119 C 
BRANCH   8   9
ATOM      9  C   LIG d   1      -7.690  72.772 116.849  0.00  0.00     0.028 C 
ATOM     10  C   LIG d   1      -8.239  71.392 116.448  0.00  0.00     0.006 C 
ENDBRANCH   8   9
BRANCH   8  11
ATOM     11  C   LIG d   1      -6.059  74.001 115.508  0.00  0.00     0.028 C 
ATOM     12  C   LIG d   1      -5.747  75.101 114.481  0.00  0.00     0.006 C 
ENDBRANCH   8  11
ENDBRANCH   7   8
ENDBRANCH   1   7
BRANCH   6  13
ATOM     13  N   LIG d   1      -6.745  76.063 118.295  0.00  0.00    -0.311 N 
ATOM     14  C   LIG d   1      -5.739  76.778 117.796  0.00  0.00     0.210 C 
ATOM     15  C   LIG d   1      -4.343  76.325 118.235  0.00  0.00     0.109 C 
ATOM     16  O   LIG d   1      -5.871  77.766 117.058  0.00  0.00    -0.276 OA
ATOM     17  H   LIG d   1      -6.549  75.299 118.912  0.00  0.00     0.149 HD
ENDBRANCH   6  13
BRANCH   5  18
ATOM     18  N   LIG d   1      -8.532  78.028 119.805  0.00  0.00     0.381 N 
ATOM     19  H   LIG d   1      -8.073  77.860 120.678  0.00  0.00    -0.090 HD
ATOM     20  H   LIG d   1      -9.334  78.608 119.977  0.00  0.00    -0.090 HD
ATOM     21  H   LIG d   1      -7.910  78.486 119.176  0.00  0.00    -0.090 HD
ENDBRANCH   5  18
BRANCH   3  22
ATOM     22  C   LIG d   1     -12.321  75.525 118.282  0.00  0.00     0.382 C 
ATOM     23  O   LIG d   1     -13.073  76.334 118.876  0.00  0.00    -0.241 OA
ATOM     24  O   LIG d   1     -12.788  74.451 117.856  0.00  0.00    -0.241 OA
ENDBRANCH   3  22
TORSDOF 7
ENDMDL
MODEL 4
REMARK VINA RESULT:      -5.2     13.453     16.363
REMARK  7 active torsions:
REMARK  status: ('A' for Active; 'I' for Inactive)
REMARK    1  A    between atoms: C_2  and  C_3 
REMARK    2  A    between atoms: C_3  and  O_6 
REMARK    3  A    between atoms: C_3  and  C_4 
REMARK    4  A    between atoms: C_7  and  O_6 
REMARK    5  A    between atoms: C_9  and  C_10 
REMARK    6  A    between atoms: N_15  and  C_14 
REMARK    7  A    between atoms: N_20  and  C_19 
REMARK       I    between atoms: C_22  and  N_20 
ROOT
ATOM      1  C   LIG d   1       2.723  84.712 113.161  0.00  0.00     0.161 C 
ATOM      2  C   LIG d   1       2.951  86.040 112.763  0.00  0.00     0.016 C 
ATOM      3  C   LIG d   1       3.252  87.083 113.668  0.00  0.00     0.038 C 
ATOM      4  C   LIG d   1       3.498  86.838 115.027  0.00  0.00     0.028 C 
ATOM      5  C   LIG d   1       2.785  85.599 115.557  0.00  0.00    -0.047 C 
ATOM      6  C   LIG d   1       3.096  84.404 114.626  0.00  0.00     0.091 C 
ENDROOT
BRANCH   1   7
ATOM      7  O   LIG d   1       3.408  83.810 112.270  0.00  0.00    -0.368 OA
BRANCH   7   8
ATOM      8  C   LIG d   1       2.674  83.402 111.089  0.00  0.00     0.119 C 
BRANCH   8   9
ATOM      9  C   LIG d   1       3.154  81.986 110.713  0.00  0.00     0.028 C 
ATOM     10  C   LIG d   1       4.095  81.989 109.497  0.00  0.00     0.006 C 
ENDBRANCH   8   9
BRANCH   8  11
ATOM     11  C   LIG d   1       3.023  84.281 109.884  0.00  0.00     0.028 C 
ATOM     12  C   LIG d   1       1.800  85.010 109.305  0.00  0.00     0.006 C 
ENDBRANCH   8  11
ENDBRANCH   7   8
ENDBRANCH   1   7
BRANCH   6  13
ATOM     13  N   LIG d   1       2.369  83.171 115.025  0.00  0.00    -0.311 N 
ATOM     14  C   LIG d   1       2.908  82.214 115.779  0.00  0.00     0.210 C 
ATOM     15  C   LIG d   1       1.993  81.017 116.056  0.00  0.00     0.109 C 
ATOM     16  O   LIG d   1       4.045  82.257 116.271  0.00  0.00    -0.276 OA
ATOM     17  H   LIG d   1       1.429  83.068 114.696  0.00  0.00     0.149 HD
ENDBRANCH   6  13
BRANCH   5  18
ATOM     18  N   LIG d   1       3.236  85.384 116.945  0.00  0.00     0.381 N 
ATOM     19  H   LIG d   1       3.679  84.490 117.022  0.00  0.00    -0.090 HD
ATOM     20  H   LIG d   1       2.436  85.393 117.552  0.00  0.00    -0.090 HD
ATOM     21  H   LIG d   1       3.873  86.102 117.211  0.00  0.00    -0.090 HD
ENDBRANCH   5  18
BRANCH   3  22
ATOM     22  C   LIG d   1       3.272  88.396 113.222  0.00  0.00     0.382 C 
ATOM     23  O   LIG d   1       3.632  89.316 113.995  0.00  0.00    -0.241 OA
ATOM     24  O   LIG d   1       2.893  88.677 112.069  0.00  0.00    -0.241 OA
ENDBRANCH   3  22
TORSDOF 7
ENDMDL
MODEL 5
REMARK VINA RESULT:      -5.2      2.315      4.242
REMARK  7 active torsions:
REMARK  status: ('A' for Active; 'I' for Inactive)
REMARK    1  A    between atoms: C_2  and  C_3 
REMARK    2  A    between atoms: C_3  and  O_6 
REMARK    3  A    between atoms: C_3  and  C_4 
REMARK    4  A    between atoms: C_7  and  O_6 
REMARK    5  A    between atoms: C_9  and  C_10 
REMARK    6  A    between atoms: N_15  and  C_14 
REMARK    7  A    between atoms: N_20  and  C_19 
REMARK       I    between atoms: C_22  and  N_20 
ROOT
ATOM      1  C   LIG d   1      -7.884  75.287 117.400  0.00  0.00     0.161 C 
ATOM      2  C   LIG d   1      -7.970  76.629 117.804  0.00  0.00     0.016 C 
ATOM      3  C   LIG d   1      -9.153  77.217 118.307  0.00  0.00     0.038 C 
ATOM      4  C   LIG d   1     -10.298  76.456 118.585  0.00  0.00     0.028 C 
ATOM      5  C   LIG d   1     -10.418  75.204 117.721  0.00  0.00    -0.047 C 
ATOM      6  C   LIG d   1      -9.092  74.413 117.798  0.00  0.00     0.091 C 
ENDROOT
BRANCH   1   7
ATOM      7  O   LIG d   1      -6.661  74.705 117.892  0.00  0.00    -0.368 OA
BRANCH   7   8
ATOM      8  C   LIG d   1      -5.893  73.932 116.937  0.00  0.00     0.119 C 
BRANCH   8   9
ATOM      9  C   LIG d   1      -4.401  74.181 117.233  0.00  0.00     0.028 C 
ATOM     10  C   LIG d   1      -4.082  74.115 118.735  0.00  0.00     0.006 C 
ENDBRANCH   8   9
BRANCH   8  11
ATOM     11  C   LIG d   1      -6.113  74.435 115.507  0.00  0.00     0.028 C 
ATOM     12  C   LIG d   1      -4.970  75.335 115.010  0.00  0.00     0.006 C 
ENDBRANCH   8  11
ENDBRANCH   7   8
ENDBRANCH   1   7
BRANCH   6  13
ATOM     13  N   LIG d   1      -9.093  73.217 116.916  0.00  0.00    -0.311 N 
ATOM     14  C   LIG d   1      -9.340  71.984 117.353  0.00  0.00     0.210 C 
ATOM     15  C   LIG d   1      -9.271  70.892 116.281  0.00  0.00     0.109 C 
ATOM     16  O   LIG d   1      -9.640  71.694 118.521  0.00  0.00    -0.276 OA
ATOM     17  H   LIG d   1      -8.890  73.365 115.947  0.00  0.00     0.149 HD
ENDBRANCH   6  13
BRANCH   5  18
ATOM     18  N   LIG d   1     -11.579  74.436 118.208  0.00  0.00     0.381 N 
ATOM     19  H   LIG d   1     -12.425  74.907 117.959  0.00  0.00    -0.090 HD
ATOM     20  H   LIG d   1     -11.533  74.378 119.211  0.00  0.00    -0.090 HD
ATOM     21  H   LIG d   1     -11.571  73.520 117.815  0.00  0.00    -0.090 HD
ENDBRANCH   5  18
BRANCH   3  22
ATOM     22  C   LIG d   1      -9.211  78.588 118.502  0.00  0.00     0.382 C 
ATOM     23  O   LIG d   1      -8.151  79.258 118.563  0.00  0.00    -0.241 OA
ATOM     24  O   LIG d   1     -10.307  79.158 118.661  0.00  0.00    -0.241 OA
ENDBRANCH   3  22
TORSDOF 7
ENDMDL
MODEL 6
REMARK VINA RESULT:      -5.0      3.295      6.456
REMARK  7 active torsions:
REMARK  status: ('A' for Active; 'I' for Inactive)
REMARK    1  A    between atoms: C_2  and  C_3 
REMARK    2  A    between atoms: C_3  and  O_6 
REMARK    3  A    between atoms: C_3  and  C_4 
REMARK    4  A    between atoms: C_7  and  O_6 
REMARK    5  A    between atoms: C_9  and  C_10 
REMARK    6  A    between atoms: N_15  and  C_14 
REMARK    7  A    between atoms: N_20  and  C_19 
REMARK       I    between atoms: C_22  and  N_20 
ROOT
ATOM      1  C   LIG d   1      -4.717  73.604 116.581  0.00  0.00     0.161 C 
ATOM      2  C   LIG d   1      -3.894  74.644 116.119  0.00  0.00     0.016 C 
ATOM      3  C   LIG d   1      -4.388  75.790 115.455  0.00  0.00     0.038 C 
ATOM      4  C   LIG d   1      -5.762  76.048 115.343  0.00  0.00     0.028 C 
ATOM      5  C   LIG d   1      -6.617  74.785 115.347  0.00  0.00    -0.047 C 
ATOM      6  C   LIG d   1      -6.227  73.919 116.567  0.00  0.00     0.091 C 
ENDROOT
BRANCH   1   7
ATOM      7  O   LIG d   1      -4.301  73.202 117.902  0.00  0.00    -0.368 OA
BRANCH   7   8
ATOM      8  C   LIG d   1      -3.435  74.126 118.606  0.00  0.00     0.119 C 
BRANCH   8   9
ATOM      9  C   LIG d   1      -2.276  73.308 119.206  0.00  0.00     0.028 C 
ATOM     10  C   LIG d   1      -0.930  73.608 118.524  0.00  0.00     0.006 C 
ENDBRANCH   8   9
BRANCH   8  11
ATOM     11  C   LIG d   1      -4.149  74.757 119.805  0.00  0.00     0.028 C 
ATOM     12  C   LIG d   1      -4.977  75.994 119.422  0.00  0.00     0.006 C 
ENDBRANCH   8  11
ENDBRANCH   7   8
ENDBRANCH   1   7
BRANCH   6  13
ATOM     13  N   LIG d   1      -6.957  72.625 116.600  0.00  0.00    -0.311 N 
ATOM     14  C   LIG d   1      -8.157  72.474 117.157  0.00  0.00     0.210 C 
ATOM     15  C   LIG d   1      -8.723  71.052 117.100  0.00  0.00     0.109 C 
ATOM     16  O   LIG d   1      -8.821  73.390 117.666  0.00  0.00    -0.276 OA
ATOM     17  H   LIG d   1      -6.505  71.835 116.182  0.00  0.00     0.149 HD
ENDBRANCH   6  13
BRANCH   5  18
ATOM     18  N   LIG d   1      -8.031  75.204 115.364  0.00  0.00     0.381 N 
ATOM     19  H   LIG d   1      -8.595  74.477 115.756  0.00  0.00    -0.090 HD
ATOM     20  H   LIG d   1      -8.334  75.364 114.419  0.00  0.00    -0.090 HD
ATOM     21  H   LIG d   1      -8.133  76.039 115.898  0.00  0.00    -0.090 HD
ENDBRANCH   5  18
BRANCH   3  22
ATOM     22  C   LIG d   1      -3.501  76.675 114.860  0.00  0.00     0.382 C 
ATOM     23  O   LIG d   1      -3.578  76.907 113.629  0.00  0.00    -0.241 OA
ATOM     24  O   LIG d   1      -2.597  77.210 115.530  0.00  0.00    -0.241 OA
ENDBRANCH   3  22
TORSDOF 7
ENDMDL
MODEL 7
REMARK VINA RESULT:      -5.0      2.258      4.729
REMARK  7 active torsions:
REMARK  status: ('A' for Active; 'I' for Inactive)
REMARK    1  A    between atoms: C_2  and  C_3 
REMARK    2  A    between atoms: C_3  and  O_6 
REMARK    3  A    between atoms: C_3  and  C_4 
REMARK    4  A    between atoms: C_7  and  O_6 
REMARK    5  A    between atoms: C_9  and  C_10 
REMARK    6  A    between atoms: N_15  and  C_14 
REMARK    7  A    between atoms: N_20  and  C_19 
REMARK       I    between atoms: C_22  and  N_20 
ROOT
ATOM      1  C   LIG d   1      -7.439  74.667 117.087  0.00  0.00     0.161 C 
ATOM      2  C   LIG d   1      -7.509  73.377 116.534  0.00  0.00     0.016 C 
ATOM      3  C   LIG d   1      -8.638  72.536 116.664  0.00  0.00     0.038 C 
ATOM      4  C   LIG d   1      -9.839  72.988 117.231  0.00  0.00     0.028 C 
ATOM      5  C   LIG d   1      -9.644  74.107 118.249  0.00  0.00    -0.047 C 
ATOM      6  C   LIG d   1      -8.780  75.219 117.613  0.00  0.00     0.091 C 
ENDROOT
BRANCH   1   7
ATOM      7  O   LIG d   1      -6.862  75.578 116.130  0.00  0.00    -0.368 OA
BRANCH   7   8
ATOM      8  C   LIG d   1      -5.516  76.032 116.413  0.00  0.00     0.119 C 
BRANCH   8   9
ATOM      9  C   LIG d   1      -5.599  77.524 116.788  0.00  0.00     0.028 C 
ATOM     10  C   LIG d   1      -5.157  77.792 118.236  0.00  0.00     0.006 C 
ENDBRANCH   8   9
BRANCH   8  11
ATOM     11  C   LIG d   1      -4.635  75.976 115.162  0.00  0.00     0.028 C 
ATOM     12  C   LIG d   1      -3.141  76.158 115.477  0.00  0.00     0.006 C 
ENDBRANCH   8  11
ENDBRANCH   7   8
ENDBRANCH   1   7
BRANCH   6  13
ATOM     13  N   LIG d   1      -8.471  76.314 118.570  0.00  0.00    -0.311 N 
ATOM     14  C   LIG d   1      -9.286  77.344 118.793  0.00  0.00     0.210 C 
ATOM     15  C   LIG d   1      -8.767  78.371 119.804  0.00  0.00     0.109 C 
ATOM     16  O   LIG d   1     -10.403  77.488 118.274  0.00  0.00    -0.276 OA
ATOM     17  H   LIG d   1      -7.599  76.260 119.058  0.00  0.00     0.149 HD
ENDBRANCH   6  13
BRANCH   5  18
ATOM     18  N   LIG d   1     -10.982  74.576 118.657  0.00  0.00     0.381 N 
ATOM     19  H   LIG d   1     -11.322  74.016 119.413  0.00  0.00    -0.090 HD
ATOM     20  H   LIG d   1     -11.613  74.474 117.881  0.00  0.00    -0.090 HD
ATOM     21  H   LIG d   1     -10.938  75.532 118.935  0.00  0.00    -0.090 HD
ENDBRANCH   5  18
BRANCH   3  22
ATOM     22  C   LIG d   1      -8.558  71.212 116.259  0.00  0.00     0.382 C 
ATOM     23  O   LIG d   1      -7.569  70.818 115.595  0.00  0.00    -0.241 OA
ATOM     24  O   LIG d   1      -9.484  70.418 116.511  0.00  0.00    -0.241 OA
ENDBRANCH   3  22
TORSDOF 7
ENDMDL
MODEL 8
REMARK VINA RESULT:      -4.9      2.950      5.979
REMARK  7 active torsions:
REMARK  status: ('A' for Active; 'I' for Inactive)
REMARK    1  A    between atoms: C_2  and  C_3 
REMARK    2  A    between atoms: C_3  and  O_6 
REMARK    3  A    between atoms: C_3  and  C_4 
REMARK    4  A    between atoms: C_7  and  O_6 
REMARK    5  A    between atoms: C_9  and  C_10 
REMARK    6  A    between atoms: N_15  and  C_14 
REMARK    7  A    between atoms: N_20  and  C_19 
REMARK       I    between atoms: C_22  and  N_20 
ROOT
ATOM      1  C   LIG d   1      -5.873  74.273 117.036  0.00  0.00     0.161 C 
ATOM      2  C   LIG d   1      -4.887  73.634 117.806  0.00  0.00     0.016 C 
ATOM      3  C   LIG d   1      -3.562  74.113 117.925  0.00  0.00     0.038 C 
ATOM      4  C   LIG d   1      -3.171  75.354 117.400  0.00  0.00     0.028 C 
ATOM      5  C   LIG d   1      -3.995  75.786 116.192  0.00  0.00    -0.047 C 
ATOM      6  C   LIG d   1      -5.496  75.687 116.547  0.00  0.00     0.091 C 
ENDROOT
BRANCH   1   7
ATOM      7  O   LIG d   1      -7.115  74.310 117.766  0.00  0.00    -0.368 OA
BRANCH   7   8
ATOM      8  C   LIG d   1      -8.168  73.443 117.277  0.00  0.00     0.119 C 
BRANCH   8   9
ATOM      9  C   LIG d   1      -7.570  72.579 116.150  0.00  0.00     0.028 C 
ATOM     10  C   LIG d   1      -8.108  71.138 116.167  0.00  0.00     0.006 C 
ENDBRANCH   8   9
BRANCH   8  11
ATOM     11  C   LIG d   1      -9.291  74.249 116.617  0.00  0.00     0.028 C 
ATOM     12  C   LIG d   1     -10.671  73.958 117.229  0.00  0.00     0.006 C 
ENDBRANCH   8  11
ENDBRANCH   7   8
ENDBRANCH   1   7
BRANCH   6  13
ATOM     13  N   LIG d   1      -6.374  76.012 115.392  0.00  0.00    -0.311 N 
ATOM     14  C   LIG d   1      -6.320  75.370 114.227  0.00  0.00     0.210 C 
ATOM     15  C   LIG d   1      -7.300  75.877 113.164  0.00  0.00     0.109 C 
ATOM     16  O   LIG d   1      -5.578  74.407 113.984  0.00  0.00    -0.276 OA
ATOM     17  H   LIG d   1      -7.028  76.760 115.513  0.00  0.00     0.149 HD
ENDBRANCH   6  13
BRANCH   5  18
ATOM     18  N   LIG d   1      -3.575  77.154 115.833  0.00  0.00     0.381 N 
ATOM     19  H   LIG d   1      -2.617  77.292 116.089  0.00  0.00    -0.090 HD
ATOM     20  H   LIG d   1      -4.136  77.811 116.345  0.00  0.00    -0.090 HD
ATOM     21  H   LIG d   1      -3.689  77.300 114.854  0.00  0.00    -0.090 HD
ENDBRANCH   5  18
BRANCH   3  22
ATOM     22  C   LIG d   1      -2.600  73.327 118.542  0.00  0.00     0.382 C 
ATOM     23  O   LIG d   1      -1.419  73.334 118.120  0.00  0.00    -0.241 OA
ATOM     24  O   LIG d   1      -2.909  72.577 119.488  0.00  0.00    -0.241 OA
ENDBRANCH   3  22
TORSDOF 7
ENDMDL
MODEL 9
REMARK VINA RESULT:      -4.7     15.266     17.658
REMARK  7 active torsions:
REMARK  status: ('A' for Active; 'I' for Inactive)
REMARK    1  A    between atoms: C_2  and  C_3 
REMARK    2  A    between atoms: C_3  and  O_6 
REMARK    3  A    between atoms: C_3  and  C_4 
REMARK    4  A    between atoms: C_7  and  O_6 
REMARK    5  A    between atoms: C_9  and  C_10 
REMARK    6  A    between atoms: N_15  and  C_14 
REMARK    7  A    between atoms: N_20  and  C_19 
REMARK       I    between atoms: C_22  and  N_20 
ROOT
ATOM      1  C   LIG d   1       2.548  87.092 114.385  0.00  0.00     0.161 C 
ATOM      2  C   LIG d   1       2.516  87.838 115.575  0.00  0.00     0.016 C 
ATOM      3  C   LIG d   1       3.363  88.942 115.825  0.00  0.00     0.038 C 
ATOM      4  C   LIG d   1       4.202  89.472 114.833  0.00  0.00     0.028 C 
ATOM      5  C   LIG d   1       4.633  88.445 113.792  0.00  0.00    -0.047 C 
ATOM      6  C   LIG d   1       3.378  87.724 113.248  0.00  0.00     0.091 C 
ENDROOT
BRANCH   1   7
ATOM      7  O   LIG d   1       1.204  86.829 113.937  0.00  0.00    -0.368 OA
BRANCH   7   8
ATOM      8  C   LIG d   1       0.773  85.447 113.989  0.00  0.00     0.119 C 
BRANCH   8   9
ATOM      9  C   LIG d   1       1.968  84.609 114.484  0.00  0.00     0.028 C 
ATOM     10  C   LIG d   1       2.251  83.398 113.579  0.00  0.00     0.006 C 
ENDBRANCH   8   9
BRANCH   8  11
ATOM     11  C   LIG d   1       0.453  84.910 112.591  0.00  0.00     0.028 C 
ATOM     12  C   LIG d   1      -0.685  85.680 111.903  0.00  0.00     0.006 C 
ENDBRANCH   8  11
ENDBRANCH   7   8
ENDBRANCH   1   7
BRANCH   6  13
ATOM     13  N   LIG d   1       3.718  86.644 112.285  0.00  0.00    -0.311 N 
ATOM     14  C   LIG d   1       3.098  86.482 111.117  0.00  0.00     0.210 C 
ATOM     15  C   LIG d   1       3.590  85.294 110.284  0.00  0.00     0.109 C 
ATOM     16  O   LIG d   1       2.211  87.229 110.678  0.00  0.00    -0.276 OA
ATOM     17  H   LIG d   1       4.448  86.012 112.548  0.00  0.00     0.149 HD
ENDBRANCH   6  13
BRANCH   5  18
ATOM     18  N   LIG d   1       5.387  89.161 112.746  0.00  0.00     0.381 N 
ATOM     19  H   LIG d   1       4.871  89.963 112.445  0.00  0.00    -0.090 HD
ATOM     20  H   LIG d   1       5.509  88.550 111.957  0.00  0.00    -0.090 HD
ATOM     21  H   LIG d   1       6.276  89.441 113.098  0.00  0.00    -0.090 HD
ENDBRANCH   5  18
BRANCH   3  22
ATOM     22  C   LIG d   1       3.406  89.503 117.092  0.00  0.00     0.382 C 
ATOM     23  O   LIG d   1       2.644  89.075 117.993  0.00  0.00    -0.241 OA
ATOM     24  O   LIG d   1       4.164  90.461 117.334  0.00  0.00    -0.241 OA
ENDBRANCH   3  22
TORSDOF 7
ENDMDL
