MODEL 1
REMARK VINA RESULT:      -5.9      0.000      0.000
REMARK  7 active torsions:
REMARK  status: ('A' for Active; 'I' for Inactive)
REMARK    1  A    between atoms: C_2  and  C_3 
REMARK    2  A    between atoms: C_3  and  O_6 
REMARK    3  A    between atoms: C_3  and  C_4 
REMARK    4  A    between atoms: C_7  and  O_6 
REMARK    5  A    between atoms: C_9  and  C_10 
REMARK    6  A    between atoms: N_15  and  C_14 
REMARK    7  A    between atoms: N_20  and  C_19 
REMARK       I    between atoms: C_22  and  N_20 
ROOT
ATOM      1  C   LIG d   1      -7.488  75.881 117.830  0.00  0.00     0.161 C 
ATOM      2  C   LIG d   1      -8.606  76.700 118.062  0.00  0.00     0.016 C 
ATOM      3  C   LIG d   1      -8.538  78.111 118.122  0.00  0.00     0.038 C 
ATOM      4  C   LIG d   1      -7.366  78.811 117.802  0.00  0.00     0.028 C 
ATOM      5  C   LIG d   1      -6.093  78.010 118.057  0.00  0.00    -0.047 C 
ATOM      6  C   LIG d   1      -6.222  76.632 117.369  0.00  0.00     0.091 C 
ENDROOT
BRANCH   1   7
ATOM      7  O   LIG d   1      -7.828  74.845 116.888  0.00  0.00    -0.368 OA
BRANCH   7   8
ATOM      8  C   LIG d   1      -8.225  73.573 117.455  0.00  0.00     0.119 C 
BRANCH   8   9
ATOM      9  C   LIG d   1      -7.089  72.569 117.180  0.00  0.00     0.028 C 
ATOM     10  C   LIG d   1      -7.589  71.115 117.139  0.00  0.00     0.006 C 
ENDBRANCH   8   9
BRANCH   8  11
ATOM     11  C   LIG d   1      -9.453  73.002 116.739  0.00  0.00     0.028 C 
ATOM     12  C   LIG d   1     -10.446  74.090 116.300  0.00  0.00     0.006 C 
ENDBRANCH   8  11
ENDBRANCH   7   8
ENDBRANCH   1   7
BRANCH   6  13
ATOM     13  N   LIG d   1      -5.054  75.753 117.639  0.00  0.00    -0.311 N 
ATOM     14  C   LIG d   1      -4.439  75.041 116.696  0.00  0.00     0.210 C 
ATOM     15  C   LIG d   1      -3.269  74.185 117.192  0.00  0.00     0.109 C 
ATOM     16  O   LIG d   1      -4.730  75.062 115.491  0.00  0.00    -0.276 OA
ATOM     17  H   LIG d   1      -4.732  75.701 118.585  0.00  0.00     0.149 HD
ENDBRANCH   6  13
BRANCH   5  18
ATOM     18  N   LIG d   1      -4.958  78.805 117.552  0.00  0.00     0.381 N 
ATOM     19  H   LIG d   1      -4.283  78.931 118.279  0.00  0.00    -0.090 HD
ATOM     20  H   LIG d   1      -5.293  79.711 117.273  0.00  0.00    -0.090 HD
ATOM     21  H   LIG d   1      -4.538  78.345 116.775  0.00  0.00    -0.090 HD
ENDBRANCH   5  18
BRANCH   3  22
ATOM     22  C   LIG d   1      -9.643  78.835 118.545  0.00  0.00     0.382 C 
ATOM     23  O   LIG d   1     -10.088  79.770 117.836  0.00  0.00    -0.241 OA
ATOM     24  O   LIG d   1     -10.173  78.593 119.646  0.00  0.00    -0.241 OA
ENDBRANCH   3  22
TORSDOF 7
ENDMDL
MODEL 2
REMARK VINA RESULT:      -5.8     10.401     12.709
REMARK  7 active torsions:
REMARK  status: ('A' for Active; 'I' for Inactive)
REMARK    1  A    between atoms: C_2  and  C_3 
REMARK    2  A    between atoms: C_3  and  O_6 
REMARK    3  A    between atoms: C_3  and  C_4 
REMARK    4  A    between atoms: C_7  and  O_6 
REMARK    5  A    between atoms: C_9  and  C_10 
REMARK    6  A    between atoms: N_15  and  C_14 
REMARK    7  A    between atoms: N_20  and  C_19 
REMARK       I    between atoms: C_22  and  N_20 
ROOT
ATOM      1  C   LIG d   1       0.292  82.440 111.537  0.00  0.00     0.161 C 
ATOM      2  C   LIG d   1      -0.921  82.000 112.091  0.00  0.00     0.016 C 
ATOM      3  C   LIG d   1      -1.362  80.658 112.034  0.00  0.00     0.038 C 
ATOM      4  C   LIG d   1      -0.543  79.629 111.547  0.00  0.00     0.028 C 
ATOM      5  C   LIG d   1       0.480  80.103 110.520  0.00  0.00    -0.047 C 
ATOM      6  C   LIG d   1       1.250  81.311 111.100  0.00  0.00     0.091 C 
ENDROOT
BRANCH   1   7
ATOM      7  O   LIG d   1       0.955  83.331 112.456  0.00  0.00    -0.368 OA
BRANCH   7   8
ATOM      8  C   LIG d   1       1.069  84.712 112.033  0.00  0.00     0.119 C 
BRANCH   8   9
ATOM      9  C   LIG d   1       2.048  85.411 112.996  0.00  0.00     0.028 C 
ATOM     10  C   LIG d   1       3.411  85.697 112.344  0.00  0.00     0.006 C 
ENDBRANCH   8   9
BRANCH   8  11
ATOM     11  C   LIG d   1      -0.260  85.456 112.194  0.00  0.00     0.028 C 
ATOM     12  C   LIG d   1      -0.554  86.410 111.026  0.00  0.00     0.006 C 
ENDBRANCH   8  11
ENDBRANCH   7   8
ENDBRANCH   1   7
BRANCH   6  13
ATOM     13  N   LIG d   1       2.212  81.890 110.126  0.00  0.00    -0.311 N 
ATOM     14  C   LIG d   1       3.440  82.286 110.457  0.00  0.00     0.210 C 
ATOM     15  C   LIG d   1       4.263  82.873 109.305  0.00  0.00     0.109 C 
ATOM     16  O   LIG d   1       3.938  82.179 111.588  0.00  0.00    -0.276 OA
ATOM     17  H   LIG d   1       1.902  81.985 109.179  0.00  0.00     0.149 HD
ENDBRANCH   6  13
BRANCH   5  18
ATOM     18  N   LIG d   1       1.354  78.959 110.201  0.00  0.00     0.381 N 
ATOM     19  H   LIG d   1       1.445  78.368 111.003  0.00  0.00    -0.090 HD
ATOM     20  H   LIG d   1       2.266  79.304 109.959  0.00  0.00    -0.090 HD
ATOM     21  H   LIG d   1       0.974  78.441 109.439  0.00  0.00    -0.090 HD
ENDBRANCH   5  18
BRANCH   3  22
ATOM     22  C   LIG d   1      -2.653  80.341 112.431  0.00  0.00     0.382 C 
ATOM     23  O   LIG d   1      -3.459  81.255 112.729  0.00  0.00    -0.241 OA
ATOM     24  O   LIG d   1      -3.007  79.152 112.537  0.00  0.00    -0.241 OA
ENDBRANCH   3  22
TORSDOF 7
ENDMDL
MODEL 3
REMARK VINA RESULT:      -5.7     12.001     14.266
REMARK  7 active torsions:
REMARK  status: ('A' for Active; 'I' for Inactive)
REMARK    1  A    between atoms: C_2  and  C_3 
REMARK    2  A    between atoms: C_3  and  O_6 
REMARK    3  A    between atoms: C_3  and  C_4 
REMARK    4  A    between atoms: C_7  and  O_6 
REMARK    5  A    between atoms: C_9  and  C_10 
REMARK    6  A    between atoms: N_15  and  C_14 
REMARK    7  A    between atoms: N_20  and  C_19 
REMARK       I    between atoms: C_22  and  N_20 
ROOT
ATOM      1  C   LIG d   1       2.489  83.725 113.417  0.00  0.00     0.161 C 
ATOM      2  C   LIG d   1       1.487  83.192 112.588  0.00  0.00     0.016 C 
ATOM      3  C   LIG d   1       0.191  83.745 112.480  0.00  0.00     0.038 C 
ATOM      4  C   LIG d   1      -0.147  84.966 113.083  0.00  0.00     0.028 C 
ATOM      5  C   LIG d   1       0.673  85.273 114.331  0.00  0.00    -0.047 C 
ATOM      6  C   LIG d   1       2.174  85.120 113.996  0.00  0.00     0.091 C 
ENDROOT
BRANCH   1   7
ATOM      7  O   LIG d   1       3.746  83.747 112.711  0.00  0.00    -0.368 OA
BRANCH   7   8
ATOM      8  C   LIG d   1       3.667  83.906 111.273  0.00  0.00     0.119 C 
BRANCH   8   9
ATOM      9  C   LIG d   1       4.847  83.129 110.657  0.00  0.00     0.028 C 
ATOM     10  C   LIG d   1       4.486  82.490 109.305  0.00  0.00     0.006 C 
ENDBRANCH   8   9
BRANCH   8  11
ATOM     11  C   LIG d   1       3.882  85.365 110.861  0.00  0.00     0.028 C 
ATOM     12  C   LIG d   1       2.563  86.117 110.621  0.00  0.00     0.006 C 
ENDBRANCH   8  11
ENDBRANCH   7   8
ENDBRANCH   1   7
BRANCH   6  13
ATOM     13  N   LIG d   1       3.044  85.320 115.184  0.00  0.00    -0.311 N 
ATOM     14  C   LIG d   1       4.002  86.243 115.244  0.00  0.00     0.210 C 
ATOM     15  C   LIG d   1       4.796  86.267 116.555  0.00  0.00     0.109 C 
ATOM     16  O   LIG d   1       4.249  87.066 114.350  0.00  0.00    -0.276 OA
ATOM     17  H   LIG d   1       2.891  84.716 115.968  0.00  0.00     0.149 HD
ENDBRANCH   6  13
BRANCH   5  18
ATOM     18  N   LIG d   1       0.316  86.633 114.777  0.00  0.00     0.381 N 
ATOM     19  H   LIG d   1      -0.678  86.713 114.854  0.00  0.00    -0.090 HD
ATOM     20  H   LIG d   1       0.633  87.294 114.090  0.00  0.00    -0.090 HD
ATOM     21  H   LIG d   1       0.741  86.826 115.656  0.00  0.00    -0.090 HD
ENDBRANCH   5  18
BRANCH   3  22
ATOM     22  C   LIG d   1      -0.797  83.054 111.795  0.00  0.00     0.382 C 
ATOM     23  O   LIG d   1      -1.185  81.936 112.212  0.00  0.00    -0.241 OA
ATOM     24  O   LIG d   1      -1.273  83.513 110.739  0.00  0.00    -0.241 OA
ENDBRANCH   3  22
TORSDOF 7
ENDMDL
MODEL 4
REMARK VINA RESULT:      -5.6     12.728     14.545
REMARK  7 active torsions:
REMARK  status: ('A' for Active; 'I' for Inactive)
REMARK    1  A    between atoms: C_2  and  C_3 
REMARK    2  A    between atoms: C_3  and  O_6 
REMARK    3  A    between atoms: C_3  and  C_4 
REMARK    4  A    between atoms: C_7  and  O_6 
REMARK    5  A    between atoms: C_9  and  C_10 
REMARK    6  A    between atoms: N_15  and  C_14 
REMARK    7  A    between atoms: N_20  and  C_19 
REMARK       I    between atoms: C_22  and  N_20 
ROOT
ATOM      1  C   LIG d   1       2.213  85.365 111.465  0.00  0.00     0.161 C 
ATOM      2  C   LIG d   1       1.078  86.054 111.922  0.00  0.00     0.016 C 
ATOM      3  C   LIG d   1      -0.236  85.542 111.821  0.00  0.00     0.038 C 
ATOM      4  C   LIG d   1      -0.490  84.232 111.390  0.00  0.00     0.028 C 
ATOM      5  C   LIG d   1       0.577  83.687 110.448  0.00  0.00    -0.047 C 
ATOM      6  C   LIG d   1       1.967  83.888 111.093  0.00  0.00     0.091 C 
ENDROOT
BRANCH   1   7
ATOM      7  O   LIG d   1       3.271  85.468 112.438  0.00  0.00    -0.368 OA
BRANCH   7   8
ATOM      8  C   LIG d   1       2.920  86.090 113.699  0.00  0.00     0.119 C 
BRANCH   8   9
ATOM      9  C   LIG d   1       3.988  87.160 114.000  0.00  0.00     0.028 C 
ATOM     10  C   LIG d   1       4.353  87.991 112.758  0.00  0.00     0.006 C 
ENDBRANCH   8   9
BRANCH   8  11
ATOM     11  C   LIG d   1       3.008  85.092 114.857  0.00  0.00     0.028 C 
ATOM     12  C   LIG d   1       4.041  83.981 114.609  0.00  0.00     0.006 C 
ENDBRANCH   8  11
ENDBRANCH   7   8
ENDBRANCH   1   7
BRANCH   6  13
ATOM     13  N   LIG d   1       3.075  83.459 110.201  0.00  0.00    -0.311 N 
ATOM     14  C   LIG d   1       3.696  82.286 110.315  0.00  0.00     0.210 C 
ATOM     15  C   LIG d   1       4.824  82.050 109.305  0.00  0.00     0.109 C 
ATOM     16  O   LIG d   1       3.398  81.405 111.135  0.00  0.00    -0.276 OA
ATOM     17  H   LIG d   1       3.360  84.100 109.486  0.00  0.00     0.149 HD
ENDBRANCH   6  13
BRANCH   5  18
ATOM     18  N   LIG d   1       0.261  82.270 110.187  0.00  0.00     0.381 N 
ATOM     19  H   LIG d   1      -0.082  82.165 109.253  0.00  0.00    -0.090 HD
ATOM     20  H   LIG d   1      -0.460  81.976 110.822  0.00  0.00    -0.090 HD
ATOM     21  H   LIG d   1       1.075  81.709 110.314  0.00  0.00    -0.090 HD
ENDBRANCH   5  18
BRANCH   3  22
ATOM     22  C   LIG d   1      -1.317  86.359 112.117  0.00  0.00     0.382 C 
ATOM     23  O   LIG d   1      -1.786  87.121 111.237  0.00  0.00    -0.241 OA
ATOM     24  O   LIG d   1      -1.801  86.377 113.264  0.00  0.00    -0.241 OA
ENDBRANCH   3  22
TORSDOF 7
ENDMDL
MODEL 5
REMARK VINA RESULT:      -5.5      2.950      5.593
REMARK  7 active torsions:
REMARK  status: ('A' for Active; 'I' for Inactive)
REMARK    1  A    between atoms: C_2  and  C_3 
REMARK    2  A    between atoms: C_3  and  O_6 
REMARK    3  A    between atoms: C_3  and  C_4 
REMARK    4  A    between atoms: C_7  and  O_6 
REMARK    5  A    between atoms: C_9  and  C_10 
REMARK    6  A    between atoms: N_15  and  C_14 
REMARK    7  A    between atoms: N_20  and  C_19 
REMARK       I    between atoms: C_22  and  N_20 
ROOT
ATOM      1  C   LIG d   1      -5.401  74.195 117.117  0.00  0.00     0.161 C 
ATOM      2  C   LIG d   1      -6.039  72.945 117.171  0.00  0.00     0.016 C 
ATOM      3  C   LIG d   1      -7.444  72.788 117.168  0.00  0.00     0.038 C 
ATOM      4  C   LIG d   1      -8.311  73.870 116.958  0.00  0.00     0.028 C 
ATOM      5  C   LIG d   1      -7.729  75.208 117.404  0.00  0.00    -0.047 C 
ATOM      6  C   LIG d   1      -6.328  75.380 116.775  0.00  0.00     0.091 C 
ENDROOT
BRANCH   1   7
ATOM      7  O   LIG d   1      -4.296  74.140 116.193  0.00  0.00    -0.368 OA
BRANCH   7   8
ATOM      8  C   LIG d   1      -2.991  73.894 116.773  0.00  0.00     0.119 C 
BRANCH   8   9
ATOM      9  C   LIG d   1      -2.967  74.566 118.160  0.00  0.00     0.028 C 
ATOM     10  C   LIG d   1      -2.012  75.770 118.213  0.00  0.00     0.006 C 
ENDBRANCH   8   9
BRANCH   8  11
ATOM     11  C   LIG d   1      -1.885  74.584 115.970  0.00  0.00     0.028 C 
ATOM     12  C   LIG d   1      -0.811  73.604 115.471  0.00  0.00     0.006 C 
ENDBRANCH   8  11
ENDBRANCH   7   8
ENDBRANCH   1   7
BRANCH   6  13
ATOM     13  N   LIG d   1      -5.653  76.624 117.228  0.00  0.00    -0.311 N 
ATOM     14  C   LIG d   1      -4.899  77.381 116.431  0.00  0.00     0.210 C 
ATOM     15  C   LIG d   1      -4.279  78.610 117.104  0.00  0.00     0.109 C 
ATOM     16  O   LIG d   1      -4.711  77.168 115.224  0.00  0.00    -0.276 OA
ATOM     17  H   LIG d   1      -5.777  76.888 118.185  0.00  0.00     0.149 HD
ENDBRANCH   6  13
BRANCH   5  18
ATOM     18  N   LIG d   1      -8.678  76.263 117.001  0.00  0.00     0.381 N 
ATOM     19  H   LIG d   1      -9.560  75.854 116.767  0.00  0.00    -0.090 HD
ATOM     20  H   LIG d   1      -8.319  76.728 116.185  0.00  0.00    -0.090 HD
ATOM     21  H   LIG d   1      -8.793  76.919 117.742  0.00  0.00    -0.090 HD
ENDBRANCH   5  18
BRANCH   3  22
ATOM     22  C   LIG d   1      -7.997  71.541 117.418  0.00  0.00     0.382 C 
ATOM     23  O   LIG d   1      -8.292  70.783 116.462  0.00  0.00    -0.241 OA
ATOM     24  O   LIG d   1      -8.244  71.181 118.584  0.00  0.00    -0.241 OA
ENDBRANCH   3  22
TORSDOF 7
ENDMDL
MODEL 6
REMARK VINA RESULT:      -5.4     13.679     15.836
REMARK  7 active torsions:
REMARK  status: ('A' for Active; 'I' for Inactive)
REMARK    1  A    between atoms: C_2  and  C_3 
REMARK    2  A    between atoms: C_3  and  O_6 
REMARK    3  A    between atoms: C_3  and  C_4 
REMARK    4  A    between atoms: C_7  and  O_6 
REMARK    5  A    between atoms: C_9  and  C_10 
REMARK    6  A    between atoms: N_15  and  C_14 
REMARK    7  A    between atoms: N_20  and  C_19 
REMARK       I    between atoms: C_22  and  N_20 
ROOT
ATOM      1  C   LIG d   1       2.822  86.128 113.714  0.00  0.00     0.161 C 
ATOM      2  C   LIG d   1       3.339  87.354 113.264  0.00  0.00     0.016 C 
ATOM      3  C   LIG d   1       4.370  88.055 113.931  0.00  0.00     0.038 C 
ATOM      4  C   LIG d   1       5.062  87.500 115.018  0.00  0.00     0.028 C 
ATOM      5  C   LIG d   1       4.236  86.492 115.810  0.00  0.00    -0.047 C 
ATOM      6  C   LIG d   1       3.640  85.453 114.834  0.00  0.00     0.091 C 
ENDROOT
BRANCH   1   7
ATOM      7  O   LIG d   1       2.660  85.228 112.599  0.00  0.00    -0.368 OA
BRANCH   7   8
ATOM      8  C   LIG d   1       2.967  85.771 111.292  0.00  0.00     0.119 C 
BRANCH   8   9
ATOM      9  C   LIG d   1       1.712  85.600 110.414  0.00  0.00     0.028 C 
ATOM     10  C   LIG d   1       0.536  86.468 110.895  0.00  0.00     0.006 C 
ENDBRANCH   8   9
BRANCH   8  11
ATOM     11  C   LIG d   1       4.063  84.960 110.594  0.00  0.00     0.028 C 
ATOM     12  C   LIG d   1       4.293  83.587 111.245  0.00  0.00     0.006 C 
ENDBRANCH   8  11
ENDBRANCH   7   8
ENDBRANCH   1   7
BRANCH   6  13
ATOM     13  N   LIG d   1       2.749  84.479 115.517  0.00  0.00    -0.311 N 
ATOM     14  C   LIG d   1       3.163  83.292 115.959  0.00  0.00     0.210 C 
ATOM     15  C   LIG d   1       2.077  82.433 116.617  0.00  0.00     0.109 C 
ATOM     16  O   LIG d   1       4.332  82.883 115.899  0.00  0.00    -0.276 OA
ATOM     17  H   LIG d   1       1.791  84.743 115.636  0.00  0.00     0.149 HD
ENDBRANCH   6  13
BRANCH   5  18
ATOM     18  N   LIG d   1       5.121  85.891 116.826  0.00  0.00     0.381 N 
ATOM     19  H   LIG d   1       5.646  85.144 116.418  0.00  0.00    -0.090 HD
ATOM     20  H   LIG d   1       4.557  85.513 117.566  0.00  0.00    -0.090 HD
ATOM     21  H   LIG d   1       5.741  86.581 117.190  0.00  0.00    -0.090 HD
ENDBRANCH   5  18
BRANCH   3  22
ATOM     22  C   LIG d   1       4.690  89.345 113.536  0.00  0.00     0.382 C 
ATOM     23  O   LIG d   1       4.022  90.317 113.965  0.00  0.00    -0.241 OA
ATOM     24  O   LIG d   1       5.611  89.546 112.722  0.00  0.00    -0.241 OA
ENDBRANCH   3  22
TORSDOF 7
ENDMDL
MODEL 7
REMARK VINA RESULT:      -5.3      2.062      5.110
REMARK  7 active torsions:
REMARK  status: ('A' for Active; 'I' for Inactive)
REMARK    1  A    between atoms: C_2  and  C_3 
REMARK    2  A    between atoms: C_3  and  O_6 
REMARK    3  A    between atoms: C_3  and  C_4 
REMARK    4  A    between atoms: C_7  and  O_6 
REMARK    5  A    between atoms: C_9  and  C_10 
REMARK    6  A    between atoms: N_15  and  C_14 
REMARK    7  A    between atoms: N_20  and  C_19 
REMARK       I    between atoms: C_22  and  N_20 
ROOT
ATOM      1  C   LIG d   1      -6.013  74.958 117.564  0.00  0.00     0.161 C 
ATOM      2  C   LIG d   1      -4.914  74.212 117.106  0.00  0.00     0.016 C 
ATOM      3  C   LIG d   1      -3.576  74.498 117.464  0.00  0.00     0.038 C 
ATOM      4  C   LIG d   1      -3.257  75.463 118.431  0.00  0.00     0.028 C 
ATOM      5  C   LIG d   1      -4.294  76.576 118.540  0.00  0.00    -0.047 C 
ATOM      6  C   LIG d   1      -5.694  75.944 118.707  0.00  0.00     0.091 C 
ENDROOT
BRANCH   1   7
ATOM      7  O   LIG d   1      -7.079  74.069 117.952  0.00  0.00    -0.368 OA
BRANCH   7   8
ATOM      8  C   LIG d   1      -8.022  73.712 116.911  0.00  0.00     0.119 C 
BRANCH   8   9
ATOM      9  C   LIG d   1      -9.009  74.886 116.759  0.00  0.00     0.028 C 
ATOM     10  C   LIG d   1     -10.412  74.421 116.334  0.00  0.00     0.006 C 
ENDBRANCH   8   9
BRANCH   8  11
ATOM     11  C   LIG d   1      -8.880  72.512 117.324  0.00  0.00     0.028 C 
ATOM     12  C   LIG d   1      -8.258  71.167 116.916  0.00  0.00     0.006 C 
ENDBRANCH   8  11
ENDBRANCH   7   8
ENDBRANCH   1   7
BRANCH   6  13
ATOM     13  N   LIG d   1      -6.776  76.962 118.737  0.00  0.00    -0.311 N 
ATOM     14  C   LIG d   1      -6.969  77.856 117.769  0.00  0.00     0.210 C 
ATOM     15  C   LIG d   1      -8.128  78.828 118.007  0.00  0.00     0.109 C 
ATOM     16  O   LIG d   1      -6.311  77.915 116.719  0.00  0.00    -0.276 OA
ATOM     17  H   LIG d   1      -7.377  76.966 119.538  0.00  0.00     0.149 HD
ENDBRANCH   6  13
BRANCH   5  18
ATOM     18  N   LIG d   1      -3.908  77.434 119.676  0.00  0.00     0.381 N 
ATOM     19  H   LIG d   1      -3.019  77.856 119.496  0.00  0.00    -0.090 HD
ATOM     20  H   LIG d   1      -3.825  76.865 120.500  0.00  0.00    -0.090 HD
ATOM     21  H   LIG d   1      -4.596  78.141 119.820  0.00  0.00    -0.090 HD
ENDBRANCH   5  18
BRANCH   3  22
ATOM     22  C   LIG d   1      -2.538  73.842 116.821  0.00  0.00     0.382 C 
ATOM     23  O   LIG d   1      -1.834  73.014 117.450  0.00  0.00    -0.241 OA
ATOM     24  O   LIG d   1      -2.267  74.099 115.633  0.00  0.00    -0.241 OA
ENDBRANCH   3  22
TORSDOF 7
ENDMDL
MODEL 8
REMARK VINA RESULT:      -5.2      2.280      4.726
REMARK  7 active torsions:
REMARK  status: ('A' for Active; 'I' for Inactive)
REMARK    1  A    between atoms: C_2  and  C_3 
REMARK    2  A    between atoms: C_3  and  O_6 
REMARK    3  A    between atoms: C_3  and  C_4 
REMARK    4  A    between atoms: C_7  and  O_6 
REMARK    5  A    between atoms: C_9  and  C_10 
REMARK    6  A    between atoms: N_15  and  C_14 
REMARK    7  A    between atoms: N_20  and  C_19 
REMARK       I    between atoms: C_22  and  N_20 
ROOT
ATOM      1  C   LIG d   1      -6.054  75.815 116.800  0.00  0.00     0.161 C 
ATOM      2  C   LIG d   1      -7.418  76.112 116.954  0.00  0.00     0.016 C 
ATOM      3  C   LIG d   1      -8.411  75.126 117.157  0.00  0.00     0.038 C 
ATOM      4  C   LIG d   1      -8.085  73.779 117.373  0.00  0.00     0.028 C 
ATOM      5  C   LIG d   1      -6.768  73.363 116.725  0.00  0.00    -0.047 C 
ATOM      6  C   LIG d   1      -5.665  74.362 117.144  0.00  0.00     0.091 C 
ENDROOT
BRANCH   1   7
ATOM      7  O   LIG d   1      -5.262  76.741 117.571  0.00  0.00    -0.368 OA
BRANCH   7   8
ATOM      8  C   LIG d   1      -4.888  77.970 116.902  0.00  0.00     0.119 C 
BRANCH   8   9
ATOM      9  C   LIG d   1      -3.379  77.891 116.598  0.00  0.00     0.028 C 
ATOM     10  C   LIG d   1      -3.094  77.414 115.164  0.00  0.00     0.006 C 
ENDBRANCH   8   9
BRANCH   8  11
ATOM     11  C   LIG d   1      -5.052  79.180 117.827  0.00  0.00     0.028 C 
ATOM     12  C   LIG d   1      -6.497  79.700 117.877  0.00  0.00     0.006 C 
ENDBRANCH   8  11
ENDBRANCH   7   8
ENDBRANCH   1   7
BRANCH   6  13
ATOM     13  N   LIG d   1      -4.363  74.077 116.486  0.00  0.00    -0.311 N 
ATOM     14  C   LIG d   1      -3.194  74.132 117.121  0.00  0.00     0.210 C 
ATOM     15  C   LIG d   1      -1.971  73.821 116.252  0.00  0.00     0.109 C 
ATOM     16  O   LIG d   1      -3.056  74.376 118.329  0.00  0.00    -0.276 OA
ATOM     17  H   LIG d   1      -4.386  73.840 115.514  0.00  0.00     0.149 HD
ENDBRANCH   6  13
BRANCH   5  18
ATOM     18  N   LIG d   1      -6.483  71.978 117.144  0.00  0.00     0.381 N 
ATOM     19  H   LIG d   1      -7.001  71.761 117.972  0.00  0.00    -0.090 HD
ATOM     20  H   LIG d   1      -5.504  71.897 117.354  0.00  0.00    -0.090 HD
ATOM     21  H   LIG d   1      -6.728  71.344 116.416  0.00  0.00    -0.090 HD
ENDBRANCH   5  18
BRANCH   3  22
ATOM     22  C   LIG d   1      -9.751  75.479 117.106  0.00  0.00     0.382 C 
ATOM     23  O   LIG d   1     -10.576  74.727 116.534  0.00  0.00    -0.241 OA
ATOM     24  O   LIG d   1     -10.138  76.562 117.587  0.00  0.00    -0.241 OA
ENDBRANCH   3  22
TORSDOF 7
ENDMDL
MODEL 9
REMARK VINA RESULT:      -5.1     18.886     21.963
REMARK  7 active torsions:
REMARK  status: ('A' for Active; 'I' for Inactive)
REMARK    1  A    between atoms: C_2  and  C_3 
REMARK    2  A    between atoms: C_3  and  O_6 
REMARK    3  A    between atoms: C_3  and  C_4 
REMARK    4  A    between atoms: C_7  and  O_6 
REMARK    5  A    between atoms: C_9  and  C_10 
REMARK    6  A    between atoms: N_15  and  C_14 
REMARK    7  A    between atoms: N_20  and  C_19 
REMARK       I    between atoms: C_22  and  N_20 
ROOT
ATOM      1  C   LIG d   1     -25.708  86.240 113.083  0.00  0.00     0.161 C 
ATOM      2  C   LIG d   1     -24.511  86.954 113.259  0.00  0.00     0.016 C 
ATOM      3  C   LIG d   1     -23.233  86.351 113.221  0.00  0.00     0.038 C 
ATOM      4  C   LIG d   1     -23.056  85.010 112.851  0.00  0.00     0.028 C 
ATOM      5  C   LIG d   1     -24.265  84.132 113.158  0.00  0.00    -0.047 C 
ATOM      6  C   LIG d   1     -25.530  84.796 112.567  0.00  0.00     0.091 C 
ENDROOT
BRANCH   1   7
ATOM      7  O   LIG d   1     -26.593  86.976 112.215  0.00  0.00    -0.368 OA
BRANCH   7   8
ATOM      8  C   LIG d   1     -26.621  88.412 112.403  0.00  0.00     0.119 C 
BRANCH   8   9
ATOM      9  C   LIG d   1     -27.281  88.687 113.768  0.00  0.00     0.028 C 
ATOM     10  C   LIG d   1     -26.748  89.968 114.431  0.00  0.00     0.006 C 
ENDBRANCH   8   9
BRANCH   8  11
ATOM     11  C   LIG d   1     -27.526  89.092 111.371  0.00  0.00     0.028 C 
ATOM     12  C   LIG d   1     -26.736  89.762 110.236  0.00  0.00     0.006 C 
ENDBRANCH   8  11
ENDBRANCH   7   8
ENDBRANCH   1   7
BRANCH   6  13
ATOM     13  N   LIG d   1     -26.770  84.045 112.895  0.00  0.00    -0.311 N 
ATOM     14  C   LIG d   1     -27.586  83.538 111.973  0.00  0.00     0.210 C 
ATOM     15  C   LIG d   1     -28.819  82.818 112.526  0.00  0.00     0.109 C 
ATOM     16  O   LIG d   1     -27.388  83.588 110.749  0.00  0.00    -0.276 OA
ATOM     17  H   LIG d   1     -26.991  83.930 113.865  0.00  0.00     0.149 HD
ENDBRANCH   6  13
BRANCH   5  18
ATOM     18  N   LIG d   1     -23.999  82.794 112.597  0.00  0.00     0.381 N 
ATOM     19  H   LIG d   1     -23.369  82.871 111.824  0.00  0.00    -0.090 HD
ATOM     20  H   LIG d   1     -24.862  82.404 112.263  0.00  0.00    -0.090 HD
ATOM     21  H   LIG d   1     -23.607  82.203 113.297  0.00  0.00    -0.090 HD
ENDBRANCH   5  18
BRANCH   3  22
ATOM     22  C   LIG d   1     -22.116  87.084 113.595  0.00  0.00     0.382 C 
ATOM     23  O   LIG d   1     -22.247  88.101 114.317  0.00  0.00    -0.241 OA
ATOM     24  O   LIG d   1     -20.985  86.766 113.183  0.00  0.00    -0.241 OA
ENDBRANCH   3  22
TORSDOF 7
ENDMDL
