MODEL 1
REMARK VINA RESULT:      -5.4      0.000      0.000
REMARK  7 active torsions:
REMARK  status: ('A' for Active; 'I' for Inactive)
REMARK    1  A    between atoms: C_2  and  C_3 
REMARK    2  A    between atoms: C_3  and  O_6 
REMARK    3  A    between atoms: C_3  and  C_4 
REMARK    4  A    between atoms: C_7  and  O_6 
REMARK    5  A    between atoms: C_9  and  C_10 
REMARK    6  A    between atoms: N_15  and  C_14 
REMARK    7  A    between atoms: N_20  and  C_19 
REMARK       I    between atoms: C_22  and  N_20 
ROOT
ATOM      1  C   LIG d   1      -7.614  75.074 117.808  0.00  0.00     0.161 C 
ATOM      2  C   LIG d   1      -8.771  75.861 117.931  0.00  0.00     0.016 C 
ATOM      3  C   LIG d   1      -8.752  77.274 117.968  0.00  0.00     0.038 C 
ATOM      4  C   LIG d   1      -7.578  78.005 117.731  0.00  0.00     0.028 C 
ATOM      5  C   LIG d   1      -6.307  77.250 118.105  0.00  0.00    -0.047 C 
ATOM      6  C   LIG d   1      -6.337  75.856 117.436  0.00  0.00     0.091 C 
ENDROOT
BRANCH   1   7
ATOM      7  O   LIG d   1      -7.844  74.011 116.862  0.00  0.00    -0.368 OA
BRANCH   7   8
ATOM      8  C   LIG d   1      -8.308  72.755 117.415  0.00  0.00     0.119 C 
BRANCH   8   9
ATOM      9  C   LIG d   1      -7.691  71.622 116.571  0.00  0.00     0.028 C 
ATOM     10  C   LIG d   1      -6.762  72.153 115.467  0.00  0.00     0.006 C 
ENDBRANCH   8   9
BRANCH   8  11
ATOM     11  C   LIG d   1      -9.823  72.602 117.254  0.00  0.00     0.028 C 
ATOM     12  C   LIG d   1     -10.225  71.241 116.662  0.00  0.00     0.006 C 
ENDBRANCH   8  11
ENDBRANCH   7   8
ENDBRANCH   1   7
BRANCH   6  13
ATOM     13  N   LIG d   1      -5.170  75.020 117.818  0.00  0.00    -0.311 N 
ATOM     14  C   LIG d   1      -4.040  74.973 117.115  0.00  0.00     0.210 C 
ATOM     15  C   LIG d   1      -2.969  74.030 117.673  0.00  0.00     0.109 C 
ATOM     16  O   LIG d   1      -3.811  75.646 116.099  0.00  0.00    -0.276 OA
ATOM     17  H   LIG d   1      -5.258  74.464 118.647  0.00  0.00     0.149 HD
ENDBRANCH   6  13
BRANCH   5  18
ATOM     18  N   LIG d   1      -5.159  78.071 117.678  0.00  0.00     0.381 N 
ATOM     19  H   LIG d   1      -4.416  77.479 117.364  0.00  0.00    -0.090 HD
ATOM     20  H   LIG d   1      -4.828  78.601 118.465  0.00  0.00    -0.090 HD
ATOM     21  H   LIG d   1      -5.434  78.688 116.946  0.00  0.00    -0.090 HD
ENDBRANCH   5  18
BRANCH   3  22
ATOM     22  C   LIG d   1      -9.909  77.969 118.285  0.00  0.00     0.382 C 
ATOM     23  O   LIG d   1     -10.861  77.378 118.847  0.00  0.00    -0.241 OA
ATOM     24  O   LIG d   1     -10.029  79.170 117.975  0.00  0.00    -0.241 OA
ENDBRANCH   3  22
TORSDOF 7
ENDMDL
MODEL 2
REMARK VINA RESULT:      -5.4     15.247     18.049
REMARK  7 active torsions:
REMARK  status: ('A' for Active; 'I' for Inactive)
REMARK    1  A    between atoms: C_2  and  C_3 
REMARK    2  A    between atoms: C_3  and  O_6 
REMARK    3  A    between atoms: C_3  and  C_4 
REMARK    4  A    between atoms: C_7  and  O_6 
REMARK    5  A    between atoms: C_9  and  C_10 
REMARK    6  A    between atoms: N_15  and  C_14 
REMARK    7  A    between atoms: N_20  and  C_19 
REMARK       I    between atoms: C_22  and  N_20 
ROOT
ATOM      1  C   LIG d   1      -5.853  92.889 117.109  0.00  0.00     0.161 C 
ATOM      2  C   LIG d   1      -7.028  92.280 116.639  0.00  0.00     0.016 C 
ATOM      3  C   LIG d   1      -7.050  91.015 116.006  0.00  0.00     0.038 C 
ATOM      4  C   LIG d   1      -5.909  90.202 115.935  0.00  0.00     0.028 C 
ATOM      5  C   LIG d   1      -4.603  90.989 115.944  0.00  0.00    -0.047 C 
ATOM      6  C   LIG d   1      -4.615  91.968 117.140  0.00  0.00     0.091 C 
ENDROOT
BRANCH   1   7
ATOM      7  O   LIG d   1      -6.086  93.460 118.411  0.00  0.00    -0.368 OA
BRANCH   7   8
ATOM      8  C   LIG d   1      -6.037  94.906 118.492  0.00  0.00     0.119 C 
BRANCH   8   9
ATOM      9  C   LIG d   1      -5.104  95.273 119.661  0.00  0.00     0.028 C 
ATOM     10  C   LIG d   1      -5.196  94.270 120.823  0.00  0.00     0.006 C 
ENDBRANCH   8   9
BRANCH   8  11
ATOM     11  C   LIG d   1      -7.404  95.489 118.864  0.00  0.00     0.028 C 
ATOM     12  C   LIG d   1      -8.140  96.096 117.659  0.00  0.00     0.006 C 
ENDBRANCH   8  11
ENDBRANCH   7   8
ENDBRANCH   1   7
BRANCH   6  13
ATOM     13  N   LIG d   1      -3.410  92.836 117.174  0.00  0.00    -0.311 N 
ATOM     14  C   LIG d   1      -2.599  92.924 118.227  0.00  0.00     0.210 C 
ATOM     15  C   LIG d   1      -1.424  93.893 118.060  0.00  0.00     0.109 C 
ATOM     16  O   LIG d   1      -2.722  92.267 119.271  0.00  0.00    -0.276 OA
ATOM     17  H   LIG d   1      -3.216  93.381 116.356  0.00  0.00     0.149 HD
ENDBRANCH   6  13
BRANCH   5  18
ATOM     18  N   LIG d   1      -3.497  90.015 116.006  0.00  0.00     0.381 N 
ATOM     19  H   LIG d   1      -2.634  90.468 115.778  0.00  0.00    -0.090 HD
ATOM     20  H   LIG d   1      -3.662  89.292 115.327  0.00  0.00    -0.090 HD
ATOM     21  H   LIG d   1      -3.442  89.618 116.918  0.00  0.00    -0.090 HD
ENDBRANCH   5  18
BRANCH   3  22
ATOM     22  C   LIG d   1      -8.215  90.570 115.400  0.00  0.00     0.382 C 
ATOM     23  O   LIG d   1      -8.822  91.310 114.589  0.00  0.00    -0.241 OA
ATOM     24  O   LIG d   1      -8.691  89.456 115.688  0.00  0.00    -0.241 OA
ENDBRANCH   3  22
TORSDOF 7
ENDMDL
MODEL 3
REMARK VINA RESULT:      -5.3      3.278      5.530
REMARK  7 active torsions:
REMARK  status: ('A' for Active; 'I' for Inactive)
REMARK    1  A    between atoms: C_2  and  C_3 
REMARK    2  A    between atoms: C_3  and  O_6 
REMARK    3  A    between atoms: C_3  and  C_4 
REMARK    4  A    between atoms: C_7  and  O_6 
REMARK    5  A    between atoms: C_9  and  C_10 
REMARK    6  A    between atoms: N_15  and  C_14 
REMARK    7  A    between atoms: N_20  and  C_19 
REMARK       I    between atoms: C_22  and  N_20 
ROOT
ATOM      1  C   LIG d   1      -3.470  75.820 116.618  0.00  0.00     0.161 C 
ATOM      2  C   LIG d   1      -3.788  76.643 115.525  0.00  0.00     0.016 C 
ATOM      3  C   LIG d   1      -2.826  77.121 114.606  0.00  0.00     0.038 C 
ATOM      4  C   LIG d   1      -1.494  76.682 114.631  0.00  0.00     0.028 C 
ATOM      5  C   LIG d   1      -1.025  76.250 116.016  0.00  0.00    -0.047 C 
ATOM      6  C   LIG d   1      -2.040  75.241 116.598  0.00  0.00     0.091 C 
ENDROOT
BRANCH   1   7
ATOM      7  O   LIG d   1      -4.439  74.759 116.729  0.00  0.00    -0.368 OA
BRANCH   7   8
ATOM      8  C   LIG d   1      -5.667  74.936 115.981  0.00  0.00     0.119 C 
BRANCH   8   9
ATOM      9  C   LIG d   1      -6.813  75.085 117.001  0.00  0.00     0.028 C 
ATOM     10  C   LIG d   1      -7.533  76.439 116.881  0.00  0.00     0.006 C 
ENDBRANCH   8   9
BRANCH   8  11
ATOM     11  C   LIG d   1      -6.009  73.686 115.166  0.00  0.00     0.028 C 
ATOM     12  C   LIG d   1      -6.840  72.666 115.961  0.00  0.00     0.006 C 
ENDBRANCH   8  11
ENDBRANCH   7   8
ENDBRANCH   1   7
BRANCH   6  13
ATOM     13  N   LIG d   1      -1.701  74.831 117.986  0.00  0.00    -0.311 N 
ATOM     14  C   LIG d   1      -0.982  73.749 118.276  0.00  0.00     0.210 C 
ATOM     15  C   LIG d   1      -0.765  73.498 119.771  0.00  0.00     0.109 C 
ATOM     16  O   LIG d   1      -0.476  72.990 117.435  0.00  0.00    -0.276 OA
ATOM     17  H   LIG d   1      -2.045  75.408 118.729  0.00  0.00     0.149 HD
ENDBRANCH   6  13
BRANCH   5  18
ATOM     18  N   LIG d   1       0.332  75.688 115.873  0.00  0.00     0.381 N 
ATOM     19  H   LIG d   1       1.002  76.429 115.821  0.00  0.00    -0.090 HD
ATOM     20  H   LIG d   1       0.377  75.162 115.017  0.00  0.00    -0.090 HD
ATOM     21  H   LIG d   1       0.539  75.096 116.646  0.00  0.00    -0.090 HD
ENDBRANCH   5  18
BRANCH   3  22
ATOM     22  C   LIG d   1      -3.186  78.080 113.671  0.00  0.00     0.382 C 
ATOM     23  O   LIG d   1      -3.019  79.297 113.926  0.00  0.00    -0.241 OA
ATOM     24  O   LIG d   1      -3.716  77.745 112.595  0.00  0.00    -0.241 OA
ENDBRANCH   3  22
TORSDOF 7
ENDMDL
MODEL 4
REMARK VINA RESULT:      -5.2     15.955     18.856
REMARK  7 active torsions:
REMARK  status: ('A' for Active; 'I' for Inactive)
REMARK    1  A    between atoms: C_2  and  C_3 
REMARK    2  A    between atoms: C_3  and  O_6 
REMARK    3  A    between atoms: C_3  and  C_4 
REMARK    4  A    between atoms: C_7  and  O_6 
REMARK    5  A    between atoms: C_9  and  C_10 
REMARK    6  A    between atoms: N_15  and  C_14 
REMARK    7  A    between atoms: N_20  and  C_19 
REMARK       I    between atoms: C_22  and  N_20 
ROOT
ATOM      1  C   LIG d   1      -5.980  93.671 117.785  0.00  0.00     0.161 C 
ATOM      2  C   LIG d   1      -6.714  92.823 116.939  0.00  0.00     0.016 C 
ATOM      3  C   LIG d   1      -6.185  91.639 116.375  0.00  0.00     0.038 C 
ATOM      4  C   LIG d   1      -4.926  91.141 116.742  0.00  0.00     0.028 C 
ATOM      5  C   LIG d   1      -3.956  92.225 117.201  0.00  0.00    -0.047 C 
ATOM      6  C   LIG d   1      -4.643  93.086 118.285  0.00  0.00     0.091 C 
ENDROOT
BRANCH   1   7
ATOM      7  O   LIG d   1      -6.798  94.075 118.901  0.00  0.00    -0.368 OA
BRANCH   7   8
ATOM      8  C   LIG d   1      -6.901  95.502 119.132  0.00  0.00     0.119 C 
BRANCH   8   9
ATOM      9  C   LIG d   1      -8.084  95.731 120.093  0.00  0.00     0.028 C 
ATOM     10  C   LIG d   1      -8.019  94.822 121.331  0.00  0.00     0.006 C 
ENDBRANCH   8   9
BRANCH   8  11
ATOM     11  C   LIG d   1      -7.271  96.249 117.848  0.00  0.00     0.028 C 
ATOM     12  C   LIG d   1      -8.783  96.247 117.571  0.00  0.00     0.006 C 
ENDBRANCH   8  11
ENDBRANCH   7   8
ENDBRANCH   1   7
BRANCH   6  13
ATOM     13  N   LIG d   1      -3.793  94.222 118.729  0.00  0.00    -0.311 N 
ATOM     14  C   LIG d   1      -2.988  94.165 119.789  0.00  0.00     0.210 C 
ATOM     15  C   LIG d   1      -2.215  95.454 120.083  0.00  0.00     0.109 C 
ATOM     16  O   LIG d   1      -2.816  93.159 120.493  0.00  0.00    -0.276 OA
ATOM     17  H   LIG d   1      -3.847  95.068 118.196  0.00  0.00     0.149 HD
ENDBRANCH   6  13
BRANCH   5  18
ATOM     18  N   LIG d   1      -2.734  91.554 117.683  0.00  0.00     0.381 N 
ATOM     19  H   LIG d   1      -2.980  90.792 118.282  0.00  0.00    -0.090 HD
ATOM     20  H   LIG d   1      -2.191  92.211 118.214  0.00  0.00    -0.090 HD
ATOM     21  H   LIG d   1      -2.201  91.220 116.910  0.00  0.00    -0.090 HD
ENDBRANCH   5  18
BRANCH   3  22
ATOM     22  C   LIG d   1      -6.903  90.962 115.401  0.00  0.00     0.382 C 
ATOM     23  O   LIG d   1      -7.324  91.576 114.392  0.00  0.00    -0.241 OA
ATOM     24  O   LIG d   1      -7.173  89.754 115.541  0.00  0.00    -0.241 OA
ENDBRANCH   3  22
TORSDOF 7
ENDMDL
MODEL 5
REMARK VINA RESULT:      -5.1     15.694     18.988
REMARK  7 active torsions:
REMARK  status: ('A' for Active; 'I' for Inactive)
REMARK    1  A    between atoms: C_2  and  C_3 
REMARK    2  A    between atoms: C_3  and  O_6 
REMARK    3  A    between atoms: C_3  and  C_4 
REMARK    4  A    between atoms: C_7  and  O_6 
REMARK    5  A    between atoms: C_9  and  C_10 
REMARK    6  A    between atoms: N_15  and  C_14 
REMARK    7  A    between atoms: N_20  and  C_19 
REMARK       I    between atoms: C_22  and  N_20 
ROOT
ATOM      1  C   LIG d   1      -6.010  93.077 118.392  0.00  0.00     0.161 C 
ATOM      2  C   LIG d   1      -4.854  93.630 118.968  0.00  0.00     0.016 C 
ATOM      3  C   LIG d   1      -3.544  93.210 118.641  0.00  0.00     0.038 C 
ATOM      4  C   LIG d   1      -3.294  92.306 117.598  0.00  0.00     0.028 C 
ATOM      5  C   LIG d   1      -4.452  91.349 117.335  0.00  0.00    -0.047 C 
ATOM      6  C   LIG d   1      -5.753  92.168 117.172  0.00  0.00     0.091 C 
ENDROOT
BRANCH   1   7
ATOM      7  O   LIG d   1      -6.935  94.127 118.049  0.00  0.00    -0.368 OA
BRANCH   7   8
ATOM      8  C   LIG d   1      -6.799  95.364 118.790  0.00  0.00     0.119 C 
BRANCH   8   9
ATOM      9  C   LIG d   1      -8.002  95.464 119.748  0.00  0.00     0.028 C 
ATOM     10  C   LIG d   1      -9.163  96.278 119.150  0.00  0.00     0.006 C 
ENDBRANCH   8   9
BRANCH   8  11
ATOM     11  C   LIG d   1      -6.913  96.582 117.868  0.00  0.00     0.028 C 
ATOM     12  C   LIG d   1      -5.768  97.588 118.067  0.00  0.00     0.006 C 
ENDBRANCH   8  11
ENDBRANCH   7   8
ENDBRANCH   1   7
BRANCH   6  13
ATOM     13  N   LIG d   1      -6.949  91.304 116.995  0.00  0.00    -0.311 N 
ATOM     14  C   LIG d   1      -7.391  90.897 115.806  0.00  0.00     0.210 C 
ATOM     15  C   LIG d   1      -8.651  90.028 115.847  0.00  0.00     0.109 C 
ATOM     16  O   LIG d   1      -6.839  91.148 114.724  0.00  0.00    -0.276 OA
ATOM     17  H   LIG d   1      -7.438  91.027 117.824  0.00  0.00     0.149 HD
ENDBRANCH   6  13
BRANCH   5  18
ATOM     18  N   LIG d   1      -4.113  90.558 116.137  0.00  0.00     0.381 N 
ATOM     19  H   LIG d   1      -3.610  91.127 115.486  0.00  0.00    -0.090 HD
ATOM     20  H   LIG d   1      -4.964  90.252 115.698  0.00  0.00    -0.090 HD
ATOM     21  H   LIG d   1      -3.562  89.769 116.395  0.00  0.00    -0.090 HD
ENDBRANCH   5  18
BRANCH   3  22
ATOM     22  C   LIG d   1      -2.470  93.666 119.389  0.00  0.00     0.382 C 
ATOM     23  O   LIG d   1      -1.460  92.938 119.545  0.00  0.00    -0.241 OA
ATOM     24  O   LIG d   1      -2.515  94.779 119.947  0.00  0.00    -0.241 OA
ENDBRANCH   3  22
TORSDOF 7
ENDMDL
MODEL 6
REMARK VINA RESULT:      -5.1      3.938      6.808
REMARK  7 active torsions:
REMARK  status: ('A' for Active; 'I' for Inactive)
REMARK    1  A    between atoms: C_2  and  C_3 
REMARK    2  A    between atoms: C_3  and  O_6 
REMARK    3  A    between atoms: C_3  and  C_4 
REMARK    4  A    between atoms: C_7  and  O_6 
REMARK    5  A    between atoms: C_9  and  C_10 
REMARK    6  A    between atoms: N_15  and  C_14 
REMARK    7  A    between atoms: N_20  and  C_19 
REMARK       I    between atoms: C_22  and  N_20 
ROOT
ATOM      1  C   LIG d   1      -2.655  75.169 115.835  0.00  0.00     0.161 C 
ATOM      2  C   LIG d   1      -2.209  74.349 116.885  0.00  0.00     0.016 C 
ATOM      3  C   LIG d   1      -0.991  74.557 117.571  0.00  0.00     0.038 C 
ATOM      4  C   LIG d   1      -0.202  75.696 117.353  0.00  0.00     0.028 C 
ATOM      5  C   LIG d   1      -0.358  76.282 115.954  0.00  0.00    -0.047 C 
ATOM      6  C   LIG d   1      -1.862  76.481 115.658  0.00  0.00     0.091 C 
ENDROOT
BRANCH   1   7
ATOM      7  O   LIG d   1      -4.059  75.451 115.997  0.00  0.00    -0.368 OA
BRANCH   7   8
ATOM      8  C   LIG d   1      -4.909  75.127 114.869  0.00  0.00     0.119 C 
BRANCH   8   9
ATOM      9  C   LIG d   1      -5.835  76.334 114.626  0.00  0.00     0.028 C 
ATOM     10  C   LIG d   1      -5.812  77.336 115.793  0.00  0.00     0.006 C 
ENDBRANCH   8   9
BRANCH   8  11
ATOM     11  C   LIG d   1      -5.843  73.958 115.192  0.00  0.00     0.028 C 
ATOM     12  C   LIG d   1      -6.134  73.825 116.696  0.00  0.00     0.006 C 
ENDBRANCH   8  11
ENDBRANCH   7   8
ENDBRANCH   1   7
BRANCH   6  13
ATOM     13  N   LIG d   1      -2.108  76.972 114.277  0.00  0.00    -0.311 N 
ATOM     14  C   LIG d   1      -2.577  78.188 114.004  0.00  0.00     0.210 C 
ATOM     15  C   LIG d   1      -2.777  78.485 112.515  0.00  0.00     0.109 C 
ATOM     16  O   LIG d   1      -2.817  79.061 114.852  0.00  0.00    -0.276 OA
ATOM     17  H   LIG d   1      -1.911  76.340 113.526  0.00  0.00     0.149 HD
ENDBRANCH   6  13
BRANCH   5  18
ATOM     18  N   LIG d   1       0.411  77.540 115.909  0.00  0.00     0.381 N 
ATOM     19  H   LIG d   1       0.933  77.648 116.756  0.00  0.00    -0.090 HD
ATOM     20  H   LIG d   1      -0.229  78.310 115.833  0.00  0.00    -0.090 HD
ATOM     21  H   LIG d   1       1.030  77.534 115.128  0.00  0.00    -0.090 HD
ENDBRANCH   5  18
BRANCH   3  22
ATOM     22  C   LIG d   1      -0.530  73.597 118.460  0.00  0.00     0.382 C 
ATOM     23  O   LIG d   1       0.436  73.856 119.216  0.00  0.00    -0.241 OA
ATOM     24  O   LIG d   1      -1.041  72.461 118.483  0.00  0.00    -0.241 OA
ENDBRANCH   3  22
TORSDOF 7
ENDMDL
MODEL 7
REMARK VINA RESULT:      -5.1     15.710     18.038
REMARK  7 active torsions:
REMARK  status: ('A' for Active; 'I' for Inactive)
REMARK    1  A    between atoms: C_2  and  C_3 
REMARK    2  A    between atoms: C_3  and  O_6 
REMARK    3  A    between atoms: C_3  and  C_4 
REMARK    4  A    between atoms: C_7  and  O_6 
REMARK    5  A    between atoms: C_9  and  C_10 
REMARK    6  A    between atoms: N_15  and  C_14 
REMARK    7  A    between atoms: N_20  and  C_19 
REMARK       I    between atoms: C_22  and  N_20 
ROOT
ATOM      1  C   LIG d   1      -3.937  91.751 118.130  0.00  0.00     0.161 C 
ATOM      2  C   LIG d   1      -4.242  90.913 117.044  0.00  0.00     0.016 C 
ATOM      3  C   LIG d   1      -5.321  91.147 116.161  0.00  0.00     0.038 C 
ATOM      4  C   LIG d   1      -6.081  92.325 116.213  0.00  0.00     0.028 C 
ATOM      5  C   LIG d   1      -6.129  92.953 117.602  0.00  0.00    -0.047 C 
ATOM      6  C   LIG d   1      -4.686  93.100 118.137  0.00  0.00     0.091 C 
ENDROOT
BRANCH   1   7
ATOM      7  O   LIG d   1      -2.513  91.968 118.194  0.00  0.00    -0.368 OA
BRANCH   7   8
ATOM      8  C   LIG d   1      -1.814  91.299 119.272  0.00  0.00     0.119 C 
BRANCH   8   9
ATOM      9  C   LIG d   1      -0.795  92.298 119.853  0.00  0.00     0.028 C 
ATOM     10  C   LIG d   1      -0.961  93.711 119.270  0.00  0.00     0.006 C 
ENDBRANCH   8   9
BRANCH   8  11
ATOM     11  C   LIG d   1      -0.979  90.125 118.751  0.00  0.00     0.028 C 
ATOM     12  C   LIG d   1      -0.394  90.384 117.353  0.00  0.00     0.006 C 
ENDBRANCH   8  11
ENDBRANCH   7   8
ENDBRANCH   1   7
BRANCH   6  13
ATOM     13  N   LIG d   1      -4.647  93.629 119.525  0.00  0.00    -0.311 N 
ATOM     14  C   LIG d   1      -4.479  94.919 119.813  0.00  0.00     0.210 C 
ATOM     15  C   LIG d   1      -4.449  95.248 121.309  0.00  0.00     0.109 C 
ATOM     16  O   LIG d   1      -4.385  95.825 118.972  0.00  0.00    -0.276 OA
ATOM     17  H   LIG d   1      -4.747  92.967 120.269  0.00  0.00     0.149 HD
ENDBRANCH   6  13
BRANCH   5  18
ATOM     18  N   LIG d   1      -6.835  94.243 117.484  0.00  0.00     0.381 N 
ATOM     19  H   LIG d   1      -6.178  94.995 117.534  0.00  0.00    -0.090 HD
ATOM     20  H   LIG d   1      -7.478  94.333 118.251  0.00  0.00    -0.090 HD
ATOM     21  H   LIG d   1      -7.330  94.282 116.620  0.00  0.00    -0.090 HD
ENDBRANCH   5  18
BRANCH   3  22
ATOM     22  C   LIG d   1      -5.674  90.176 115.236  0.00  0.00     0.382 C 
ATOM     23  O   LIG d   1      -6.855  90.111 114.815  0.00  0.00    -0.241 OA
ATOM     24  O   LIG d   1      -4.838  89.338 114.849  0.00  0.00    -0.241 OA
ENDBRANCH   3  22
TORSDOF 7
ENDMDL
MODEL 8
REMARK VINA RESULT:      -5.0      2.337      3.270
REMARK  7 active torsions:
REMARK  status: ('A' for Active; 'I' for Inactive)
REMARK    1  A    between atoms: C_2  and  C_3 
REMARK    2  A    between atoms: C_3  and  O_6 
REMARK    3  A    between atoms: C_3  and  C_4 
REMARK    4  A    between atoms: C_7  and  O_6 
REMARK    5  A    between atoms: C_9  and  C_10 
REMARK    6  A    between atoms: N_15  and  C_14 
REMARK    7  A    between atoms: N_20  and  C_19 
REMARK       I    between atoms: C_22  and  N_20 
ROOT
ATOM      1  C   LIG d   1      -4.774  75.970 117.798  0.00  0.00     0.161 C 
ATOM      2  C   LIG d   1      -5.876  76.841 117.786  0.00  0.00     0.016 C 
ATOM      3  C   LIG d   1      -5.837  78.138 117.225  0.00  0.00     0.038 C 
ATOM      4  C   LIG d   1      -4.729  78.598 116.498  0.00  0.00     0.028 C 
ATOM      5  C   LIG d   1      -3.416  77.949 116.920  0.00  0.00    -0.047 C 
ATOM      6  C   LIG d   1      -3.590  76.413 116.912  0.00  0.00     0.091 C 
ENDROOT
BRANCH   1   7
ATOM      7  O   LIG d   1      -5.198  74.640 117.440  0.00  0.00    -0.368 OA
BRANCH   7   8
ATOM      8  C   LIG d   1      -6.306  74.553 116.511  0.00  0.00     0.119 C 
BRANCH   8   9
ATOM      9  C   LIG d   1      -7.116  73.292 116.873  0.00  0.00     0.028 C 
ATOM     10  C   LIG d   1      -7.004  72.195 115.802  0.00  0.00     0.006 C 
ENDBRANCH   8   9
BRANCH   8  11
ATOM     11  C   LIG d   1      -5.816  74.322 115.078  0.00  0.00     0.028 C 
ATOM     12  C   LIG d   1      -5.739  75.619 114.259  0.00  0.00     0.006 C 
ENDBRANCH   8  11
ENDBRANCH   7   8
ENDBRANCH   1   7
BRANCH   6  13
ATOM     13  N   LIG d   1      -2.377  75.702 117.393  0.00  0.00    -0.311 N 
ATOM     14  C   LIG d   1      -1.735  74.780 116.677  0.00  0.00     0.210 C 
ATOM     15  C   LIG d   1      -0.519  74.156 117.368  0.00  0.00     0.109 C 
ATOM     16  O   LIG d   1      -2.038  74.444 115.522  0.00  0.00    -0.276 OA
ATOM     17  H   LIG d   1      -2.044  75.936 118.308  0.00  0.00     0.149 HD
ENDBRANCH   6  13
BRANCH   5  18
ATOM     18  N   LIG d   1      -2.369  78.416 115.992  0.00  0.00     0.381 N 
ATOM     19  H   LIG d   1      -1.505  77.953 116.194  0.00  0.00    -0.090 HD
ATOM     20  H   LIG d   1      -2.235  79.403 116.123  0.00  0.00    -0.090 HD
ATOM     21  H   LIG d   1      -2.640  78.233 115.051  0.00  0.00    -0.090 HD
ENDBRANCH   5  18
BRANCH   3  22
ATOM     22  C   LIG d   1      -6.901  79.004 117.423  0.00  0.00     0.382 C 
ATOM     23  O   LIG d   1      -8.012  78.558 117.799  0.00  0.00    -0.241 OA
ATOM     24  O   LIG d   1      -6.777  80.221 117.187  0.00  0.00    -0.241 OA
ENDBRANCH   3  22
TORSDOF 7
ENDMDL
MODEL 9
REMARK VINA RESULT:      -4.9      1.743      2.688
REMARK  7 active torsions:
REMARK  status: ('A' for Active; 'I' for Inactive)
REMARK    1  A    between atoms: C_2  and  C_3 
REMARK    2  A    between atoms: C_3  and  O_6 
REMARK    3  A    between atoms: C_3  and  C_4 
REMARK    4  A    between atoms: C_7  and  O_6 
REMARK    5  A    between atoms: C_9  and  C_10 
REMARK    6  A    between atoms: N_15  and  C_14 
REMARK    7  A    between atoms: N_20  and  C_19 
REMARK       I    between atoms: C_22  and  N_20 
ROOT
ATOM      1  C   LIG d   1      -6.908  76.560 117.665  0.00  0.00     0.161 C 
ATOM      2  C   LIG d   1      -8.262  76.611 118.034  0.00  0.00     0.016 C 
ATOM      3  C   LIG d   1      -8.964  77.820 118.251  0.00  0.00     0.038 C 
ATOM      4  C   LIG d   1      -8.395  79.069 117.964  0.00  0.00     0.028 C 
ATOM      5  C   LIG d   1      -6.874  79.082 118.073  0.00  0.00    -0.047 C 
ATOM      6  C   LIG d   1      -6.301  77.913 117.239  0.00  0.00     0.091 C 
ENDROOT
BRANCH   1   7
ATOM      7  O   LIG d   1      -6.722  75.578 116.625  0.00  0.00    -0.368 OA
BRANCH   7   8
ATOM      8  C   LIG d   1      -6.031  74.365 117.011  0.00  0.00     0.119 C 
BRANCH   8   9
ATOM      9  C   LIG d   1      -4.646  74.386 116.337  0.00  0.00     0.028 C 
ATOM     10  C   LIG d   1      -3.496  74.374 117.359  0.00  0.00     0.006 C 
ENDBRANCH   8   9
BRANCH   8  11
ATOM     11  C   LIG d   1      -6.734  73.123 116.453  0.00  0.00     0.028 C 
ATOM     12  C   LIG d   1      -8.017  72.769 117.222  0.00  0.00     0.006 C 
ENDBRANCH   8  11
ENDBRANCH   7   8
ENDBRANCH   1   7
BRANCH   6  13
ATOM     13  N   LIG d   1      -4.824  77.802 117.359  0.00  0.00    -0.311 N 
ATOM     14  C   LIG d   1      -3.975  78.337 116.484  0.00  0.00     0.210 C 
ATOM     15  C   LIG d   1      -2.494  78.087 116.784  0.00  0.00     0.109 C 
ATOM     16  O   LIG d   1      -4.307  79.023 115.505  0.00  0.00    -0.276 OA
ATOM     17  H   LIG d   1      -4.467  77.288 118.141  0.00  0.00     0.149 HD
ENDBRANCH   6  13
BRANCH   5  18
ATOM     18  N   LIG d   1      -6.405  80.403 117.615  0.00  0.00     0.381 N 
ATOM     19  H   LIG d   1      -6.166  80.970 118.404  0.00  0.00    -0.090 HD
ATOM     20  H   LIG d   1      -7.149  80.857 117.115  0.00  0.00    -0.090 HD
ATOM     21  H   LIG d   1      -5.612  80.297 117.021  0.00  0.00    -0.090 HD
ENDBRANCH   5  18
BRANCH   3  22
ATOM     22  C   LIG d   1     -10.237  77.786 118.798  0.00  0.00     0.382 C 
ATOM     23  O   LIG d   1     -10.517  78.516 119.780  0.00  0.00    -0.241 OA
ATOM     24  O   LIG d   1     -11.097  77.002 118.352  0.00  0.00    -0.241 OA
ENDBRANCH   3  22
TORSDOF 7
ENDMDL
