MODEL 1
REMARK VINA RESULT:      -5.9      0.000      0.000
REMARK  7 active torsions:
REMARK  status: ('A' for Active; 'I' for Inactive)
REMARK    1  A    between atoms: C_2  and  C_3 
REMARK    2  A    between atoms: C_3  and  O_6 
REMARK    3  A    between atoms: C_3  and  C_4 
REMARK    4  A    between atoms: C_7  and  O_6 
REMARK    5  A    between atoms: C_9  and  C_10 
REMARK    6  A    between atoms: N_15  and  C_14 
REMARK    7  A    between atoms: N_20  and  C_19 
REMARK       I    between atoms: C_22  and  N_20 
ROOT
ATOM      1  C   LIG d   1      -7.269  76.769 117.365  0.00  0.00     0.161 C 
ATOM      2  C   LIG d   1      -8.578  77.022 117.807  0.00  0.00     0.016 C 
ATOM      3  C   LIG d   1      -9.041  78.307 118.172  0.00  0.00     0.038 C 
ATOM      4  C   LIG d   1      -8.264  79.459 117.974  0.00  0.00     0.028 C 
ATOM      5  C   LIG d   1      -6.764  79.190 118.005  0.00  0.00    -0.047 C 
ATOM      6  C   LIG d   1      -6.441  78.029 117.037  0.00  0.00     0.091 C 
ENDROOT
BRANCH   1   7
ATOM      7  O   LIG d   1      -7.299  75.880 116.230  0.00  0.00    -0.368 OA
BRANCH   7   8
ATOM      8  C   LIG d   1      -6.843  74.526 116.468  0.00  0.00     0.119 C 
BRANCH   8   9
ATOM      9  C   LIG d   1      -6.077  74.069 115.212  0.00  0.00     0.028 C 
ATOM     10  C   LIG d   1      -5.550  75.252 114.382  0.00  0.00     0.006 C 
ENDBRANCH   8   9
BRANCH   8  11
ATOM     11  C   LIG d   1      -8.021  73.556 116.600  0.00  0.00     0.028 C 
ATOM     12  C   LIG d   1      -7.726  72.175 115.993  0.00  0.00     0.006 C 
ENDBRANCH   8  11
ENDBRANCH   7   8
ENDBRANCH   1   7
BRANCH   6  13
ATOM     13  N   LIG d   1      -5.006  77.646 117.070  0.00  0.00    -0.311 N 
ATOM     14  C   LIG d   1      -4.096  78.139 116.231  0.00  0.00     0.210 C 
ATOM     15  C   LIG d   1      -2.677  77.596 116.424  0.00  0.00     0.109 C 
ATOM     16  O   LIG d   1      -4.323  79.000 115.367  0.00  0.00    -0.276 OA
ATOM     17  H   LIG d   1      -4.728  76.976 117.760  0.00  0.00     0.149 HD
ENDBRANCH   6  13
BRANCH   5  18
ATOM     18  N   LIG d   1      -6.078  80.447 117.650  0.00  0.00     0.381 N 
ATOM     19  H   LIG d   1      -6.459  80.811 116.799  0.00  0.00    -0.090 HD
ATOM     20  H   LIG d   1      -5.103  80.255 117.502  0.00  0.00    -0.090 HD
ATOM     21  H   LIG d   1      -6.186  81.113 118.382  0.00  0.00    -0.090 HD
ENDBRANCH   5  18
BRANCH   3  22
ATOM     22  C   LIG d   1     -10.280  78.444 118.779  0.00  0.00     0.382 C 
ATOM     23  O   LIG d   1     -10.508  79.428 119.523  0.00  0.00    -0.241 OA
ATOM     24  O   LIG d   1     -11.158  77.574 118.626  0.00  0.00    -0.241 OA
ENDBRANCH   3  22
TORSDOF 7
ENDMDL
MODEL 2
REMARK VINA RESULT:      -5.8     13.389     16.037
REMARK  7 active torsions:
REMARK  status: ('A' for Active; 'I' for Inactive)
REMARK    1  A    between atoms: C_2  and  C_3 
REMARK    2  A    between atoms: C_3  and  O_6 
REMARK    3  A    between atoms: C_3  and  C_4 
REMARK    4  A    between atoms: C_7  and  O_6 
REMARK    5  A    between atoms: C_9  and  C_10 
REMARK    6  A    between atoms: N_15  and  C_14 
REMARK    7  A    between atoms: N_20  and  C_19 
REMARK       I    between atoms: C_22  and  N_20 
ROOT
ATOM      1  C   LIG d   1      -5.864  92.666 117.672  0.00  0.00     0.161 C 
ATOM      2  C   LIG d   1      -6.812  91.776 117.141  0.00  0.00     0.016 C 
ATOM      3  C   LIG d   1      -6.477  90.515 116.597  0.00  0.00     0.038 C 
ATOM      4  C   LIG d   1      -5.178  89.991 116.685  0.00  0.00     0.028 C 
ATOM      5  C   LIG d   1      -4.096  91.063 116.757  0.00  0.00    -0.047 C 
ATOM      6  C   LIG d   1      -4.457  92.066 117.877  0.00  0.00     0.091 C 
ENDROOT
BRANCH   1   7
ATOM      7  O   LIG d   1      -6.355  93.225 118.906  0.00  0.00    -0.368 OA
BRANCH   7   8
ATOM      8  C   LIG d   1      -6.835  94.590 118.842  0.00  0.00     0.119 C 
BRANCH   8   9
ATOM      9  C   LIG d   1      -6.398  95.297 120.139  0.00  0.00     0.028 C 
ATOM     10  C   LIG d   1      -5.287  94.532 120.878  0.00  0.00     0.006 C 
ENDBRANCH   8   9
BRANCH   8  11
ATOM     11  C   LIG d   1      -8.366  94.644 118.847  0.00  0.00     0.028 C 
ATOM     12  C   LIG d   1      -8.999  93.515 119.676  0.00  0.00     0.006 C 
ENDBRANCH   8  11
ENDBRANCH   7   8
ENDBRANCH   1   7
BRANCH   6  13
ATOM     13  N   LIG d   1      -3.494  93.194 117.960  0.00  0.00    -0.311 N 
ATOM     14  C   LIG d   1      -2.442  93.202 118.777  0.00  0.00     0.210 C 
ATOM     15  C   LIG d   1      -1.588  94.473 118.719  0.00  0.00     0.109 C 
ATOM     16  O   LIG d   1      -2.118  92.265 119.521  0.00  0.00    -0.276 OA
ATOM     17  H   LIG d   1      -3.665  93.984 117.368  0.00  0.00     0.149 HD
ENDBRANCH   6  13
BRANCH   5  18
ATOM     18  N   LIG d   1      -2.808  90.382 116.984  0.00  0.00     0.381 N 
ATOM     19  H   LIG d   1      -2.388  90.724 117.825  0.00  0.00    -0.090 HD
ATOM     20  H   LIG d   1      -2.192  90.587 116.217  0.00  0.00    -0.090 HD
ATOM     21  H   LIG d   1      -2.950  89.398 117.051  0.00  0.00    -0.090 HD
ENDBRANCH   5  18
BRANCH   3  22
ATOM     22  C   LIG d   1      -7.439  89.781 115.920  0.00  0.00     0.382 C 
ATOM     23  O   LIG d   1      -7.868  90.180 114.811  0.00  0.00    -0.241 OA
ATOM     24  O   LIG d   1      -7.916  88.747 116.426  0.00  0.00    -0.241 OA
ENDBRANCH   3  22
TORSDOF 7
ENDMDL
MODEL 3
REMARK VINA RESULT:      -5.6     13.104     15.725
REMARK  7 active torsions:
REMARK  status: ('A' for Active; 'I' for Inactive)
REMARK    1  A    between atoms: C_2  and  C_3 
REMARK    2  A    between atoms: C_3  and  O_6 
REMARK    3  A    between atoms: C_3  and  C_4 
REMARK    4  A    between atoms: C_7  and  O_6 
REMARK    5  A    between atoms: C_9  and  C_10 
REMARK    6  A    between atoms: N_15  and  C_14 
REMARK    7  A    between atoms: N_20  and  C_19 
REMARK       I    between atoms: C_22  and  N_20 
ROOT
ATOM      1  C   LIG d   1      -5.639  92.648 118.053  0.00  0.00     0.161 C 
ATOM      2  C   LIG d   1      -6.621  91.786 117.538  0.00  0.00     0.016 C 
ATOM      3  C   LIG d   1      -6.322  90.602 116.825  0.00  0.00     0.038 C 
ATOM      4  C   LIG d   1      -5.010  90.119 116.708  0.00  0.00     0.028 C 
ATOM      5  C   LIG d   1      -3.953  91.215 116.775  0.00  0.00    -0.047 C 
ATOM      6  C   LIG d   1      -4.204  92.080 118.031  0.00  0.00     0.091 C 
ENDROOT
BRANCH   1   7
ATOM      7  O   LIG d   1      -5.996  93.055 119.389  0.00  0.00    -0.368 OA
BRANCH   7   8
ATOM      8  C   LIG d   1      -5.431  92.269 120.467  0.00  0.00     0.119 C 
BRANCH   8   9
ATOM      9  C   LIG d   1      -6.604  91.650 121.252  0.00  0.00     0.028 C 
ATOM     10  C   LIG d   1      -7.813  92.595 121.343  0.00  0.00     0.006 C 
ENDBRANCH   8   9
BRANCH   8  11
ATOM     11  C   LIG d   1      -4.692  93.155 121.474  0.00  0.00     0.028 C 
ATOM     12  C   LIG d   1      -4.736  94.645 121.101  0.00  0.00     0.006 C 
ENDBRANCH   8  11
ENDBRANCH   7   8
ENDBRANCH   1   7
BRANCH   6  13
ATOM     13  N   LIG d   1      -3.265  93.227 118.128  0.00  0.00    -0.311 N 
ATOM     14  C   LIG d   1      -2.126  93.186 118.817  0.00  0.00     0.210 C 
ATOM     15  C   LIG d   1      -1.314  94.485 118.802  0.00  0.00     0.109 C 
ATOM     16  O   LIG d   1      -1.695  92.187 119.413  0.00  0.00    -0.276 OA
ATOM     17  H   LIG d   1      -3.521  94.068 117.648  0.00  0.00     0.149 HD
ENDBRANCH   6  13
BRANCH   5  18
ATOM     18  N   LIG d   1      -2.631  90.560 116.779  0.00  0.00     0.381 N 
ATOM     19  H   LIG d   1      -2.172  90.717 115.904  0.00  0.00    -0.090 HD
ATOM     20  H   LIG d   1      -2.760  89.570 116.894  0.00  0.00    -0.090 HD
ATOM     21  H   LIG d   1      -2.075  90.919 117.523  0.00  0.00    -0.090 HD
ENDBRANCH   5  18
BRANCH   3  22
ATOM     22  C   LIG d   1      -7.339  89.910 116.185  0.00  0.00     0.382 C 
ATOM     23  O   LIG d   1      -7.757  88.827 116.663  0.00  0.00    -0.241 OA
ATOM     24  O   LIG d   1      -7.813  90.331 115.113  0.00  0.00    -0.241 OA
ENDBRANCH   3  22
TORSDOF 7
ENDMDL
MODEL 4
REMARK VINA RESULT:      -5.5      2.288      5.009
REMARK  7 active torsions:
REMARK  status: ('A' for Active; 'I' for Inactive)
REMARK    1  A    between atoms: C_2  and  C_3 
REMARK    2  A    between atoms: C_3  and  O_6 
REMARK    3  A    between atoms: C_3  and  C_4 
REMARK    4  A    between atoms: C_7  and  O_6 
REMARK    5  A    between atoms: C_9  and  C_10 
REMARK    6  A    between atoms: N_15  and  C_14 
REMARK    7  A    between atoms: N_20  and  C_19 
REMARK       I    between atoms: C_22  and  N_20 
ROOT
ATOM      1  C   LIG d   1      -5.682  75.850 116.333  0.00  0.00     0.161 C 
ATOM      2  C   LIG d   1      -6.085  74.601 115.831  0.00  0.00     0.016 C 
ATOM      3  C   LIG d   1      -7.238  73.918 116.281  0.00  0.00     0.038 C 
ATOM      4  C   LIG d   1      -8.155  74.510 117.163  0.00  0.00     0.028 C 
ATOM      5  C   LIG d   1      -7.526  75.557 118.076  0.00  0.00    -0.047 C 
ATOM      6  C   LIG d   1      -6.729  76.562 117.214  0.00  0.00     0.091 C 
ENDROOT
BRANCH   1   7
ATOM      7  O   LIG d   1      -5.276  76.705 115.246  0.00  0.00    -0.368 OA
BRANCH   7   8
ATOM      8  C   LIG d   1      -3.851  76.917 115.099  0.00  0.00     0.119 C 
BRANCH   8   9
ATOM      9  C   LIG d   1      -3.598  78.436 115.172  0.00  0.00     0.028 C 
ATOM     10  C   LIG d   1      -2.729  78.829 116.378  0.00  0.00     0.006 C 
ENDBRANCH   8   9
BRANCH   8  11
ATOM     11  C   LIG d   1      -3.364  76.492 113.711  0.00  0.00     0.028 C 
ATOM     12  C   LIG d   1      -1.884  76.078 113.699  0.00  0.00     0.006 C 
ENDBRANCH   8  11
ENDBRANCH   7   8
ENDBRANCH   1   7
BRANCH   6  13
ATOM     13  N   LIG d   1      -6.013  77.571 118.037  0.00  0.00    -0.311 N 
ATOM     14  C   LIG d   1      -6.232  78.882 117.944  0.00  0.00     0.210 C 
ATOM     15  C   LIG d   1      -5.372  79.748 118.870  0.00  0.00     0.109 C 
ATOM     16  O   LIG d   1      -7.080  79.407 117.207  0.00  0.00    -0.276 OA
ATOM     17  H   LIG d   1      -5.329  77.230 118.685  0.00  0.00     0.149 HD
ENDBRANCH   6  13
BRANCH   5  18
ATOM     18  N   LIG d   1      -8.616  76.190 118.844  0.00  0.00     0.381 N 
ATOM     19  H   LIG d   1      -8.698  75.752 119.739  0.00  0.00    -0.090 HD
ATOM     20  H   LIG d   1      -9.480  76.061 118.348  0.00  0.00    -0.090 HD
ATOM     21  H   LIG d   1      -8.432  77.163 118.958  0.00  0.00    -0.090 HD
ENDBRANCH   5  18
BRANCH   3  22
ATOM     22  C   LIG d   1      -7.462  72.610 115.879  0.00  0.00     0.382 C 
ATOM     23  O   LIG d   1      -8.526  72.028 116.202  0.00  0.00    -0.241 OA
ATOM     24  O   LIG d   1      -6.595  71.990 115.235  0.00  0.00    -0.241 OA
ENDBRANCH   3  22
TORSDOF 7
ENDMDL
MODEL 5
REMARK VINA RESULT:      -5.4      1.564      4.782
REMARK  7 active torsions:
REMARK  status: ('A' for Active; 'I' for Inactive)
REMARK    1  A    between atoms: C_2  and  C_3 
REMARK    2  A    between atoms: C_3  and  O_6 
REMARK    3  A    between atoms: C_3  and  C_4 
REMARK    4  A    between atoms: C_7  and  O_6 
REMARK    5  A    between atoms: C_9  and  C_10 
REMARK    6  A    between atoms: N_15  and  C_14 
REMARK    7  A    between atoms: N_20  and  C_19 
REMARK       I    between atoms: C_22  and  N_20 
ROOT
ATOM      1  C   LIG d   1      -6.649  77.089 116.687  0.00  0.00     0.161 C 
ATOM      2  C   LIG d   1      -5.412  77.568 116.224  0.00  0.00     0.016 C 
ATOM      3  C   LIG d   1      -4.875  78.822 116.595  0.00  0.00     0.038 C 
ATOM      4  C   LIG d   1      -5.473  79.623 117.579  0.00  0.00     0.028 C 
ATOM      5  C   LIG d   1      -6.979  79.412 117.699  0.00  0.00    -0.047 C 
ATOM      6  C   LIG d   1      -7.263  77.900 117.847  0.00  0.00     0.091 C 
ENDROOT
BRANCH   1   7
ATOM      7  O   LIG d   1      -6.529  75.700 117.054  0.00  0.00    -0.368 OA
BRANCH   7   8
ATOM      8  C   LIG d   1      -7.047  74.742 116.100  0.00  0.00     0.119 C 
BRANCH   8   9
ATOM      9  C   LIG d   1      -7.923  73.741 116.879  0.00  0.00     0.028 C 
ATOM     10  C   LIG d   1      -8.003  72.369 116.188  0.00  0.00     0.006 C 
ENDBRANCH   8   9
BRANCH   8  11
ATOM     11  C   LIG d   1      -5.923  73.903 115.485  0.00  0.00     0.028 C 
ATOM     12  C   LIG d   1      -5.272  74.580 114.268  0.00  0.00     0.006 C 
ENDBRANCH   8  11
ENDBRANCH   7   8
ENDBRANCH   1   7
BRANCH   6  13
ATOM     13  N   LIG d   1      -8.718  77.598 117.886  0.00  0.00    -0.311 N 
ATOM     14  C   LIG d   1      -9.422  77.528 119.014  0.00  0.00     0.210 C 
ATOM     15  C   LIG d   1     -10.904  77.184 118.831  0.00  0.00     0.109 C 
ATOM     16  O   LIG d   1      -8.968  77.749 120.146  0.00  0.00    -0.276 OA
ATOM     17  H   LIG d   1      -9.174  77.435 117.009  0.00  0.00     0.149 HD
ENDBRANCH   6  13
BRANCH   5  18
ATOM     18  N   LIG d   1      -7.450  80.204 118.850  0.00  0.00     0.381 N 
ATOM     19  H   LIG d   1      -6.709  80.311 119.514  0.00  0.00    -0.090 HD
ATOM     20  H   LIG d   1      -8.204  79.713 119.296  0.00  0.00    -0.090 HD
ATOM     21  H   LIG d   1      -7.762  81.099 118.543  0.00  0.00    -0.090 HD
ENDBRANCH   5  18
BRANCH   3  22
ATOM     22  C   LIG d   1      -3.747  79.305 115.949  0.00  0.00     0.382 C 
ATOM     23  O   LIG d   1      -2.751  79.673 116.618  0.00  0.00    -0.241 OA
ATOM     24  O   LIG d   1      -3.729  79.419 114.709  0.00  0.00    -0.241 OA
ENDBRANCH   3  22
TORSDOF 7
ENDMDL
MODEL 6
REMARK VINA RESULT:      -5.3      1.739      2.150
REMARK  7 active torsions:
REMARK  status: ('A' for Active; 'I' for Inactive)
REMARK    1  A    between atoms: C_2  and  C_3 
REMARK    2  A    between atoms: C_3  and  O_6 
REMARK    3  A    between atoms: C_3  and  C_4 
REMARK    4  A    between atoms: C_7  and  O_6 
REMARK    5  A    between atoms: C_9  and  C_10 
REMARK    6  A    between atoms: N_15  and  C_14 
REMARK    7  A    between atoms: N_20  and  C_19 
REMARK       I    between atoms: C_22  and  N_20 
ROOT
ATOM      1  C   LIG d   1      -6.308  78.220 117.265  0.00  0.00     0.161 C 
ATOM      2  C   LIG d   1      -7.590  77.753 117.598  0.00  0.00     0.016 C 
ATOM      3  C   LIG d   1      -8.607  78.582 118.125  0.00  0.00     0.038 C 
ATOM      4  C   LIG d   1      -8.458  79.974 118.212  0.00  0.00     0.028 C 
ATOM      5  C   LIG d   1      -7.007  80.420 118.361  0.00  0.00    -0.047 C 
ATOM      6  C   LIG d   1      -6.162  79.756 117.249  0.00  0.00     0.091 C 
ENDROOT
BRANCH   1   7
ATOM      7  O   LIG d   1      -5.900  77.665 115.999  0.00  0.00    -0.368 OA
BRANCH   7   8
ATOM      8  C   LIG d   1      -5.521  76.267 116.008  0.00  0.00     0.119 C 
BRANCH   8   9
ATOM      9  C   LIG d   1      -4.226  76.133 115.183  0.00  0.00     0.028 C 
ATOM     10  C   LIG d   1      -4.478  75.540 113.787  0.00  0.00     0.006 C 
ENDBRANCH   8   9
BRANCH   8  11
ATOM     11  C   LIG d   1      -6.556  75.404 115.280  0.00  0.00     0.028 C 
ATOM     12  C   LIG d   1      -7.145  74.301 116.173  0.00  0.00     0.006 C 
ENDBRANCH   8  11
ENDBRANCH   7   8
ENDBRANCH   1   7
BRANCH   6  13
ATOM     13  N   LIG d   1      -4.715  80.072 117.372  0.00  0.00    -0.311 N 
ATOM     14  C   LIG d   1      -4.136  81.104 116.760  0.00  0.00     0.210 C 
ATOM     15  C   LIG d   1      -2.630  81.238 117.005  0.00  0.00     0.109 C 
ATOM     16  O   LIG d   1      -4.733  81.940 116.065  0.00  0.00    -0.276 OA
ATOM     17  H   LIG d   1      -4.162  79.463 117.943  0.00  0.00     0.149 HD
ENDBRANCH   6  13
BRANCH   5  18
ATOM     18  N   LIG d   1      -6.985  81.894 118.301  0.00  0.00     0.381 N 
ATOM     19  H   LIG d   1      -6.288  82.247 118.926  0.00  0.00    -0.090 HD
ATOM     20  H   LIG d   1      -7.880  82.244 118.596  0.00  0.00    -0.090 HD
ATOM     21  H   LIG d   1      -6.792  82.195 117.372  0.00  0.00    -0.090 HD
ENDBRANCH   5  18
BRANCH   3  22
ATOM     22  C   LIG d   1      -9.776  78.014 118.608  0.00  0.00     0.382 C 
ATOM     23  O   LIG d   1      -9.778  76.822 119.000  0.00  0.00    -0.241 OA
ATOM     24  O   LIG d   1     -10.839  78.663 118.615  0.00  0.00    -0.241 OA
ENDBRANCH   3  22
TORSDOF 7
ENDMDL
MODEL 7
REMARK VINA RESULT:      -5.3      2.227      5.406
REMARK  7 active torsions:
REMARK  status: ('A' for Active; 'I' for Inactive)
REMARK    1  A    between atoms: C_2  and  C_3 
REMARK    2  A    between atoms: C_3  and  O_6 
REMARK    3  A    between atoms: C_3  and  C_4 
REMARK    4  A    between atoms: C_7  and  O_6 
REMARK    5  A    between atoms: C_9  and  C_10 
REMARK    6  A    between atoms: N_15  and  C_14 
REMARK    7  A    between atoms: N_20  and  C_19 
REMARK       I    between atoms: C_22  and  N_20 
ROOT
ATOM      1  C   LIG d   1      -5.327  76.257 115.914  0.00  0.00     0.161 C 
ATOM      2  C   LIG d   1      -4.176  75.777 115.266  0.00  0.00     0.016 C 
ATOM      3  C   LIG d   1      -2.998  76.542 115.103  0.00  0.00     0.038 C 
ATOM      4  C   LIG d   1      -2.838  77.795 115.714  0.00  0.00     0.028 C 
ATOM      5  C   LIG d   1      -4.155  78.527 115.949  0.00  0.00    -0.047 C 
ATOM      6  C   LIG d   1      -5.131  77.580 116.683  0.00  0.00     0.091 C 
ENDROOT
BRANCH   1   7
ATOM      7  O   LIG d   1      -5.854  75.241 116.790  0.00  0.00    -0.368 OA
BRANCH   7   8
ATOM      8  C   LIG d   1      -7.063  74.580 116.344  0.00  0.00     0.119 C 
BRANCH   8   9
ATOM      9  C   LIG d   1      -7.884  74.221 117.598  0.00  0.00     0.028 C 
ATOM     10  C   LIG d   1      -7.913  75.364 118.627  0.00  0.00     0.006 C 
ENDBRANCH   8   9
BRANCH   8  11
ATOM     11  C   LIG d   1      -6.750  73.242 115.668  0.00  0.00     0.028 C 
ATOM     12  C   LIG d   1      -7.725  72.126 116.075  0.00  0.00     0.006 C 
ENDBRANCH   8  11
ENDBRANCH   7   8
ENDBRANCH   1   7
BRANCH   6  13
ATOM     13  N   LIG d   1      -6.473  78.189 116.877  0.00  0.00    -0.311 N 
ATOM     14  C   LIG d   1      -6.820  78.864 117.972  0.00  0.00     0.210 C 
ATOM     15  C   LIG d   1      -8.258  79.392 117.977  0.00  0.00     0.109 C 
ATOM     16  O   LIG d   1      -6.064  79.102 118.926  0.00  0.00    -0.276 OA
ATOM     17  H   LIG d   1      -7.139  78.071 116.139  0.00  0.00     0.149 HD
ENDBRANCH   6  13
BRANCH   5  18
ATOM     18  N   LIG d   1      -3.853  79.752 116.713  0.00  0.00     0.381 N 
ATOM     19  H   LIG d   1      -4.705  80.176 117.023  0.00  0.00    -0.090 HD
ATOM     20  H   LIG d   1      -3.379  80.402 116.111  0.00  0.00    -0.090 HD
ATOM     21  H   LIG d   1      -3.278  79.533 117.496  0.00  0.00    -0.090 HD
ENDBRANCH   5  18
BRANCH   3  22
ATOM     22  C   LIG d   1      -1.980  76.071 114.289  0.00  0.00     0.382 C 
ATOM     23  O   LIG d   1      -2.056  76.213 113.044  0.00  0.00    -0.241 OA
ATOM     24  O   LIG d   1      -1.007  75.467 114.779  0.00  0.00    -0.241 OA
ENDBRANCH   3  22
TORSDOF 7
ENDMDL
MODEL 8
REMARK VINA RESULT:      -5.2     13.462     16.061
REMARK  7 active torsions:
REMARK  status: ('A' for Active; 'I' for Inactive)
REMARK    1  A    between atoms: C_2  and  C_3 
REMARK    2  A    between atoms: C_3  and  O_6 
REMARK    3  A    between atoms: C_3  and  C_4 
REMARK    4  A    between atoms: C_7  and  O_6 
REMARK    5  A    between atoms: C_9  and  C_10 
REMARK    6  A    between atoms: N_15  and  C_14 
REMARK    7  A    between atoms: N_20  and  C_19 
REMARK       I    between atoms: C_22  and  N_20 
ROOT
ATOM      1  C   LIG d   1      -4.824  91.975 118.075  0.00  0.00     0.161 C 
ATOM      2  C   LIG d   1      -4.912  91.012 117.056  0.00  0.00     0.016 C 
ATOM      3  C   LIG d   1      -6.050  90.855 116.231  0.00  0.00     0.038 C 
ATOM      4  C   LIG d   1      -7.125  91.755 116.270  0.00  0.00     0.028 C 
ATOM      5  C   LIG d   1      -7.297  92.434 117.625  0.00  0.00    -0.047 C 
ATOM      6  C   LIG d   1      -5.942  93.038 118.059  0.00  0.00     0.091 C 
ENDROOT
BRANCH   1   7
ATOM      7  O   LIG d   1      -3.529  92.608 118.037  0.00  0.00    -0.368 OA
BRANCH   7   8
ATOM      8  C   LIG d   1      -2.395  91.758 118.339  0.00  0.00     0.119 C 
BRANCH   8   9
ATOM      9  C   LIG d   1      -2.505  91.349 119.820  0.00  0.00     0.028 C 
ATOM     10  C   LIG d   1      -2.578  89.823 120.004  0.00  0.00     0.006 C 
ENDBRANCH   8   9
BRANCH   8  11
ATOM     11  C   LIG d   1      -1.076  92.529 118.228  0.00  0.00     0.028 C 
ATOM     12  C   LIG d   1      -1.256  93.934 117.632  0.00  0.00     0.006 C 
ENDBRANCH   8  11
ENDBRANCH   7   8
ENDBRANCH   1   7
BRANCH   6  13
ATOM     13  N   LIG d   1      -6.001  93.649 119.413  0.00  0.00    -0.311 N 
ATOM     14  C   LIG d   1      -6.321  94.924 119.628  0.00  0.00     0.210 C 
ATOM     15  C   LIG d   1      -6.303  95.355 121.098  0.00  0.00     0.109 C 
ATOM     16  O   LIG d   1      -6.649  95.730 118.745  0.00  0.00    -0.276 OA
ATOM     17  H   LIG d   1      -5.779  93.058 120.190  0.00  0.00     0.149 HD
ENDBRANCH   6  13
BRANCH   5  18
ATOM     18  N   LIG d   1      -8.362  93.445 117.485  0.00  0.00     0.381 N 
ATOM     19  H   LIG d   1      -8.155  94.237 118.060  0.00  0.00    -0.090 HD
ATOM     20  H   LIG d   1      -9.230  93.047 117.797  0.00  0.00    -0.090 HD
ATOM     21  H   LIG d   1      -8.440  93.728 116.533  0.00  0.00    -0.090 HD
ENDBRANCH   5  18
BRANCH   3  22
ATOM     22  C   LIG d   1      -6.137  89.762 115.381  0.00  0.00     0.382 C 
ATOM     23  O   LIG d   1      -5.098  89.143 115.048  0.00  0.00    -0.241 OA
ATOM     24  O   LIG d   1      -7.236  89.415 114.909  0.00  0.00    -0.241 OA
ENDBRANCH   3  22
TORSDOF 7
ENDMDL
MODEL 9
REMARK VINA RESULT:      -5.2      2.580      3.277
REMARK  7 active torsions:
REMARK  status: ('A' for Active; 'I' for Inactive)
REMARK    1  A    between atoms: C_2  and  C_3 
REMARK    2  A    between atoms: C_3  and  O_6 
REMARK    3  A    between atoms: C_3  and  C_4 
REMARK    4  A    between atoms: C_7  and  O_6 
REMARK    5  A    between atoms: C_9  and  C_10 
REMARK    6  A    between atoms: N_15  and  C_14 
REMARK    7  A    between atoms: N_20  and  C_19 
REMARK       I    between atoms: C_22  and  N_20 
ROOT
ATOM      1  C   LIG d   1      -5.180  77.818 116.542  0.00  0.00     0.161 C 
ATOM      2  C   LIG d   1      -5.935  78.649 117.387  0.00  0.00     0.016 C 
ATOM      3  C   LIG d   1      -5.620  80.006 117.627  0.00  0.00     0.038 C 
ATOM      4  C   LIG d   1      -4.610  80.671 116.916  0.00  0.00     0.028 C 
ATOM      5  C   LIG d   1      -3.502  79.743 116.428  0.00  0.00    -0.047 C 
ATOM      6  C   LIG d   1      -4.140  78.555 115.672  0.00  0.00     0.091 C 
ENDROOT
BRANCH   1   7
ATOM      7  O   LIG d   1      -6.060  77.034 115.714  0.00  0.00    -0.368 OA
BRANCH   7   8
ATOM      8  C   LIG d   1      -6.285  75.667 116.138  0.00  0.00     0.119 C 
BRANCH   8   9
ATOM      9  C   LIG d   1      -5.968  74.752 114.940  0.00  0.00     0.028 C 
ATOM     10  C   LIG d   1      -5.958  73.263 115.326  0.00  0.00     0.006 C 
ENDBRANCH   8   9
BRANCH   8  11
ATOM     11  C   LIG d   1      -7.763  75.419 116.458  0.00  0.00     0.028 C 
ATOM     12  C   LIG d   1      -8.007  75.114 117.945  0.00  0.00     0.006 C 
ENDBRANCH   8  11
ENDBRANCH   7   8
ENDBRANCH   1   7
BRANCH   6  13
ATOM     13  N   LIG d   1      -3.131  77.555 115.233  0.00  0.00    -0.311 N 
ATOM     14  C   LIG d   1      -3.072  77.069 113.995  0.00  0.00     0.210 C 
ATOM     15  C   LIG d   1      -1.968  76.033 113.759  0.00  0.00     0.109 C 
ATOM     16  O   LIG d   1      -3.808  77.420 113.061  0.00  0.00    -0.276 OA
ATOM     17  H   LIG d   1      -2.475  77.238 115.919  0.00  0.00     0.149 HD
ENDBRANCH   6  13
BRANCH   5  18
ATOM     18  N   LIG d   1      -2.590  80.541 115.588  0.00  0.00     0.381 N 
ATOM     19  H   LIG d   1      -3.106  80.981 114.852  0.00  0.00    -0.090 HD
ATOM     20  H   LIG d   1      -1.910  79.929 115.174  0.00  0.00    -0.090 HD
ATOM     21  H   LIG d   1      -2.133  81.232 116.141  0.00  0.00    -0.090 HD
ENDBRANCH   5  18
BRANCH   3  22
ATOM     22  C   LIG d   1      -6.295  80.703 118.618  0.00  0.00     0.382 C 
ATOM     23  O   LIG d   1      -6.452  81.943 118.517  0.00  0.00    -0.241 OA
ATOM     24  O   LIG d   1      -6.711  80.113 119.633  0.00  0.00    -0.241 OA
ENDBRANCH   3  22
TORSDOF 7
ENDMDL
