MODEL 1
REMARK VINA RESULT:      -5.6      0.000      0.000
REMARK  7 active torsions:
REMARK  status: ('A' for Active; 'I' for Inactive)
REMARK    1  A    between atoms: C_2  and  C_3 
REMARK    2  A    between atoms: C_3  and  O_6 
REMARK    3  A    between atoms: C_3  and  C_4 
REMARK    4  A    between atoms: C_7  and  O_6 
REMARK    5  A    between atoms: C_9  and  C_10 
REMARK    6  A    between atoms: N_15  and  C_14 
REMARK    7  A    between atoms: N_20  and  C_19 
REMARK       I    between atoms: C_22  and  N_20 
ROOT
ATOM      1  C   LIG d   1      -5.978  91.658 119.401  0.00  0.00     0.161 C 
ATOM      2  C   LIG d   1      -7.313  92.076 119.536  0.00  0.00     0.016 C 
ATOM      3  C   LIG d   1      -7.696  93.433 119.640  0.00  0.00     0.038 C 
ATOM      4  C   LIG d   1      -6.777  94.478 119.464  0.00  0.00     0.028 C 
ATOM      5  C   LIG d   1      -5.347  94.096 119.829  0.00  0.00    -0.047 C 
ATOM      6  C   LIG d   1      -4.974  92.788 119.095  0.00  0.00     0.091 C 
ENDROOT
BRANCH   1   7
ATOM      7  O   LIG d   1      -5.889  90.624 118.400  0.00  0.00    -0.368 OA
BRANCH   7   8
ATOM      8  C   LIG d   1      -6.214  91.019 117.045  0.00  0.00     0.119 C 
BRANCH   8   9
ATOM      9  C   LIG d   1      -7.231  90.000 116.497  0.00  0.00     0.028 C 
ATOM     10  C   LIG d   1      -7.392  90.094 114.970  0.00  0.00     0.006 C 
ENDBRANCH   8   9
BRANCH   8  11
ATOM     11  C   LIG d   1      -4.994  90.910 116.125  0.00  0.00     0.028 C 
ATOM     12  C   LIG d   1      -3.895  90.001 116.698  0.00  0.00     0.006 C 
ENDBRANCH   8  11
ENDBRANCH   7   8
ENDBRANCH   1   7
BRANCH   6  13
ATOM     13  N   LIG d   1      -3.620  92.298 119.462  0.00  0.00    -0.311 N 
ATOM     14  C   LIG d   1      -2.530  92.542 118.736  0.00  0.00     0.210 C 
ATOM     15  C   LIG d   1      -1.238  91.927 119.284  0.00  0.00     0.109 C 
ATOM     16  O   LIG d   1      -2.505  93.235 117.708  0.00  0.00    -0.276 OA
ATOM     17  H   LIG d   1      -3.543  91.754 120.299  0.00  0.00     0.149 HD
ENDBRANCH   6  13
BRANCH   5  18
ATOM     18  N   LIG d   1      -4.476  95.231 119.468  0.00  0.00     0.381 N 
ATOM     19  H   LIG d   1      -4.990  96.087 119.536  0.00  0.00    -0.090 HD
ATOM     20  H   LIG d   1      -4.175  95.119 118.516  0.00  0.00    -0.090 HD
ATOM     21  H   LIG d   1      -3.686  95.260 120.073  0.00  0.00    -0.090 HD
ENDBRANCH   5  18
BRANCH   3  22
ATOM     22  C   LIG d   1      -9.005  93.754 119.963  0.00  0.00     0.382 C 
ATOM     23  O   LIG d   1      -9.702  92.950 120.629  0.00  0.00    -0.241 OA
ATOM     24  O   LIG d   1      -9.513  94.818 119.561  0.00  0.00    -0.241 OA
ENDBRANCH   3  22
TORSDOF 7
ENDMDL
MODEL 2
REMARK VINA RESULT:      -5.5     14.277     16.146
REMARK  7 active torsions:
REMARK  status: ('A' for Active; 'I' for Inactive)
REMARK    1  A    between atoms: C_2  and  C_3 
REMARK    2  A    between atoms: C_3  and  O_6 
REMARK    3  A    between atoms: C_3  and  C_4 
REMARK    4  A    between atoms: C_7  and  O_6 
REMARK    5  A    between atoms: C_9  and  C_10 
REMARK    6  A    between atoms: N_15  and  C_14 
REMARK    7  A    between atoms: N_20  and  C_19 
REMARK       I    between atoms: C_22  and  N_20 
ROOT
ATOM      1  C   LIG d   1      -7.331  76.058 117.426  0.00  0.00     0.161 C 
ATOM      2  C   LIG d   1      -8.663  76.236 117.837  0.00  0.00     0.016 C 
ATOM      3  C   LIG d   1      -9.159  77.451 118.365  0.00  0.00     0.038 C 
ATOM      4  C   LIG d   1      -8.389  78.623 118.377  0.00  0.00     0.028 C 
ATOM      5  C   LIG d   1      -6.888  78.361 118.440  0.00  0.00    -0.047 C 
ATOM      6  C   LIG d   1      -6.506  77.358 117.328  0.00  0.00     0.091 C 
ENDROOT
BRANCH   1   7
ATOM      7  O   LIG d   1      -7.298  75.348 116.172  0.00  0.00    -0.368 OA
BRANCH   7   8
ATOM      8  C   LIG d   1      -6.685  74.035 116.200  0.00  0.00     0.119 C 
BRANCH   8   9
ATOM      9  C   LIG d   1      -6.026  73.804 114.826  0.00  0.00     0.028 C 
ATOM     10  C   LIG d   1      -4.815  74.723 114.594  0.00  0.00     0.006 C 
ENDBRANCH   8   9
BRANCH   8  11
ATOM     11  C   LIG d   1      -7.737  72.931 116.336  0.00  0.00     0.028 C 
ATOM     12  C   LIG d   1      -7.131  71.520 116.280  0.00  0.00     0.006 C 
ENDBRANCH   8  11
ENDBRANCH   7   8
ENDBRANCH   1   7
BRANCH   6  13
ATOM     13  N   LIG d   1      -5.069  76.983 117.372  0.00  0.00    -0.311 N 
ATOM     14  C   LIG d   1      -4.121  77.629 116.696  0.00  0.00     0.210 C 
ATOM     15  C   LIG d   1      -2.706  77.066 116.866  0.00  0.00     0.109 C 
ATOM     16  O   LIG d   1      -4.312  78.636 115.997  0.00  0.00    -0.276 OA
ATOM     17  H   LIG d   1      -4.820  76.196 117.939  0.00  0.00     0.149 HD
ENDBRANCH   6  13
BRANCH   5  18
ATOM     18  N   LIG d   1      -6.203  79.661 118.307  0.00  0.00     0.381 N 
ATOM     19  H   LIG d   1      -6.261  80.165 119.169  0.00  0.00    -0.090 HD
ATOM     20  H   LIG d   1      -6.664  80.200 117.595  0.00  0.00    -0.090 HD
ATOM     21  H   LIG d   1      -5.248  79.519 118.060  0.00  0.00    -0.090 HD
ENDBRANCH   5  18
BRANCH   3  22
ATOM     22  C   LIG d   1     -10.426  77.490 118.926  0.00  0.00     0.382 C 
ATOM     23  O   LIG d   1     -11.298  76.663 118.563  0.00  0.00    -0.241 OA
ATOM     24  O   LIG d   1     -10.723  78.368 119.757  0.00  0.00    -0.241 OA
ENDBRANCH   3  22
TORSDOF 7
ENDMDL
MODEL 3
REMARK VINA RESULT:      -5.4      1.962      4.600
REMARK  7 active torsions:
REMARK  status: ('A' for Active; 'I' for Inactive)
REMARK    1  A    between atoms: C_2  and  C_3 
REMARK    2  A    between atoms: C_3  and  O_6 
REMARK    3  A    between atoms: C_3  and  C_4 
REMARK    4  A    between atoms: C_7  and  O_6 
REMARK    5  A    between atoms: C_9  and  C_10 
REMARK    6  A    between atoms: N_15  and  C_14 
REMARK    7  A    between atoms: N_20  and  C_19 
REMARK       I    between atoms: C_22  and  N_20 
ROOT
ATOM      1  C   LIG d   1      -5.886  92.871 118.365  0.00  0.00     0.161 C 
ATOM      2  C   LIG d   1      -6.569  91.896 117.619  0.00  0.00     0.016 C 
ATOM      3  C   LIG d   1      -5.917  90.856 116.917  0.00  0.00     0.038 C 
ATOM      4  C   LIG d   1      -4.538  90.631 117.038  0.00  0.00     0.028 C 
ATOM      5  C   LIG d   1      -3.746  91.890 117.373  0.00  0.00    -0.047 C 
ATOM      6  C   LIG d   1      -4.390  92.576 118.599  0.00  0.00     0.091 C 
ENDROOT
BRANCH   1   7
ATOM      7  O   LIG d   1      -6.558  93.083 119.623  0.00  0.00    -0.368 OA
BRANCH   7   8
ATOM      8  C   LIG d   1      -7.239  94.353 119.775  0.00  0.00     0.119 C 
BRANCH   8   9
ATOM      9  C   LIG d   1      -8.751  94.063 119.833  0.00  0.00     0.028 C 
ATOM     10  C   LIG d   1      -9.095  92.932 120.817  0.00  0.00     0.006 C 
ENDBRANCH   8   9
BRANCH   8  11
ATOM     11  C   LIG d   1      -7.043  95.242 118.544  0.00  0.00     0.028 C 
ATOM     12  C   LIG d   1      -8.367  95.592 117.845  0.00  0.00     0.006 C 
ENDBRANCH   8  11
ENDBRANCH   7   8
ENDBRANCH   1   7
BRANCH   6  13
ATOM     13  N   LIG d   1      -3.726  93.861 118.943  0.00  0.00    -0.311 N 
ATOM     14  C   LIG d   1      -2.745  93.963 119.837  0.00  0.00     0.210 C 
ATOM     15  C   LIG d   1      -2.214  95.384 120.055  0.00  0.00     0.109 C 
ATOM     16  O   LIG d   1      -2.241  93.008 120.446  0.00  0.00    -0.276 OA
ATOM     17  H   LIG d   1      -4.052  94.683 118.472  0.00  0.00     0.149 HD
ENDBRANCH   6  13
BRANCH   5  18
ATOM     18  N   LIG d   1      -2.346  91.487 117.605  0.00  0.00     0.381 N 
ATOM     19  H   LIG d   1      -1.905  91.275 116.732  0.00  0.00    -0.090 HD
ATOM     20  H   LIG d   1      -2.336  90.658 118.173  0.00  0.00    -0.090 HD
ATOM     21  H   LIG d   1      -1.852  92.219 118.066  0.00  0.00    -0.090 HD
ENDBRANCH   5  18
BRANCH   3  22
ATOM     22  C   LIG d   1      -6.643  90.052 116.051  0.00  0.00     0.382 C 
ATOM     23  O   LIG d   1      -7.801  89.681 116.362  0.00  0.00    -0.241 OA
ATOM     24  O   LIG d   1      -6.138  89.656 114.984  0.00  0.00    -0.241 OA
ENDBRANCH   3  22
TORSDOF 7
ENDMDL
MODEL 4
REMARK VINA RESULT:      -5.3     13.859     16.281
REMARK  7 active torsions:
REMARK  status: ('A' for Active; 'I' for Inactive)
REMARK    1  A    between atoms: C_2  and  C_3 
REMARK    2  A    between atoms: C_3  and  O_6 
REMARK    3  A    between atoms: C_3  and  C_4 
REMARK    4  A    between atoms: C_7  and  O_6 
REMARK    5  A    between atoms: C_9  and  C_10 
REMARK    6  A    between atoms: N_15  and  C_14 
REMARK    7  A    between atoms: N_20  and  C_19 
REMARK       I    between atoms: C_22  and  N_20 
ROOT
ATOM      1  C   LIG d   1      -6.579  76.798 116.845  0.00  0.00     0.161 C 
ATOM      2  C   LIG d   1      -5.314  77.053 116.290  0.00  0.00     0.016 C 
ATOM      3  C   LIG d   1      -4.526  78.176 116.632  0.00  0.00     0.038 C 
ATOM      4  C   LIG d   1      -4.887  79.047 117.671  0.00  0.00     0.028 C 
ATOM      5  C   LIG d   1      -6.392  79.114 117.909  0.00  0.00    -0.047 C 
ATOM      6  C   LIG d   1      -6.941  77.676 118.061  0.00  0.00     0.091 C 
ENDROOT
BRANCH   1   7
ATOM      7  O   LIG d   1      -6.691  75.402 117.184  0.00  0.00    -0.368 OA
BRANCH   7   8
ATOM      8  C   LIG d   1      -7.429  74.576 116.249  0.00  0.00     0.119 C 
BRANCH   8   9
ATOM      9  C   LIG d   1      -8.536  73.855 117.042  0.00  0.00     0.028 C 
ATOM     10  C   LIG d   1      -9.854  74.647 117.063  0.00  0.00     0.006 C 
ENDBRANCH   8   9
BRANCH   8  11
ATOM     11  C   LIG d   1      -6.549  73.462 115.676  0.00  0.00     0.028 C 
ATOM     12  C   LIG d   1      -7.048  72.057 116.050  0.00  0.00     0.006 C 
ENDBRANCH   8  11
ENDBRANCH   7   8
ENDBRANCH   1   7
BRANCH   6  13
ATOM     13  N   LIG d   1      -8.419  77.647 118.213  0.00  0.00    -0.311 N 
ATOM     14  C   LIG d   1      -9.033  77.569 119.392  0.00  0.00     0.210 C 
ATOM     15  C   LIG d   1     -10.563  77.531 119.324  0.00  0.00     0.109 C 
ATOM     16  O   LIG d   1      -8.456  77.560 120.491  0.00  0.00    -0.276 OA
ATOM     17  H   LIG d   1      -8.964  77.682 117.374  0.00  0.00     0.149 HD
ENDBRANCH   6  13
BRANCH   5  18
ATOM     18  N   LIG d   1      -6.617  79.948 119.105  0.00  0.00     0.381 N 
ATOM     19  H   LIG d   1      -6.568  80.916 118.857  0.00  0.00    -0.090 HD
ATOM     20  H   LIG d   1      -5.894  79.757 119.775  0.00  0.00    -0.090 HD
ATOM     21  H   LIG d   1      -7.509  79.743 119.500  0.00  0.00    -0.090 HD
ENDBRANCH   5  18
BRANCH   3  22
ATOM     22  C   LIG d   1      -3.381  78.460 115.903  0.00  0.00     0.382 C 
ATOM     23  O   LIG d   1      -3.404  78.399 114.650  0.00  0.00    -0.241 OA
ATOM     24  O   LIG d   1      -2.314  78.734 116.484  0.00  0.00    -0.241 OA
ENDBRANCH   3  22
TORSDOF 7
ENDMDL
MODEL 5
REMARK VINA RESULT:      -5.2      2.769      5.076
REMARK  7 active torsions:
REMARK  status: ('A' for Active; 'I' for Inactive)
REMARK    1  A    between atoms: C_2  and  C_3 
REMARK    2  A    between atoms: C_3  and  O_6 
REMARK    3  A    between atoms: C_3  and  C_4 
REMARK    4  A    between atoms: C_7  and  O_6 
REMARK    5  A    between atoms: C_9  and  C_10 
REMARK    6  A    between atoms: N_15  and  C_14 
REMARK    7  A    between atoms: N_20  and  C_19 
REMARK       I    between atoms: C_22  and  N_20 
ROOT
ATOM      1  C   LIG d   1      -3.865  90.592 118.826  0.00  0.00     0.161 C 
ATOM      2  C   LIG d   1      -4.106  90.609 117.442  0.00  0.00     0.016 C 
ATOM      3  C   LIG d   1      -5.323  91.048 116.870  0.00  0.00     0.038 C 
ATOM      4  C   LIG d   1      -6.332  91.645 117.641  0.00  0.00     0.028 C 
ATOM      5  C   LIG d   1      -6.335  91.185 119.095  0.00  0.00    -0.047 C 
ATOM      6  C   LIG d   1      -4.911  91.343 119.675  0.00  0.00     0.091 C 
ENDROOT
BRANCH   1   7
ATOM      7  O   LIG d   1      -2.543  91.098 119.097  0.00  0.00    -0.368 OA
BRANCH   7   8
ATOM      8  C   LIG d   1      -2.006  92.031 118.127  0.00  0.00     0.119 C 
BRANCH   8   9
ATOM      9  C   LIG d   1      -0.470  91.908 118.169  0.00  0.00     0.028 C 
ATOM     10  C   LIG d   1       0.076  90.998 117.056  0.00  0.00     0.006 C 
ENDBRANCH   8   9
BRANCH   8  11
ATOM     11  C   LIG d   1      -2.308  93.480 118.521  0.00  0.00     0.028 C 
ATOM     12  C   LIG d   1      -1.070  94.387 118.447  0.00  0.00     0.006 C 
ENDBRANCH   8  11
ENDBRANCH   7   8
ENDBRANCH   1   7
BRANCH   6  13
ATOM     13  N   LIG d   1      -4.808  90.837 121.068  0.00  0.00    -0.311 N 
ATOM     14  C   LIG d   1      -4.965  91.609 122.142  0.00  0.00     0.210 C 
ATOM     15  C   LIG d   1      -4.797  90.891 123.485  0.00  0.00     0.109 C 
ATOM     16  O   LIG d   1      -5.259  92.814 122.111  0.00  0.00    -0.276 OA
ATOM     17  H   LIG d   1      -4.602  89.864 121.186  0.00  0.00     0.149 HD
ENDBRANCH   6  13
BRANCH   5  18
ATOM     18  N   LIG d   1      -7.345  91.986 119.813  0.00  0.00     0.381 N 
ATOM     19  H   LIG d   1      -8.259  91.762 119.475  0.00  0.00    -0.090 HD
ATOM     20  H   LIG d   1      -7.173  92.960 119.635  0.00  0.00    -0.090 HD
ATOM     21  H   LIG d   1      -7.291  91.805 120.791  0.00  0.00    -0.090 HD
ENDBRANCH   5  18
BRANCH   3  22
ATOM     22  C   LIG d   1      -5.555  90.854 115.517  0.00  0.00     0.382 C 
ATOM     23  O   LIG d   1      -5.834  91.832 114.782  0.00  0.00    -0.241 OA
ATOM     24  O   LIG d   1      -5.533  89.708 115.030  0.00  0.00    -0.241 OA
ENDBRANCH   3  22
TORSDOF 7
ENDMDL
MODEL 6
REMARK VINA RESULT:      -5.1     14.823     17.209
REMARK  7 active torsions:
REMARK  status: ('A' for Active; 'I' for Inactive)
REMARK    1  A    between atoms: C_2  and  C_3 
REMARK    2  A    between atoms: C_3  and  O_6 
REMARK    3  A    between atoms: C_3  and  C_4 
REMARK    4  A    between atoms: C_7  and  O_6 
REMARK    5  A    between atoms: C_9  and  C_10 
REMARK    6  A    between atoms: N_15  and  C_14 
REMARK    7  A    between atoms: N_20  and  C_19 
REMARK       I    between atoms: C_22  and  N_20 
ROOT
ATOM      1  C   LIG d   1      -5.819  75.582 116.350  0.00  0.00     0.161 C 
ATOM      2  C   LIG d   1      -6.353  74.329 116.003  0.00  0.00     0.016 C 
ATOM      3  C   LIG d   1      -7.616  73.872 116.445  0.00  0.00     0.038 C 
ATOM      4  C   LIG d   1      -8.501  74.703 117.146  0.00  0.00     0.028 C 
ATOM      5  C   LIG d   1      -7.801  75.794 117.949  0.00  0.00    -0.047 C 
ATOM      6  C   LIG d   1      -6.818  76.546 117.023  0.00  0.00     0.091 C 
ENDROOT
BRANCH   1   7
ATOM      7  O   LIG d   1      -5.229  76.200 115.190  0.00  0.00    -0.368 OA
BRANCH   7   8
ATOM      8  C   LIG d   1      -3.819  75.942 114.977  0.00  0.00     0.119 C 
BRANCH   8   9
ATOM      9  C   LIG d   1      -3.211  75.547 116.337  0.00  0.00     0.028 C 
ATOM     10  C   LIG d   1      -1.746  75.093 116.215  0.00  0.00     0.006 C 
ENDBRANCH   8   9
BRANCH   8  11
ATOM     11  C   LIG d   1      -3.077  77.214 114.555  0.00  0.00     0.028 C 
ATOM     12  C   LIG d   1      -3.314  78.389 115.518  0.00  0.00     0.006 C 
ENDBRANCH   8  11
ENDBRANCH   7   8
ENDBRANCH   1   7
BRANCH   6  13
ATOM     13  N   LIG d   1      -6.029  77.576 117.749  0.00  0.00    -0.311 N 
ATOM     14  C   LIG d   1      -6.450  78.826 117.933  0.00  0.00     0.210 C 
ATOM     15  C   LIG d   1      -5.473  79.731 118.691  0.00  0.00     0.109 C 
ATOM     16  O   LIG d   1      -7.552  79.263 117.569  0.00  0.00    -0.276 OA
ATOM     17  H   LIG d   1      -5.136  77.298 118.106  0.00  0.00     0.149 HD
ENDBRANCH   6  13
BRANCH   5  18
ATOM     18  N   LIG d   1      -8.844  76.669 118.517  0.00  0.00     0.381 N 
ATOM     19  H   LIG d   1      -8.948  76.481 119.494  0.00  0.00    -0.090 HD
ATOM     20  H   LIG d   1      -9.718  76.471 118.063  0.00  0.00    -0.090 HD
ATOM     21  H   LIG d   1      -8.599  77.625 118.380  0.00  0.00    -0.090 HD
ENDBRANCH   5  18
BRANCH   3  22
ATOM     22  C   LIG d   1      -7.987  72.555 116.220  0.00  0.00     0.382 C 
ATOM     23  O   LIG d   1      -7.168  71.751 115.713  0.00  0.00    -0.241 OA
ATOM     24  O   LIG d   1      -9.144  72.172 116.476  0.00  0.00    -0.241 OA
ENDBRANCH   3  22
TORSDOF 7
ENDMDL
MODEL 7
REMARK VINA RESULT:      -5.0     14.990     17.333
REMARK  7 active torsions:
REMARK  status: ('A' for Active; 'I' for Inactive)
REMARK    1  A    between atoms: C_2  and  C_3 
REMARK    2  A    between atoms: C_3  and  O_6 
REMARK    3  A    between atoms: C_3  and  C_4 
REMARK    4  A    between atoms: C_7  and  O_6 
REMARK    5  A    between atoms: C_9  and  C_10 
REMARK    6  A    between atoms: N_15  and  C_14 
REMARK    7  A    between atoms: N_20  and  C_19 
REMARK       I    between atoms: C_22  and  N_20 
ROOT
ATOM      1  C   LIG d   1      -7.337  75.674 117.543  0.00  0.00     0.161 C 
ATOM      2  C   LIG d   1      -7.993  74.434 117.469  0.00  0.00     0.016 C 
ATOM      3  C   LIG d   1      -7.596  73.394 116.598  0.00  0.00     0.038 C 
ATOM      4  C   LIG d   1      -6.415  73.468 115.844  0.00  0.00     0.028 C 
ATOM      5  C   LIG d   1      -5.999  74.897 115.509  0.00  0.00    -0.047 C 
ATOM      6  C   LIG d   1      -5.980  75.732 116.809  0.00  0.00     0.091 C 
ENDROOT
BRANCH   1   7
ATOM      7  O   LIG d   1      -7.177  76.061 118.922  0.00  0.00    -0.368 OA
BRANCH   7   8
ATOM      8  C   LIG d   1      -8.095  77.071 119.410  0.00  0.00     0.119 C 
BRANCH   8   9
ATOM      9  C   LIG d   1      -8.604  77.863 118.191  0.00  0.00     0.028 C 
ATOM     10  C   LIG d   1      -8.216  79.349 118.252  0.00  0.00     0.006 C 
ENDBRANCH   8   9
BRANCH   8  11
ATOM     11  C   LIG d   1      -7.376  78.098 120.290  0.00  0.00     0.028 C 
ATOM     12  C   LIG d   1      -6.036  77.582 120.836  0.00  0.00     0.006 C 
ENDBRANCH   8  11
ENDBRANCH   7   8
ENDBRANCH   1   7
BRANCH   6  13
ATOM     13  N   LIG d   1      -5.666  77.163 116.559  0.00  0.00    -0.311 N 
ATOM     14  C   LIG d   1      -4.705  77.826 117.201  0.00  0.00     0.210 C 
ATOM     15  C   LIG d   1      -4.560  79.299 116.805  0.00  0.00     0.109 C 
ATOM     16  O   LIG d   1      -3.938  77.325 118.037  0.00  0.00    -0.276 OA
ATOM     17  H   LIG d   1      -6.219  77.639 115.873  0.00  0.00     0.149 HD
ENDBRANCH   6  13
BRANCH   5  18
ATOM     18  N   LIG d   1      -4.685  74.834 114.843  0.00  0.00     0.381 N 
ATOM     19  H   LIG d   1      -4.694  74.120 114.141  0.00  0.00    -0.090 HD
ATOM     20  H   LIG d   1      -3.986  74.597 115.524  0.00  0.00    -0.090 HD
ATOM     21  H   LIG d   1      -4.470  75.714 114.428  0.00  0.00    -0.090 HD
ENDBRANCH   5  18
BRANCH   3  22
ATOM     22  C   LIG d   1      -8.406  72.279 116.445  0.00  0.00     0.382 C 
ATOM     23  O   LIG d   1      -9.654  72.399 116.494  0.00  0.00    -0.241 OA
ATOM     24  O   LIG d   1      -7.903  71.148 116.302  0.00  0.00    -0.241 OA
ENDBRANCH   3  22
TORSDOF 7
ENDMDL
MODEL 8
REMARK VINA RESULT:      -5.0     12.445     14.349
REMARK  7 active torsions:
REMARK  status: ('A' for Active; 'I' for Inactive)
REMARK    1  A    between atoms: C_2  and  C_3 
REMARK    2  A    between atoms: C_3  and  O_6 
REMARK    3  A    between atoms: C_3  and  C_4 
REMARK    4  A    between atoms: C_7  and  O_6 
REMARK    5  A    between atoms: C_9  and  C_10 
REMARK    6  A    between atoms: N_15  and  C_14 
REMARK    7  A    between atoms: N_20  and  C_19 
REMARK       I    between atoms: C_22  and  N_20 
ROOT
ATOM      1  C   LIG d   1      -7.395  78.197 118.295  0.00  0.00     0.161 C 
ATOM      2  C   LIG d   1      -8.592  77.489 118.493  0.00  0.00     0.016 C 
ATOM      3  C   LIG d   1      -9.784  78.091 118.957  0.00  0.00     0.038 C 
ATOM      4  C   LIG d   1      -9.902  79.480 119.113  0.00  0.00     0.028 C 
ATOM      5  C   LIG d   1      -8.575  80.170 119.410  0.00  0.00    -0.047 C 
ATOM      6  C   LIG d   1      -7.534  79.733 118.354  0.00  0.00     0.091 C 
ENDROOT
BRANCH   1   7
ATOM      7  O   LIG d   1      -6.789  77.796 117.050  0.00  0.00    -0.368 OA
BRANCH   7   8
ATOM      8  C   LIG d   1      -6.266  76.446 117.002  0.00  0.00     0.119 C 
BRANCH   8   9
ATOM      9  C   LIG d   1      -4.763  76.544 116.675  0.00  0.00     0.028 C 
ATOM     10  C   LIG d   1      -3.955  77.182 117.817  0.00  0.00     0.006 C 
ENDBRANCH   8   9
BRANCH   8  11
ATOM     11  C   LIG d   1      -6.881  75.651 115.846  0.00  0.00     0.028 C 
ATOM     12  C   LIG d   1      -7.487  74.313 116.299  0.00  0.00     0.006 C 
ENDBRANCH   8  11
ENDBRANCH   7   8
ENDBRANCH   1   7
BRANCH   6  13
ATOM     13  N   LIG d   1      -6.185  80.297 118.620  0.00  0.00    -0.311 N 
ATOM     14  C   LIG d   1      -5.648  81.281 117.901  0.00  0.00     0.210 C 
ATOM     15  C   LIG d   1      -4.238  81.700 118.331  0.00  0.00     0.109 C 
ATOM     16  O   LIG d   1      -6.217  81.868 116.969  0.00  0.00    -0.276 OA
ATOM     17  H   LIG d   1      -5.666  79.900 119.378  0.00  0.00     0.149 HD
ENDBRANCH   6  13
BRANCH   5  18
ATOM     18  N   LIG d   1      -8.820  81.625 119.412  0.00  0.00     0.381 N 
ATOM     19  H   LIG d   1      -8.645  81.999 118.500  0.00  0.00    -0.090 HD
ATOM     20  H   LIG d   1      -8.186  82.061 120.058  0.00  0.00    -0.090 HD
ATOM     21  H   LIG d   1      -9.761  81.812 119.680  0.00  0.00    -0.090 HD
ENDBRANCH   5  18
BRANCH   3  22
ATOM     22  C   LIG d   1     -10.863  77.295 119.310  0.00  0.00     0.382 C 
ATOM     23  O   LIG d   1     -11.294  77.308 120.488  0.00  0.00    -0.241 OA
ATOM     24  O   LIG d   1     -11.383  76.530 118.475  0.00  0.00    -0.241 OA
ENDBRANCH   3  22
TORSDOF 7
ENDMDL
MODEL 9
REMARK VINA RESULT:      -4.9     13.379     16.037
REMARK  7 active torsions:
REMARK  status: ('A' for Active; 'I' for Inactive)
REMARK    1  A    between atoms: C_2  and  C_3 
REMARK    2  A    between atoms: C_3  and  O_6 
REMARK    3  A    between atoms: C_3  and  C_4 
REMARK    4  A    between atoms: C_7  and  O_6 
REMARK    5  A    between atoms: C_9  and  C_10 
REMARK    6  A    between atoms: N_15  and  C_14 
REMARK    7  A    between atoms: N_20  and  C_19 
REMARK       I    between atoms: C_22  and  N_20 
ROOT
ATOM      1  C   LIG d   1      -6.963  77.438 117.595  0.00  0.00     0.161 C 
ATOM      2  C   LIG d   1      -6.202  76.821 116.588  0.00  0.00     0.016 C 
ATOM      3  C   LIG d   1      -6.630  75.674 115.882  0.00  0.00     0.038 C 
ATOM      4  C   LIG d   1      -7.923  75.151 116.031  0.00  0.00     0.028 C 
ATOM      5  C   LIG d   1      -8.538  75.435 117.397  0.00  0.00    -0.047 C 
ATOM      6  C   LIG d   1      -8.423  76.948 117.694  0.00  0.00     0.091 C 
ENDROOT
BRANCH   1   7
ATOM      7  O   LIG d   1      -6.925  78.869 117.430  0.00  0.00    -0.368 OA
BRANCH   7   8
ATOM      8  C   LIG d   1      -5.996  79.585 118.280  0.00  0.00     0.119 C 
BRANCH   8   9
ATOM      9  C   LIG d   1      -6.736  80.813 118.843  0.00  0.00     0.028 C 
ATOM     10  C   LIG d   1      -7.890  81.270 117.936  0.00  0.00     0.006 C 
ENDBRANCH   8   9
BRANCH   8  11
ATOM     11  C   LIG d   1      -4.825  80.152 117.472  0.00  0.00     0.028 C 
ATOM     12  C   LIG d   1      -4.209  81.404 118.115  0.00  0.00     0.006 C 
ENDBRANCH   8  11
ENDBRANCH   7   8
ENDBRANCH   1   7
BRANCH   6  13
ATOM     13  N   LIG d   1      -8.925  77.299 119.048  0.00  0.00    -0.311 N 
ATOM     14  C   LIG d   1      -9.827  78.254 119.271  0.00  0.00     0.210 C 
ATOM     15  C   LIG d   1     -10.191  78.468 120.743  0.00  0.00     0.109 C 
ATOM     16  O   LIG d   1     -10.383  78.921 118.386  0.00  0.00    -0.276 OA
ATOM     17  H   LIG d   1      -8.550  76.786 119.821  0.00  0.00     0.149 HD
ENDBRANCH   6  13
BRANCH   5  18
ATOM     18  N   LIG d   1      -9.933  74.956 117.367  0.00  0.00     0.381 N 
ATOM     19  H   LIG d   1     -10.451  75.465 116.678  0.00  0.00    -0.090 HD
ATOM     20  H   LIG d   1     -10.353  75.123 118.264  0.00  0.00    -0.090 HD
ATOM     21  H   LIG d   1      -9.955  73.983 117.157  0.00  0.00    -0.090 HD
ENDBRANCH   5  18
BRANCH   3  22
ATOM     22  C   LIG d   1      -5.745  75.013 115.043  0.00  0.00     0.382 C 
ATOM     23  O   LIG d   1      -5.907  73.794 114.797  0.00  0.00    -0.241 OA
ATOM     24  O   LIG d   1      -4.762  75.611 114.566  0.00  0.00    -0.241 OA
ENDBRANCH   3  22
TORSDOF 7
ENDMDL
