MODEL 1
REMARK VINA RESULT:      -6.4      0.000      0.000
REMARK  7 active torsions:
REMARK  status: ('A' for Active; 'I' for Inactive)
REMARK    1  A    between atoms: C_2  and  C_3 
REMARK    2  A    between atoms: C_3  and  O_6 
REMARK    3  A    between atoms: C_3  and  C_4 
REMARK    4  A    between atoms: C_7  and  O_6 
REMARK    5  A    between atoms: C_9  and  C_10 
REMARK    6  A    between atoms: N_15  and  C_14 
REMARK    7  A    between atoms: N_20  and  C_19 
REMARK       I    between atoms: C_22  and  N_20 
ROOT
ATOM      1  C   LIG d   1       1.357  81.875 111.904  0.00  0.00     0.161 C 
ATOM      2  C   LIG d   1       2.424  82.351 111.124  0.00  0.00     0.016 C 
ATOM      3  C   LIG d   1       2.566  82.071 109.746  0.00  0.00     0.038 C 
ATOM      4  C   LIG d   1       1.563  81.417 109.015  0.00  0.00     0.028 C 
ATOM      5  C   LIG d   1       0.708  80.482 109.863  0.00  0.00    -0.047 C 
ATOM      6  C   LIG d   1       0.195  81.254 111.100  0.00  0.00     0.091 C 
ENDROOT
BRANCH   1   7
ATOM      7  O   LIG d   1       0.868  82.929 112.758  0.00  0.00    -0.368 OA
BRANCH   7   8
ATOM      8  C   LIG d   1       0.925  84.270 112.212  0.00  0.00     0.119 C 
BRANCH   8   9
ATOM      9  C   LIG d   1       1.419  85.205 113.332  0.00  0.00     0.028 C 
ATOM     10  C   LIG d   1       2.590  86.094 112.881  0.00  0.00     0.006 C 
ENDBRANCH   8   9
BRANCH   8  11
ATOM     11  C   LIG d   1      -0.471  84.781 111.843  0.00  0.00     0.028 C 
ATOM     12  C   LIG d   1      -0.593  85.162 110.359  0.00  0.00     0.006 C 
ENDBRANCH   8  11
ENDBRANCH   7   8
ENDBRANCH   1   7
BRANCH   6  13
ATOM     13  N   LIG d   1      -0.581  80.389 112.027  0.00  0.00    -0.311 N 
ATOM     14  C   LIG d   1      -1.705  80.779 112.625  0.00  0.00     0.210 C 
ATOM     15  C   LIG d   1      -2.336  79.739 113.557  0.00  0.00     0.109 C 
ATOM     16  O   LIG d   1      -2.258  81.875 112.446  0.00  0.00    -0.276 OA
ATOM     17  H   LIG d   1      -0.221  79.472 112.204  0.00  0.00     0.149 HD
ENDBRANCH   6  13
BRANCH   5  18
ATOM     18  N   LIG d   1      -0.381  79.974 109.007  0.00  0.00     0.381 N 
ATOM     19  H   LIG d   1      -0.178  79.037 108.720  0.00  0.00    -0.090 HD
ATOM     20  H   LIG d   1      -0.443  80.549 108.184  0.00  0.00    -0.090 HD
ATOM     21  H   LIG d   1      -1.244  79.998 109.503  0.00  0.00    -0.090 HD
ENDBRANCH   5  18
BRANCH   3  22
ATOM     22  C   LIG d   1       3.741  82.412 109.093  0.00  0.00     0.382 C 
ATOM     23  O   LIG d   1       3.958  81.989 107.932  0.00  0.00    -0.241 OA
ATOM     24  O   LIG d   1       4.605  83.101 109.666  0.00  0.00    -0.241 OA
ENDBRANCH   3  22
TORSDOF 7
ENDMDL
MODEL 2
REMARK VINA RESULT:      -6.2      2.986      3.829
REMARK  7 active torsions:
REMARK  status: ('A' for Active; 'I' for Inactive)
REMARK    1  A    between atoms: C_2  and  C_3 
REMARK    2  A    between atoms: C_3  and  O_6 
REMARK    3  A    between atoms: C_3  and  C_4 
REMARK    4  A    between atoms: C_7  and  O_6 
REMARK    5  A    between atoms: C_9  and  C_10 
REMARK    6  A    between atoms: N_15  and  C_14 
REMARK    7  A    between atoms: N_20  and  C_19 
REMARK       I    between atoms: C_22  and  N_20 
ROOT
ATOM      1  C   LIG d   1       1.872  82.794 110.921  0.00  0.00     0.161 C 
ATOM      2  C   LIG d   1       2.778  81.731 110.776  0.00  0.00     0.016 C 
ATOM      3  C   LIG d   1       3.204  81.236 109.522  0.00  0.00     0.038 C 
ATOM      4  C   LIG d   1       2.867  81.875 108.320  0.00  0.00     0.028 C 
ATOM      5  C   LIG d   1       1.551  82.643 108.390  0.00  0.00    -0.047 C 
ATOM      6  C   LIG d   1       1.580  83.576 109.622  0.00  0.00     0.091 C 
ENDROOT
BRANCH   1   7
ATOM      7  O   LIG d   1       2.331  83.690 111.952  0.00  0.00    -0.368 OA
BRANCH   7   8
ATOM      8  C   LIG d   1       3.762  83.908 112.017  0.00  0.00     0.119 C 
BRANCH   8   9
ATOM      9  C   LIG d   1       4.130  84.122 113.498  0.00  0.00     0.028 C 
ATOM     10  C   LIG d   1       3.289  83.249 114.445  0.00  0.00     0.006 C 
ENDBRANCH   8   9
BRANCH   8  11
ATOM     11  C   LIG d   1       4.162  85.205 111.308  0.00  0.00     0.028 C 
ATOM     12  C   LIG d   1       4.074  86.436 112.224  0.00  0.00     0.006 C 
ENDBRANCH   8  11
ENDBRANCH   7   8
ENDBRANCH   1   7
BRANCH   6  13
ATOM     13  N   LIG d   1       0.297  84.302 109.814  0.00  0.00    -0.311 N 
ATOM     14  C   LIG d   1       0.225  85.604 110.084  0.00  0.00     0.210 C 
ATOM     15  C   LIG d   1      -1.195  86.149 110.264  0.00  0.00     0.109 C 
ATOM     16  O   LIG d   1       1.201  86.365 110.160  0.00  0.00    -0.276 OA
ATOM     17  H   LIG d   1      -0.546  83.766 109.738  0.00  0.00     0.149 HD
ENDBRANCH   6  13
BRANCH   5  18
ATOM     18  N   LIG d   1       1.391  83.371 107.117  0.00  0.00     0.381 N 
ATOM     19  H   LIG d   1       2.277  83.451 106.659  0.00  0.00    -0.090 HD
ATOM     20  H   LIG d   1       1.052  84.297 107.313  0.00  0.00    -0.090 HD
ATOM     21  H   LIG d   1       0.746  82.891 106.529  0.00  0.00    -0.090 HD
ENDBRANCH   5  18
BRANCH   3  22
ATOM     22  C   LIG d   1       3.945  80.066 109.460  0.00  0.00     0.382 C 
ATOM     23  O   LIG d   1       3.361  78.957 109.396  0.00  0.00    -0.241 OA
ATOM     24  O   LIG d   1       5.189  80.102 109.513  0.00  0.00    -0.241 OA
ENDBRANCH   3  22
TORSDOF 7
ENDMDL
MODEL 3
REMARK VINA RESULT:      -6.0      1.673      5.013
REMARK  7 active torsions:
REMARK  status: ('A' for Active; 'I' for Inactive)
REMARK    1  A    between atoms: C_2  and  C_3 
REMARK    2  A    between atoms: C_3  and  O_6 
REMARK    3  A    between atoms: C_3  and  C_4 
REMARK    4  A    between atoms: C_7  and  O_6 
REMARK    5  A    between atoms: C_9  and  C_10 
REMARK    6  A    between atoms: N_15  and  C_14 
REMARK    7  A    between atoms: N_20  and  C_19 
REMARK       I    between atoms: C_22  and  N_20 
ROOT
ATOM      1  C   LIG d   1       0.292  82.237 111.081  0.00  0.00     0.161 C 
ATOM      2  C   LIG d   1      -0.785  82.038 111.961  0.00  0.00     0.016 C 
ATOM      3  C   LIG d   1      -1.380  80.776 112.191  0.00  0.00     0.038 C 
ATOM      4  C   LIG d   1      -0.836  79.594 111.666  0.00  0.00     0.028 C 
ATOM      5  C   LIG d   1      -0.058  79.807 110.372  0.00  0.00    -0.047 C 
ATOM      6  C   LIG d   1       0.970  80.942 110.586  0.00  0.00     0.091 C 
ENDROOT
BRANCH   1   7
ATOM      7  O   LIG d   1       1.265  83.110 111.689  0.00  0.00    -0.368 OA
BRANCH   7   8
ATOM      8  C   LIG d   1       1.353  84.447 111.137  0.00  0.00     0.119 C 
BRANCH   8   9
ATOM      9  C   LIG d   1       0.375  84.523 109.949  0.00  0.00     0.028 C 
ATOM     10  C   LIG d   1      -0.601  85.706 110.067  0.00  0.00     0.006 C 
ENDBRANCH   8   9
BRANCH   8  11
ATOM     11  C   LIG d   1       2.738  84.713 110.540  0.00  0.00     0.028 C 
ATOM     12  C   LIG d   1       3.725  85.299 111.562  0.00  0.00     0.006 C 
ENDBRANCH   8  11
ENDBRANCH   7   8
ENDBRANCH   1   7
BRANCH   6  13
ATOM     13  N   LIG d   1       1.716  81.272 109.344  0.00  0.00    -0.311 N 
ATOM     14  C   LIG d   1       3.043  81.368 109.289  0.00  0.00     0.210 C 
ATOM     15  C   LIG d   1       3.609  81.737 107.915  0.00  0.00     0.109 C 
ATOM     16  O   LIG d   1       3.808  81.150 110.242  0.00  0.00    -0.276 OA
ATOM     17  H   LIG d   1       1.176  81.433 108.516  0.00  0.00     0.149 HD
ENDBRANCH   6  13
BRANCH   5  18
ATOM     18  N   LIG d   1       0.568  78.520 110.012  0.00  0.00     0.381 N 
ATOM     19  H   LIG d   1       1.204  78.654 109.251  0.00  0.00    -0.090 HD
ATOM     20  H   LIG d   1      -0.149  77.882 109.716  0.00  0.00    -0.090 HD
ATOM     21  H   LIG d   1       1.053  78.145 110.798  0.00  0.00    -0.090 HD
ENDBRANCH   5  18
BRANCH   3  22
ATOM     22  C   LIG d   1      -2.556  80.693 112.920  0.00  0.00     0.382 C 
ATOM     23  O   LIG d   1      -3.435  81.579 112.795  0.00  0.00    -0.241 OA
ATOM     24  O   LIG d   1      -2.730  79.767 113.735  0.00  0.00    -0.241 OA
ENDBRANCH   3  22
TORSDOF 7
ENDMDL
MODEL 4
REMARK VINA RESULT:      -5.9      2.456      4.865
REMARK  7 active torsions:
REMARK  status: ('A' for Active; 'I' for Inactive)
REMARK    1  A    between atoms: C_2  and  C_3 
REMARK    2  A    between atoms: C_3  and  O_6 
REMARK    3  A    between atoms: C_3  and  C_4 
REMARK    4  A    between atoms: C_7  and  O_6 
REMARK    5  A    between atoms: C_9  and  C_10 
REMARK    6  A    between atoms: N_15  and  C_14 
REMARK    7  A    between atoms: N_20  and  C_19 
REMARK       I    between atoms: C_22  and  N_20 
ROOT
ATOM      1  C   LIG d   1       2.381  84.165 110.198  0.00  0.00     0.161 C 
ATOM      2  C   LIG d   1       1.329  85.052 110.479  0.00  0.00     0.016 C 
ATOM      3  C   LIG d   1       0.080  84.639 110.996  0.00  0.00     0.038 C 
ATOM      4  C   LIG d   1      -0.151  83.320 111.413  0.00  0.00     0.028 C 
ATOM      5  C   LIG d   1       0.708  82.295 110.680  0.00  0.00    -0.047 C 
ATOM      6  C   LIG d   1       2.188  82.737 110.750  0.00  0.00     0.091 C 
ENDROOT
BRANCH   1   7
ATOM      7  O   LIG d   1       3.626  84.719 110.668  0.00  0.00    -0.368 OA
BRANCH   7   8
ATOM      8  C   LIG d   1       3.561  85.481 111.899  0.00  0.00     0.119 C 
BRANCH   8   9
ATOM      9  C   LIG d   1       4.510  86.685 111.749  0.00  0.00     0.028 C 
ATOM     10  C   LIG d   1       4.189  87.814 112.743  0.00  0.00     0.006 C 
ENDBRANCH   8   9
BRANCH   8  11
ATOM     11  C   LIG d   1       4.109  84.677 113.082  0.00  0.00     0.028 C 
ATOM     12  C   LIG d   1       3.010  84.233 114.060  0.00  0.00     0.006 C 
ENDBRANCH   8  11
ENDBRANCH   7   8
ENDBRANCH   1   7
BRANCH   6  13
ATOM     13  N   LIG d   1       3.086  81.834 109.985  0.00  0.00    -0.311 N 
ATOM     14  C   LIG d   1       4.272  81.427 110.435  0.00  0.00     0.210 C 
ATOM     15  C   LIG d   1       5.048  80.514 109.480  0.00  0.00     0.109 C 
ATOM     16  O   LIG d   1       4.742  81.710 111.548  0.00  0.00    -0.276 OA
ATOM     17  H   LIG d   1       2.770  81.530 109.085  0.00  0.00     0.149 HD
ENDBRANCH   6  13
BRANCH   5  18
ATOM     18  N   LIG d   1       0.467  80.981 111.306  0.00  0.00     0.381 N 
ATOM     19  H   LIG d   1       0.771  80.252 110.692  0.00  0.00    -0.090 HD
ATOM     20  H   LIG d   1      -0.520  80.872 111.462  0.00  0.00    -0.090 HD
ATOM     21  H   LIG d   1       0.956  80.922 112.172  0.00  0.00    -0.090 HD
ENDBRANCH   5  18
BRANCH   3  22
ATOM     22  C   LIG d   1      -0.969  85.544 111.064  0.00  0.00     0.382 C 
ATOM     23  O   LIG d   1      -1.584  85.870 110.021  0.00  0.00    -0.241 OA
ATOM     24  O   LIG d   1      -1.279  86.072 112.149  0.00  0.00    -0.241 OA
ENDBRANCH   3  22
TORSDOF 7
ENDMDL
MODEL 5
REMARK VINA RESULT:      -5.9      2.697      3.612
REMARK  7 active torsions:
REMARK  status: ('A' for Active; 'I' for Inactive)
REMARK    1  A    between atoms: C_2  and  C_3 
REMARK    2  A    between atoms: C_3  and  O_6 
REMARK    3  A    between atoms: C_3  and  C_4 
REMARK    4  A    between atoms: C_7  and  O_6 
REMARK    5  A    between atoms: C_9  and  C_10 
REMARK    6  A    between atoms: N_15  and  C_14 
REMARK    7  A    between atoms: N_20  and  C_19 
REMARK       I    between atoms: C_22  and  N_20 
ROOT
ATOM      1  C   LIG d   1       1.662  82.546 110.500  0.00  0.00     0.161 C 
ATOM      2  C   LIG d   1       2.629  82.857 111.470  0.00  0.00     0.016 C 
ATOM      3  C   LIG d   1       4.009  82.596 111.304  0.00  0.00     0.038 C 
ATOM      4  C   LIG d   1       4.537  82.141 110.087  0.00  0.00     0.028 C 
ATOM      5  C   LIG d   1       3.540  81.339 109.257  0.00  0.00    -0.047 C 
ATOM      6  C   LIG d   1       2.232  82.151 109.121  0.00  0.00     0.091 C 
ENDROOT
BRANCH   1   7
ATOM      7  O   LIG d   1       0.735  83.642 110.364  0.00  0.00    -0.368 OA
BRANCH   7   8
ATOM      8  C   LIG d   1       0.905  84.739 111.295  0.00  0.00     0.119 C 
BRANCH   8   9
ATOM      9  C   LIG d   1      -0.499  85.186 111.745  0.00  0.00     0.028 C 
ATOM     10  C   LIG d   1      -1.068  86.309 110.862  0.00  0.00     0.006 C 
ENDBRANCH   8   9
BRANCH   8  11
ATOM     11  C   LIG d   1       1.520  85.962 110.608  0.00  0.00     0.028 C 
ATOM     12  C   LIG d   1       2.651  86.601 111.429  0.00  0.00     0.006 C 
ENDBRANCH   8  11
ENDBRANCH   7   8
ENDBRANCH   1   7
BRANCH   6  13
ATOM     13  N   LIG d   1       1.173  81.403 108.394  0.00  0.00    -0.311 N 
ATOM     14  C   LIG d   1       0.759  80.188 108.748  0.00  0.00     0.210 C 
ATOM     15  C   LIG d   1      -0.328  79.588 107.851  0.00  0.00     0.109 C 
ATOM     16  O   LIG d   1       1.166  79.563 109.739  0.00  0.00    -0.276 OA
ATOM     17  H   LIG d   1       0.766  81.849 107.595  0.00  0.00     0.149 HD
ENDBRANCH   6  13
BRANCH   5  18
ATOM     18  N   LIG d   1       4.176  81.046 107.958  0.00  0.00     0.381 N 
ATOM     19  H   LIG d   1       5.091  80.671 108.106  0.00  0.00    -0.090 HD
ATOM     20  H   LIG d   1       4.267  81.903 107.440  0.00  0.00    -0.090 HD
ATOM     21  H   LIG d   1       3.621  80.397 107.446  0.00  0.00    -0.090 HD
ENDBRANCH   5  18
BRANCH   3  22
ATOM     22  C   LIG d   1       4.871  82.753 112.379  0.00  0.00     0.382 C 
ATOM     23  O   LIG d   1       5.313  81.745 112.981  0.00  0.00    -0.241 OA
ATOM     24  O   LIG d   1       5.178  83.891 112.782  0.00  0.00    -0.241 OA
ENDBRANCH   3  22
TORSDOF 7
ENDMDL
MODEL 6
REMARK VINA RESULT:      -5.7      3.243      4.801
REMARK  7 active torsions:
REMARK  status: ('A' for Active; 'I' for Inactive)
REMARK    1  A    between atoms: C_2  and  C_3 
REMARK    2  A    between atoms: C_3  and  O_6 
REMARK    3  A    between atoms: C_3  and  C_4 
REMARK    4  A    between atoms: C_7  and  O_6 
REMARK    5  A    between atoms: C_9  and  C_10 
REMARK    6  A    between atoms: N_15  and  C_14 
REMARK    7  A    between atoms: N_20  and  C_19 
REMARK       I    between atoms: C_22  and  N_20 
ROOT
ATOM      1  C   LIG d   1       3.367  84.911 110.832  0.00  0.00     0.161 C 
ATOM      2  C   LIG d   1       3.577  83.833 109.956  0.00  0.00     0.016 C 
ATOM      3  C   LIG d   1       4.074  82.576 110.373  0.00  0.00     0.038 C 
ATOM      4  C   LIG d   1       4.253  82.263 111.729  0.00  0.00     0.028 C 
ATOM      5  C   LIG d   1       4.534  83.482 112.600  0.00  0.00    -0.047 C 
ATOM      6  C   LIG d   1       3.452  84.552 112.330  0.00  0.00     0.091 C 
ENDROOT
BRANCH   1   7
ATOM      7  O   LIG d   1       2.105  85.541 110.538  0.00  0.00    -0.368 OA
BRANCH   7   8
ATOM      8  C   LIG d   1       1.058  84.670 110.043  0.00  0.00     0.119 C 
BRANCH   8   9
ATOM      9  C   LIG d   1       0.123  85.523 109.164  0.00  0.00     0.028 C 
ATOM     10  C   LIG d   1      -1.201  85.859 109.870  0.00  0.00     0.006 C 
ENDBRANCH   8   9
BRANCH   8  11
ATOM     11  C   LIG d   1       0.179  84.150 111.184  0.00  0.00     0.028 C 
ATOM     12  C   LIG d   1       0.234  82.621 111.330  0.00  0.00     0.006 C 
ENDBRANCH   8  11
ENDBRANCH   7   8
ENDBRANCH   1   7
BRANCH   6  13
ATOM     13  N   LIG d   1       3.700  85.811 113.081  0.00  0.00    -0.311 N 
ATOM     14  C   LIG d   1       2.752  86.462 113.754  0.00  0.00     0.210 C 
ATOM     15  C   LIG d   1       3.217  87.750 114.441  0.00  0.00     0.109 C 
ATOM     16  O   LIG d   1       1.580  86.078 113.874  0.00  0.00    -0.276 OA
ATOM     17  H   LIG d   1       4.631  86.177 113.062  0.00  0.00     0.149 HD
ENDBRANCH   6  13
BRANCH   5  18
ATOM     18  N   LIG d   1       4.562  83.030 114.004  0.00  0.00     0.381 N 
ATOM     19  H   LIG d   1       3.872  83.524 114.533  0.00  0.00    -0.090 HD
ATOM     20  H   LIG d   1       5.466  83.235 114.394  0.00  0.00    -0.090 HD
ATOM     21  H   LIG d   1       4.388  82.050 114.050  0.00  0.00    -0.090 HD
ENDBRANCH   5  18
BRANCH   3  22
ATOM     22  C   LIG d   1       4.435  81.631 109.425  0.00  0.00     0.382 C 
ATOM     23  O   LIG d   1       4.205  81.842 108.210  0.00  0.00    -0.241 OA
ATOM     24  O   LIG d   1       4.947  80.550 109.774  0.00  0.00    -0.241 OA
ENDBRANCH   3  22
TORSDOF 7
ENDMDL
MODEL 7
REMARK VINA RESULT:      -5.7      3.079      5.518
REMARK  7 active torsions:
REMARK  status: ('A' for Active; 'I' for Inactive)
REMARK    1  A    between atoms: C_2  and  C_3 
REMARK    2  A    between atoms: C_3  and  O_6 
REMARK    3  A    between atoms: C_3  and  C_4 
REMARK    4  A    between atoms: C_7  and  O_6 
REMARK    5  A    between atoms: C_9  and  C_10 
REMARK    6  A    between atoms: N_15  and  C_14 
REMARK    7  A    between atoms: N_20  and  C_19 
REMARK       I    between atoms: C_22  and  N_20 
ROOT
ATOM      1  C   LIG d   1       1.266  82.877 111.722  0.00  0.00     0.161 C 
ATOM      2  C   LIG d   1       0.485  83.508 110.740  0.00  0.00     0.016 C 
ATOM      3  C   LIG d   1       0.762  84.799 110.235  0.00  0.00     0.038 C 
ATOM      4  C   LIG d   1       1.935  85.490 110.572  0.00  0.00     0.028 C 
ATOM      5  C   LIG d   1       2.492  85.109 111.940  0.00  0.00    -0.047 C 
ATOM      6  C   LIG d   1       2.613  83.570 112.021  0.00  0.00     0.091 C 
ENDROOT
BRANCH   1   7
ATOM      7  O   LIG d   1       1.482  81.498 111.364  0.00  0.00    -0.368 OA
BRANCH   7   8
ATOM      8  C   LIG d   1       1.531  81.207 109.946  0.00  0.00     0.119 C 
BRANCH   8   9
ATOM      9  C   LIG d   1       0.690  79.939 109.703  0.00  0.00     0.028 C 
ATOM     10  C   LIG d   1       0.439  79.679 108.208  0.00  0.00     0.006 C 
ENDBRANCH   8   9
BRANCH   8  11
ATOM     11  C   LIG d   1       2.951  80.844 109.500  0.00  0.00     0.028 C 
ATOM     12  C   LIG d   1       3.600  81.934 108.632  0.00  0.00     0.006 C 
ENDBRANCH   8  11
ENDBRANCH   7   8
ENDBRANCH   1   7
BRANCH   6  13
ATOM     13  N   LIG d   1       3.070  83.107 113.357  0.00  0.00    -0.311 N 
ATOM     14  C   LIG d   1       4.347  82.873 113.654  0.00  0.00     0.210 C 
ATOM     15  C   LIG d   1       4.600  82.382 115.083  0.00  0.00     0.109 C 
ATOM     16  O   LIG d   1       5.299  83.057 112.879  0.00  0.00    -0.276 OA
ATOM     17  H   LIG d   1       2.367  82.962 114.055  0.00  0.00     0.149 HD
ENDBRANCH   6  13
BRANCH   5  18
ATOM     18  N   LIG d   1       3.785  85.800 112.104  0.00  0.00     0.381 N 
ATOM     19  H   LIG d   1       3.641  86.689 112.538  0.00  0.00    -0.090 HD
ATOM     20  H   LIG d   1       4.188  85.953 111.196  0.00  0.00    -0.090 HD
ATOM     21  H   LIG d   1       4.399  85.246 112.659  0.00  0.00    -0.090 HD
ENDBRANCH   5  18
BRANCH   3  22
ATOM     22  C   LIG d   1      -0.160  85.428 109.413  0.00  0.00     0.382 C 
ATOM     23  O   LIG d   1      -1.325  85.643 109.828  0.00  0.00    -0.241 OA
ATOM     24  O   LIG d   1       0.144  85.744 108.248  0.00  0.00    -0.241 OA
ENDBRANCH   3  22
TORSDOF 7
ENDMDL
MODEL 8
REMARK VINA RESULT:      -5.6      3.309      4.393
REMARK  7 active torsions:
REMARK  status: ('A' for Active; 'I' for Inactive)
REMARK    1  A    between atoms: C_2  and  C_3 
REMARK    2  A    between atoms: C_3  and  O_6 
REMARK    3  A    between atoms: C_3  and  C_4 
REMARK    4  A    between atoms: C_7  and  O_6 
REMARK    5  A    between atoms: C_9  and  C_10 
REMARK    6  A    between atoms: N_15  and  C_14 
REMARK    7  A    between atoms: N_20  and  C_19 
REMARK       I    between atoms: C_22  and  N_20 
ROOT
ATOM      1  C   LIG d   1       2.843  85.441 111.350  0.00  0.00     0.161 C 
ATOM      2  C   LIG d   1       3.815  84.447 111.549  0.00  0.00     0.016 C 
ATOM      3  C   LIG d   1       3.955  83.316 110.712  0.00  0.00     0.038 C 
ATOM      4  C   LIG d   1       3.225  83.179 109.523  0.00  0.00     0.028 C 
ATOM      5  C   LIG d   1       1.883  83.903 109.549  0.00  0.00    -0.047 C 
ATOM      6  C   LIG d   1       2.110  85.366 109.994  0.00  0.00     0.091 C 
ENDROOT
BRANCH   1   7
ATOM      7  O   LIG d   1       3.432  86.744 111.529  0.00  0.00    -0.368 OA
BRANCH   7   8
ATOM      8  C   LIG d   1       3.981  87.021 112.841  0.00  0.00     0.119 C 
BRANCH   8   9
ATOM      9  C   LIG d   1       2.799  87.320 113.784  0.00  0.00     0.028 C 
ATOM     10  C   LIG d   1       2.754  86.365 114.989  0.00  0.00     0.006 C 
ENDBRANCH   8   9
BRANCH   8  11
ATOM     11  C   LIG d   1       4.827  88.297 112.833  0.00  0.00     0.028 C 
ATOM     12  C   LIG d   1       4.095  89.500 113.449  0.00  0.00     0.006 C 
ENDBRANCH   8  11
ENDBRANCH   7   8
ENDBRANCH   1   7
BRANCH   6  13
ATOM     13  N   LIG d   1       0.837  86.122 110.128  0.00  0.00    -0.311 N 
ATOM     14  C   LIG d   1      -0.153  85.752 110.937  0.00  0.00     0.210 C 
ATOM     15  C   LIG d   1      -1.386  86.661 110.909  0.00  0.00     0.109 C 
ATOM     16  O   LIG d   1      -0.116  84.775 111.701  0.00  0.00    -0.276 OA
ATOM     17  H   LIG d   1       0.735  86.945 109.568  0.00  0.00     0.149 HD
ENDBRANCH   6  13
BRANCH   5  18
ATOM     18  N   LIG d   1       1.290  83.793 108.203  0.00  0.00     0.381 N 
ATOM     19  H   LIG d   1       1.202  84.703 107.797  0.00  0.00    -0.090 HD
ATOM     20  H   LIG d   1       0.372  83.393 108.283  0.00  0.00    -0.090 HD
ATOM     21  H   LIG d   1       1.862  83.217 107.625  0.00  0.00    -0.090 HD
ENDBRANCH   5  18
BRANCH   3  22
ATOM     22  C   LIG d   1       4.807  82.287 111.085  0.00  0.00     0.382 C 
ATOM     23  O   LIG d   1       5.052  81.355 110.282  0.00  0.00    -0.241 OA
ATOM     24  O   LIG d   1       5.298  82.256 112.229  0.00  0.00    -0.241 OA
ENDBRANCH   3  22
TORSDOF 7
ENDMDL
MODEL 9
REMARK VINA RESULT:      -5.5      2.718      4.394
REMARK  7 active torsions:
REMARK  status: ('A' for Active; 'I' for Inactive)
REMARK    1  A    between atoms: C_2  and  C_3 
REMARK    2  A    between atoms: C_3  and  O_6 
REMARK    3  A    between atoms: C_3  and  C_4 
REMARK    4  A    between atoms: C_7  and  O_6 
REMARK    5  A    between atoms: C_9  and  C_10 
REMARK    6  A    between atoms: N_15  and  C_14 
REMARK    7  A    between atoms: N_20  and  C_19 
REMARK       I    between atoms: C_22  and  N_20 
ROOT
ATOM      1  C   LIG d   1       1.856  83.434 112.204  0.00  0.00     0.161 C 
ATOM      2  C   LIG d   1       2.570  84.061 113.239  0.00  0.00     0.016 C 
ATOM      3  C   LIG d   1       3.973  83.963 113.386  0.00  0.00     0.038 C 
ATOM      4  C   LIG d   1       4.780  83.353 112.415  0.00  0.00     0.028 C 
ATOM      5  C   LIG d   1       4.056  82.274 111.617  0.00  0.00    -0.047 C 
ATOM      6  C   LIG d   1       2.732  82.856 111.072  0.00  0.00     0.091 C 
ENDROOT
BRANCH   1   7
ATOM      7  O   LIG d   1       0.877  84.344 111.665  0.00  0.00    -0.368 OA
BRANCH   7   8
ATOM      8  C   LIG d   1       1.353  85.266 110.653  0.00  0.00     0.119 C 
BRANCH   8   9
ATOM      9  C   LIG d   1       1.244  86.689 111.235  0.00  0.00     0.028 C 
ATOM     10  C   LIG d   1       2.587  87.204 111.780  0.00  0.00     0.006 C 
ENDBRANCH   8   9
BRANCH   8  11
ATOM     11  C   LIG d   1       0.442  85.261 109.422  0.00  0.00     0.028 C 
ATOM     12  C   LIG d   1      -1.005  85.663 109.750  0.00  0.00     0.006 C 
ENDBRANCH   8  11
ENDBRANCH   7   8
ENDBRANCH   1   7
BRANCH   6  13
ATOM     13  N   LIG d   1       1.921  81.841 110.350  0.00  0.00    -0.311 N 
ATOM     14  C   LIG d   1       1.985  81.655 109.033  0.00  0.00     0.210 C 
ATOM     15  C   LIG d   1       1.050  80.570 108.487  0.00  0.00     0.109 C 
ATOM     16  O   LIG d   1       2.750  82.261 108.268  0.00  0.00    -0.276 OA
ATOM     17  H   LIG d   1       1.296  81.283 110.897  0.00  0.00     0.149 HD
ENDBRANCH   6  13
BRANCH   5  18
ATOM     18  N   LIG d   1       4.969  81.819 110.551  0.00  0.00     0.381 N 
ATOM     19  H   LIG d   1       4.782  80.862 110.330  0.00  0.00    -0.090 HD
ATOM     20  H   LIG d   1       5.915  81.887 110.883  0.00  0.00    -0.090 HD
ATOM     21  H   LIG d   1       4.854  82.385 109.739  0.00  0.00    -0.090 HD
ENDBRANCH   5  18
BRANCH   3  22
ATOM     22  C   LIG d   1       4.578  84.447 114.536  0.00  0.00     0.382 C 
ATOM     23  O   LIG d   1       4.257  85.572 114.989  0.00  0.00    -0.241 OA
ATOM     24  O   LIG d   1       5.473  83.791 115.102  0.00  0.00    -0.241 OA
ENDBRANCH   3  22
TORSDOF 7
ENDMDL
