MODEL 1
REMARK VINA RESULT:      -5.3      0.000      0.000
REMARK  7 active torsions:
REMARK  status: ('A' for Active; 'I' for Inactive)
REMARK    1  A    between atoms: C_2  and  C_3 
REMARK    2  A    between atoms: C_3  and  O_6 
REMARK    3  A    between atoms: C_3  and  C_4 
REMARK    4  A    between atoms: C_7  and  O_6 
REMARK    5  A    between atoms: C_9  and  C_10 
REMARK    6  A    between atoms: N_15  and  C_14 
REMARK    7  A    between atoms: N_20  and  C_19 
REMARK       I    between atoms: C_22  and  N_20 
ROOT
ATOM      1  C   LIG d   1      -4.854  75.819 115.978  0.00  0.00     0.161 C 
ATOM      2  C   LIG d   1      -3.722  75.045 115.674  0.00  0.00     0.016 C 
ATOM      3  C   LIG d   1      -2.540  75.057 116.449  0.00  0.00     0.038 C 
ATOM      4  C   LIG d   1      -2.464  75.735 117.675  0.00  0.00     0.028 C 
ATOM      5  C   LIG d   1      -3.405  76.932 117.765  0.00  0.00    -0.047 C 
ATOM      6  C   LIG d   1      -4.830  76.480 117.373  0.00  0.00     0.091 C 
ENDROOT
BRANCH   1   7
ATOM      7  O   LIG d   1      -6.046  75.025 115.821  0.00  0.00    -0.368 OA
BRANCH   7   8
ATOM      8  C   LIG d   1      -6.333  74.088 116.888  0.00  0.00     0.119 C 
BRANCH   8   9
ATOM      9  C   LIG d   1      -6.459  72.689 116.254  0.00  0.00     0.028 C 
ATOM     10  C   LIG d   1      -7.473  71.799 116.993  0.00  0.00     0.006 C 
ENDBRANCH   8   9
BRANCH   8  11
ATOM     11  C   LIG d   1      -7.697  74.369 117.524  0.00  0.00     0.028 C 
ATOM     12  C   LIG d   1      -8.542  75.362 116.710  0.00  0.00     0.006 C 
ENDBRANCH   8  11
ENDBRANCH   7   8
ENDBRANCH   1   7
BRANCH   6  13
ATOM     13  N   LIG d   1      -5.797  77.608 117.352  0.00  0.00    -0.311 N 
ATOM     14  C   LIG d   1      -6.582  77.920 118.382  0.00  0.00     0.210 C 
ATOM     15  C   LIG d   1      -7.521  79.107 118.144  0.00  0.00     0.109 C 
ATOM     16  O   LIG d   1      -6.568  77.345 119.481  0.00  0.00    -0.276 OA
ATOM     17  H   LIG d   1      -5.852  78.147 116.510  0.00  0.00     0.149 HD
ENDBRANCH   6  13
BRANCH   5  18
ATOM     18  N   LIG d   1      -3.324  77.461 119.139  0.00  0.00     0.381 N 
ATOM     19  H   LIG d   1      -4.013  77.018 119.714  0.00  0.00    -0.090 HD
ATOM     20  H   LIG d   1      -3.516  78.447 119.120  0.00  0.00    -0.090 HD
ATOM     21  H   LIG d   1      -2.415  77.300 119.514  0.00  0.00    -0.090 HD
ENDBRANCH   5  18
BRANCH   3  22
ATOM     22  C   LIG d   1      -1.403  74.418 115.979  0.00  0.00     0.382 C 
ATOM     23  O   LIG d   1      -1.125  74.451 114.756  0.00  0.00    -0.241 OA
ATOM     24  O   LIG d   1      -0.675  73.771 116.756  0.00  0.00    -0.241 OA
ENDBRANCH   3  22
TORSDOF 7
ENDMDL
MODEL 2
REMARK VINA RESULT:      -5.3      2.732      5.614
REMARK  7 active torsions:
REMARK  status: ('A' for Active; 'I' for Inactive)
REMARK    1  A    between atoms: C_2  and  C_3 
REMARK    2  A    between atoms: C_3  and  O_6 
REMARK    3  A    between atoms: C_3  and  C_4 
REMARK    4  A    between atoms: C_7  and  O_6 
REMARK    5  A    between atoms: C_9  and  C_10 
REMARK    6  A    between atoms: N_15  and  C_14 
REMARK    7  A    between atoms: N_20  and  C_19 
REMARK       I    between atoms: C_22  and  N_20 
ROOT
ATOM      1  C   LIG d   1      -7.301  75.760 117.771  0.00  0.00     0.161 C 
ATOM      2  C   LIG d   1      -8.609  75.600 118.258  0.00  0.00     0.016 C 
ATOM      3  C   LIG d   1      -9.393  76.669 118.747  0.00  0.00     0.038 C 
ATOM      4  C   LIG d   1      -8.975  78.004 118.642  0.00  0.00     0.028 C 
ATOM      5  C   LIG d   1      -7.459  78.164 118.622  0.00  0.00    -0.047 C 
ATOM      6  C   LIG d   1      -6.870  77.225 117.545  0.00  0.00     0.091 C 
ENDROOT
BRANCH   1   7
ATOM      7  O   LIG d   1      -7.133  74.996 116.560  0.00  0.00    -0.368 OA
BRANCH   7   8
ATOM      8  C   LIG d   1      -6.205  73.885 116.631  0.00  0.00     0.119 C 
BRANCH   8   9
ATOM      9  C   LIG d   1      -5.054  74.180 115.650  0.00  0.00     0.028 C 
ATOM     10  C   LIG d   1      -5.458  75.182 114.555  0.00  0.00     0.006 C 
ENDBRANCH   8   9
BRANCH   8  11
ATOM     11  C   LIG d   1      -6.848  72.590 116.125  0.00  0.00     0.028 C 
ATOM     12  C   LIG d   1      -7.509  71.775 117.247  0.00  0.00     0.006 C 
ENDBRANCH   8  11
ENDBRANCH   7   8
ENDBRANCH   1   7
BRANCH   6  13
ATOM     13  N   LIG d   1      -5.384  77.257 117.517  0.00  0.00    -0.311 N 
ATOM     14  C   LIG d   1      -4.683  78.088 116.748  0.00  0.00     0.210 C 
ATOM     15  C   LIG d   1      -3.162  77.942 116.856  0.00  0.00     0.109 C 
ATOM     16  O   LIG d   1      -5.177  78.954 116.010  0.00  0.00    -0.276 OA
ATOM     17  H   LIG d   1      -4.902  76.608 118.109  0.00  0.00     0.149 HD
ENDBRANCH   6  13
BRANCH   5  18
ATOM     18  N   LIG d   1      -7.165  79.588 118.371  0.00  0.00     0.381 N 
ATOM     19  H   LIG d   1      -7.459  80.138 119.152  0.00  0.00    -0.090 HD
ATOM     20  H   LIG d   1      -7.679  79.888 117.562  0.00  0.00    -0.090 HD
ATOM     21  H   LIG d   1      -6.188  79.712 118.217  0.00  0.00    -0.090 HD
ENDBRANCH   5  18
BRANCH   3  22
ATOM     22  C   LIG d   1     -10.595  76.404 119.386  0.00  0.00     0.382 C 
ATOM     23  O   LIG d   1     -11.681  76.651 118.808  0.00  0.00    -0.241 OA
ATOM     24  O   LIG d   1     -10.607  75.961 120.550  0.00  0.00    -0.241 OA
ENDBRANCH   3  22
TORSDOF 7
ENDMDL
MODEL 3
REMARK VINA RESULT:      -5.2     14.992     16.575
REMARK  7 active torsions:
REMARK  status: ('A' for Active; 'I' for Inactive)
REMARK    1  A    between atoms: C_2  and  C_3 
REMARK    2  A    between atoms: C_3  and  O_6 
REMARK    3  A    between atoms: C_3  and  C_4 
REMARK    4  A    between atoms: C_7  and  O_6 
REMARK    5  A    between atoms: C_9  and  C_10 
REMARK    6  A    between atoms: N_15  and  C_14 
REMARK    7  A    between atoms: N_20  and  C_19 
REMARK       I    between atoms: C_22  and  N_20 
ROOT
ATOM      1  C   LIG d   1      -4.417  91.231 118.226  0.00  0.00     0.161 C 
ATOM      2  C   LIG d   1      -4.588  90.622 116.972  0.00  0.00     0.016 C 
ATOM      3  C   LIG d   1      -5.778  90.722 116.215  0.00  0.00     0.038 C 
ATOM      4  C   LIG d   1      -6.830  91.569 116.595  0.00  0.00     0.028 C 
ATOM      5  C   LIG d   1      -6.903  91.806 118.099  0.00  0.00    -0.047 C 
ATOM      6  C   LIG d   1      -5.512  92.250 118.606  0.00  0.00     0.091 C 
ENDROOT
BRANCH   1   7
ATOM      7  O   LIG d   1      -3.115  91.846 118.297  0.00  0.00    -0.368 OA
BRANCH   7   8
ATOM      8  C   LIG d   1      -2.152  91.201 119.167  0.00  0.00     0.119 C 
BRANCH   8   9
ATOM      9  C   LIG d   1      -1.197  90.384 118.276  0.00  0.00     0.028 C 
ATOM     10  C   LIG d   1       0.183  90.184 118.924  0.00  0.00     0.006 C 
ENDBRANCH   8   9
BRANCH   8  11
ATOM     11  C   LIG d   1      -2.828  90.177 120.083  0.00  0.00     0.028 C 
ATOM     12  C   LIG d   1      -2.709  90.539 121.572  0.00  0.00     0.006 C 
ENDBRANCH   8  11
ENDBRANCH   7   8
ENDBRANCH   1   7
BRANCH   6  13
ATOM     13  N   LIG d   1      -5.474  92.422 120.081  0.00  0.00    -0.311 N 
ATOM     14  C   LIG d   1      -5.671  93.591 120.688  0.00  0.00     0.210 C 
ATOM     15  C   LIG d   1      -5.569  93.551 122.216  0.00  0.00     0.109 C 
ATOM     16  O   LIG d   1      -5.953  94.651 120.108  0.00  0.00    -0.276 OA
ATOM     17  H   LIG d   1      -5.283  91.607 120.631  0.00  0.00     0.149 HD
ENDBRANCH   6  13
BRANCH   5  18
ATOM     18  N   LIG d   1      -7.955  92.812 118.341  0.00  0.00     0.381 N 
ATOM     19  H   LIG d   1      -7.790  93.618 117.771  0.00  0.00    -0.090 HD
ATOM     20  H   LIG d   1      -7.919  93.095 119.305  0.00  0.00    -0.090 HD
ATOM     21  H   LIG d   1      -8.850  92.426 118.134  0.00  0.00    -0.090 HD
ENDBRANCH   5  18
BRANCH   3  22
ATOM     22  C   LIG d   1      -5.940  89.938 115.082  0.00  0.00     0.382 C 
ATOM     23  O   LIG d   1      -4.945  89.384 114.556  0.00  0.00    -0.241 OA
ATOM     24  O   LIG d   1      -7.062  89.814 114.555  0.00  0.00    -0.241 OA
ENDBRANCH   3  22
TORSDOF 7
ENDMDL
MODEL 4
REMARK VINA RESULT:      -5.0      2.744      4.594
REMARK  7 active torsions:
REMARK  status: ('A' for Active; 'I' for Inactive)
REMARK    1  A    between atoms: C_2  and  C_3 
REMARK    2  A    between atoms: C_3  and  O_6 
REMARK    3  A    between atoms: C_3  and  C_4 
REMARK    4  A    between atoms: C_7  and  O_6 
REMARK    5  A    between atoms: C_9  and  C_10 
REMARK    6  A    between atoms: N_15  and  C_14 
REMARK    7  A    between atoms: N_20  and  C_19 
REMARK       I    between atoms: C_22  and  N_20 
ROOT
ATOM      1  C   LIG d   1      -7.864  75.945 117.557  0.00  0.00     0.161 C 
ATOM      2  C   LIG d   1      -7.956  74.557 117.365  0.00  0.00     0.016 C 
ATOM      3  C   LIG d   1      -6.856  73.747 116.999  0.00  0.00     0.038 C 
ATOM      4  C   LIG d   1      -5.549  74.252 116.948  0.00  0.00     0.028 C 
ATOM      5  C   LIG d   1      -5.487  75.745 116.640  0.00  0.00    -0.047 C 
ATOM      6  C   LIG d   1      -6.424  76.496 117.614  0.00  0.00     0.091 C 
ENDROOT
BRANCH   1   7
ATOM      7  O   LIG d   1      -8.592  76.324 118.742  0.00  0.00    -0.368 OA
BRANCH   7   8
ATOM      8  C   LIG d   1      -9.768  77.145 118.533  0.00  0.00     0.119 C 
BRANCH   8   9
ATOM      9  C   LIG d   1      -9.644  78.375 119.453  0.00  0.00     0.028 C 
ATOM     10  C   LIG d   1     -10.136  79.665 118.777  0.00  0.00     0.006 C 
ENDBRANCH   8   9
BRANCH   8  11
ATOM     11  C   LIG d   1     -11.039  76.423 118.989  0.00  0.00     0.028 C 
ATOM     12  C   LIG d   1     -10.997  76.022 120.472  0.00  0.00     0.006 C 
ENDBRANCH   8  11
ENDBRANCH   7   8
ENDBRANCH   1   7
BRANCH   6  13
ATOM     13  N   LIG d   1      -6.488  77.953 117.328  0.00  0.00    -0.311 N 
ATOM     14  C   LIG d   1      -6.254  78.891 118.244  0.00  0.00     0.210 C 
ATOM     15  C   LIG d   1      -6.393  80.332 117.743  0.00  0.00     0.109 C 
ATOM     16  O   LIG d   1      -5.913  78.667 119.415  0.00  0.00    -0.276 OA
ATOM     17  H   LIG d   1      -6.727  78.224 116.394  0.00  0.00     0.149 HD
ENDBRANCH   6  13
BRANCH   5  18
ATOM     18  N   LIG d   1      -4.078  76.165 116.753  0.00  0.00     0.381 N 
ATOM     19  H   LIG d   1      -3.821  76.707 115.952  0.00  0.00    -0.090 HD
ATOM     20  H   LIG d   1      -3.496  75.347 116.780  0.00  0.00    -0.090 HD
ATOM     21  H   LIG d   1      -3.948  76.702 117.582  0.00  0.00    -0.090 HD
ENDBRANCH   5  18
BRANCH   3  22
ATOM     22  C   LIG d   1      -7.066  72.424 116.641  0.00  0.00     0.382 C 
ATOM     23  O   LIG d   1      -6.412  71.919 115.697  0.00  0.00    -0.241 OA
ATOM     24  O   LIG d   1      -7.932  71.742 117.221  0.00  0.00    -0.241 OA
ENDBRANCH   3  22
TORSDOF 7
ENDMDL
MODEL 5
REMARK VINA RESULT:      -5.0     16.932     18.899
REMARK  7 active torsions:
REMARK  status: ('A' for Active; 'I' for Inactive)
REMARK    1  A    between atoms: C_2  and  C_3 
REMARK    2  A    between atoms: C_3  and  O_6 
REMARK    3  A    between atoms: C_3  and  C_4 
REMARK    4  A    between atoms: C_7  and  O_6 
REMARK    5  A    between atoms: C_9  and  C_10 
REMARK    6  A    between atoms: N_15  and  C_14 
REMARK    7  A    between atoms: N_20  and  C_19 
REMARK       I    between atoms: C_22  and  N_20 
ROOT
ATOM      1  C   LIG d   1       0.609  58.922 118.879  0.00  0.00     0.161 C 
ATOM      2  C   LIG d   1      -0.782  58.984 118.695  0.00  0.00     0.016 C 
ATOM      3  C   LIG d   1      -1.479  58.188 117.757  0.00  0.00     0.038 C 
ATOM      4  C   LIG d   1      -0.847  57.161 117.041  0.00  0.00     0.028 C 
ATOM      5  C   LIG d   1       0.644  57.402 116.826  0.00  0.00    -0.047 C 
ATOM      6  C   LIG d   1       1.301  57.729 118.187  0.00  0.00     0.091 C 
ENDROOT
BRANCH   1   7
ATOM      7  O   LIG d   1       0.916  58.930 120.288  0.00  0.00    -0.368 OA
BRANCH   7   8
ATOM      8  C   LIG d   1      -0.122  59.434 121.164  0.00  0.00     0.119 C 
BRANCH   8   9
ATOM      9  C   LIG d   1       0.254  60.879 121.544  0.00  0.00     0.028 C 
ATOM     10  C   LIG d   1       1.650  60.973 122.184  0.00  0.00     0.006 C 
ENDBRANCH   8   9
BRANCH   8  11
ATOM     11  C   LIG d   1      -0.158  58.663 122.486  0.00  0.00     0.028 C 
ATOM     12  C   LIG d   1      -1.345  59.063 123.377  0.00  0.00     0.006 C 
ENDBRANCH   8  11
ENDBRANCH   7   8
ENDBRANCH   1   7
BRANCH   6  13
ATOM     13  N   LIG d   1       2.743  58.061 118.054  0.00  0.00    -0.311 N 
ATOM     14  C   LIG d   1       3.719  57.295 118.539  0.00  0.00     0.210 C 
ATOM     15  C   LIG d   1       5.136  57.831 118.311  0.00  0.00     0.109 C 
ATOM     16  O   LIG d   1       3.547  56.207 119.109  0.00  0.00    -0.276 OA
ATOM     17  H   LIG d   1       2.974  58.911 117.578  0.00  0.00     0.149 HD
ENDBRANCH   6  13
BRANCH   5  18
ATOM     18  N   LIG d   1       1.203  56.194 116.190  0.00  0.00     0.381 N 
ATOM     19  H   LIG d   1       1.228  56.314 115.197  0.00  0.00    -0.090 HD
ATOM     20  H   LIG d   1       0.607  55.412 116.398  0.00  0.00    -0.090 HD
ATOM     21  H   LIG d   1       2.122  56.022 116.534  0.00  0.00    -0.090 HD
ENDBRANCH   5  18
BRANCH   3  22
ATOM     22  C   LIG d   1      -2.817  58.444 117.499  0.00  0.00     0.382 C 
ATOM     23  O   LIG d   1      -3.152  59.017 116.434  0.00  0.00    -0.241 OA
ATOM     24  O   LIG d   1      -3.690  58.148 118.337  0.00  0.00    -0.241 OA
ENDBRANCH   3  22
TORSDOF 7
ENDMDL
MODEL 6
REMARK VINA RESULT:      -4.9      1.983      4.581
REMARK  7 active torsions:
REMARK  status: ('A' for Active; 'I' for Inactive)
REMARK    1  A    between atoms: C_2  and  C_3 
REMARK    2  A    between atoms: C_3  and  O_6 
REMARK    3  A    between atoms: C_3  and  C_4 
REMARK    4  A    between atoms: C_7  and  O_6 
REMARK    5  A    between atoms: C_9  and  C_10 
REMARK    6  A    between atoms: N_15  and  C_14 
REMARK    7  A    between atoms: N_20  and  C_19 
REMARK       I    between atoms: C_22  and  N_20 
ROOT
ATOM      1  C   LIG d   1      -5.330  75.359 118.009  0.00  0.00     0.161 C 
ATOM      2  C   LIG d   1      -5.576  74.097 117.442  0.00  0.00     0.016 C 
ATOM      3  C   LIG d   1      -6.860  73.658 117.045  0.00  0.00     0.038 C 
ATOM      4  C   LIG d   1      -7.970  74.516 117.048  0.00  0.00     0.028 C 
ATOM      5  C   LIG d   1      -7.870  75.632 118.083  0.00  0.00    -0.047 C 
ATOM      6  C   LIG d   1      -6.510  76.349 117.918  0.00  0.00     0.091 C 
ENDROOT
BRANCH   1   7
ATOM      7  O   LIG d   1      -4.146  75.935 117.424  0.00  0.00    -0.368 OA
BRANCH   7   8
ATOM      8  C   LIG d   1      -3.468  75.128 116.431  0.00  0.00     0.119 C 
BRANCH   8   9
ATOM      9  C   LIG d   1      -2.024  74.906 116.922  0.00  0.00     0.028 C 
ATOM     10  C   LIG d   1      -1.070  74.510 115.782  0.00  0.00     0.006 C 
ENDBRANCH   8   9
BRANCH   8  11
ATOM     11  C   LIG d   1      -3.333  75.876 115.101  0.00  0.00     0.028 C 
ATOM     12  C   LIG d   1      -3.506  77.395 115.253  0.00  0.00     0.006 C 
ENDBRANCH   8  11
ENDBRANCH   7   8
ENDBRANCH   1   7
BRANCH   6  13
ATOM     13  N   LIG d   1      -6.296  77.400 118.946  0.00  0.00    -0.311 N 
ATOM     14  C   LIG d   1      -6.568  78.688 118.745  0.00  0.00     0.210 C 
ATOM     15  C   LIG d   1      -6.253  79.608 119.930  0.00  0.00     0.109 C 
ATOM     16  O   LIG d   1      -7.069  79.152 117.710  0.00  0.00    -0.276 OA
ATOM     17  H   LIG d   1      -5.921  77.107 119.827  0.00  0.00     0.149 HD
ENDBRANCH   6  13
BRANCH   5  18
ATOM     18  N   LIG d   1      -9.024  76.528 117.884  0.00  0.00     0.381 N 
ATOM     19  H   LIG d   1      -8.720  77.481 117.904  0.00  0.00    -0.090 HD
ATOM     20  H   LIG d   1      -9.677  76.390 118.635  0.00  0.00    -0.090 HD
ATOM     21  H   LIG d   1      -9.464  76.330 117.012  0.00  0.00    -0.090 HD
ENDBRANCH   5  18
BRANCH   3  22
ATOM     22  C   LIG d   1      -7.050  72.336 116.675  0.00  0.00     0.382 C 
ATOM     23  O   LIG d   1      -6.383  71.846 115.732  0.00  0.00    -0.241 OA
ATOM     24  O   LIG d   1      -7.912  71.639 117.243  0.00  0.00    -0.241 OA
ENDBRANCH   3  22
TORSDOF 7
ENDMDL
MODEL 7
REMARK VINA RESULT:      -4.9      3.269      6.546
REMARK  7 active torsions:
REMARK  status: ('A' for Active; 'I' for Inactive)
REMARK    1  A    between atoms: C_2  and  C_3 
REMARK    2  A    between atoms: C_3  and  O_6 
REMARK    3  A    between atoms: C_3  and  C_4 
REMARK    4  A    between atoms: C_7  and  O_6 
REMARK    5  A    between atoms: C_9  and  C_10 
REMARK    6  A    between atoms: N_15  and  C_14 
REMARK    7  A    between atoms: N_20  and  C_19 
REMARK       I    between atoms: C_22  and  N_20 
ROOT
ATOM      1  C   LIG d   1      -7.919  78.005 118.592  0.00  0.00     0.161 C 
ATOM      2  C   LIG d   1      -8.918  77.070 118.912  0.00  0.00     0.016 C 
ATOM      3  C   LIG d   1     -10.253  77.430 119.210  0.00  0.00     0.038 C 
ATOM      4  C   LIG d   1     -10.718  78.745 119.060  0.00  0.00     0.028 C 
ATOM      5  C   LIG d   1      -9.626  79.796 119.229  0.00  0.00    -0.047 C 
ATOM      6  C   LIG d   1      -8.433  79.433 118.315  0.00  0.00     0.091 C 
ENDROOT
BRANCH   1   7
ATOM      7  O   LIG d   1      -7.142  77.526 117.476  0.00  0.00    -0.368 OA
BRANCH   7   8
ATOM      8  C   LIG d   1      -6.460  76.263 117.669  0.00  0.00     0.119 C 
BRANCH   8   9
ATOM      9  C   LIG d   1      -4.947  76.532 117.555  0.00  0.00     0.028 C 
ATOM     10  C   LIG d   1      -4.132  75.239 117.388  0.00  0.00     0.006 C 
ENDBRANCH   8   9
BRANCH   8  11
ATOM     11  C   LIG d   1      -6.782  75.277 116.542  0.00  0.00     0.028 C 
ATOM     12  C   LIG d   1      -7.641  74.093 117.014  0.00  0.00     0.006 C 
ENDBRANCH   8  11
ENDBRANCH   7   8
ENDBRANCH   1   7
BRANCH   6  13
ATOM     13  N   LIG d   1      -7.287  80.364 118.481  0.00  0.00    -0.311 N 
ATOM     14  C   LIG d   1      -7.084  81.424 117.701  0.00  0.00     0.210 C 
ATOM     15  C   LIG d   1      -5.831  82.240 118.032  0.00  0.00     0.109 C 
ATOM     16  O   LIG d   1      -7.841  81.784 116.786  0.00  0.00    -0.276 OA
ATOM     17  H   LIG d   1      -6.641  80.164 119.219  0.00  0.00     0.149 HD
ENDBRANCH   6  13
BRANCH   5  18
ATOM     18  N   LIG d   1     -10.219  81.109 118.911  0.00  0.00     0.381 N 
ATOM     19  H   LIG d   1      -9.918  81.788 119.582  0.00  0.00    -0.090 HD
ATOM     20  H   LIG d   1     -11.219  81.035 118.964  0.00  0.00    -0.090 HD
ATOM     21  H   LIG d   1      -9.947  81.393 117.995  0.00  0.00    -0.090 HD
ENDBRANCH   5  18
BRANCH   3  22
ATOM     22  C   LIG d   1     -11.128  76.474 119.702  0.00  0.00     0.382 C 
ATOM     23  O   LIG d   1     -12.215  76.258 119.115  0.00  0.00    -0.241 OA
ATOM     24  O   LIG d   1     -10.865  75.857 120.752  0.00  0.00    -0.241 OA
ENDBRANCH   3  22
TORSDOF 7
ENDMDL
MODEL 8
REMARK VINA RESULT:      -4.8     15.038     16.901
REMARK  7 active torsions:
REMARK  status: ('A' for Active; 'I' for Inactive)
REMARK    1  A    between atoms: C_2  and  C_3 
REMARK    2  A    between atoms: C_3  and  O_6 
REMARK    3  A    between atoms: C_3  and  C_4 
REMARK    4  A    between atoms: C_7  and  O_6 
REMARK    5  A    between atoms: C_9  and  C_10 
REMARK    6  A    between atoms: N_15  and  C_14 
REMARK    7  A    between atoms: N_20  and  C_19 
REMARK       I    between atoms: C_22  and  N_20 
ROOT
ATOM      1  C   LIG d   1      -3.853  91.061 118.319  0.00  0.00     0.161 C 
ATOM      2  C   LIG d   1      -4.581  90.576 117.220  0.00  0.00     0.016 C 
ATOM      3  C   LIG d   1      -5.947  90.867 117.002  0.00  0.00     0.038 C 
ATOM      4  C   LIG d   1      -6.643  91.793 117.793  0.00  0.00     0.028 C 
ATOM      5  C   LIG d   1      -6.090  91.917 119.209  0.00  0.00    -0.047 C 
ATOM      6  C   LIG d   1      -4.566  92.162 119.132  0.00  0.00     0.091 C 
ENDROOT
BRANCH   1   7
ATOM      7  O   LIG d   1      -2.558  91.519 117.884  0.00  0.00    -0.368 OA
BRANCH   7   8
ATOM      8  C   LIG d   1      -1.425  90.717 118.300  0.00  0.00     0.119 C 
BRANCH   8   9
ATOM      9  C   LIG d   1      -0.245  91.676 118.549  0.00  0.00     0.028 C 
ATOM     10  C   LIG d   1      -0.709  93.112 118.846  0.00  0.00     0.006 C 
ENDBRANCH   8   9
BRANCH   8  11
ATOM     11  C   LIG d   1      -0.960  89.785 117.178  0.00  0.00     0.028 C 
ATOM     12  C   LIG d   1       0.387  90.209 116.570  0.00  0.00     0.006 C 
ENDBRANCH   8  11
ENDBRANCH   7   8
ENDBRANCH   1   7
BRANCH   6  13
ATOM     13  N   LIG d   1      -3.932  92.211 120.475  0.00  0.00    -0.311 N 
ATOM     14  C   LIG d   1      -3.689  93.345 121.130  0.00  0.00     0.210 C 
ATOM     15  C   LIG d   1      -3.010  93.173 122.492  0.00  0.00     0.109 C 
ATOM     16  O   LIG d   1      -4.000  94.476 120.726  0.00  0.00    -0.276 OA
ATOM     17  H   LIG d   1      -3.675  91.337 120.891  0.00  0.00     0.149 HD
ENDBRANCH   6  13
BRANCH   5  18
ATOM     18  N   LIG d   1      -6.819  93.011 119.877  0.00  0.00     0.381 N 
ATOM     19  H   LIG d   1      -7.717  93.129 119.453  0.00  0.00    -0.090 HD
ATOM     20  H   LIG d   1      -6.301  93.865 119.761  0.00  0.00    -0.090 HD
ATOM     21  H   LIG d   1      -6.925  92.808 120.847  0.00  0.00    -0.090 HD
ENDBRANCH   5  18
BRANCH   3  22
ATOM     22  C   LIG d   1      -6.642  90.198 116.005  0.00  0.00     0.382 C 
ATOM     23  O   LIG d   1      -7.819  89.815 116.211  0.00  0.00    -0.241 OA
ATOM     24  O   LIG d   1      -6.092  89.934 114.920  0.00  0.00    -0.241 OA
ENDBRANCH   3  22
TORSDOF 7
ENDMDL
MODEL 9
REMARK VINA RESULT:      -4.7      1.701      4.942
REMARK  7 active torsions:
REMARK  status: ('A' for Active; 'I' for Inactive)
REMARK    1  A    between atoms: C_2  and  C_3 
REMARK    2  A    between atoms: C_3  and  O_6 
REMARK    3  A    between atoms: C_3  and  C_4 
REMARK    4  A    between atoms: C_7  and  O_6 
REMARK    5  A    between atoms: C_9  and  C_10 
REMARK    6  A    between atoms: N_15  and  C_14 
REMARK    7  A    between atoms: N_20  and  C_19 
REMARK       I    between atoms: C_22  and  N_20 
ROOT
ATOM      1  C   LIG d   1      -5.393  75.933 118.458  0.00  0.00     0.161 C 
ATOM      2  C   LIG d   1      -6.578  76.688 118.457  0.00  0.00     0.016 C 
ATOM      3  C   LIG d   1      -6.671  77.988 117.909  0.00  0.00     0.038 C 
ATOM      4  C   LIG d   1      -5.617  78.565 117.186  0.00  0.00     0.028 C 
ATOM      5  C   LIG d   1      -4.244  78.047 117.598  0.00  0.00    -0.047 C 
ATOM      6  C   LIG d   1      -4.263  76.501 117.574  0.00  0.00     0.091 C 
ENDROOT
BRANCH   1   7
ATOM      7  O   LIG d   1      -5.682  74.570 118.087  0.00  0.00    -0.368 OA
BRANCH   7   8
ATOM      8  C   LIG d   1      -6.472  74.391 116.886  0.00  0.00     0.119 C 
BRANCH   8   9
ATOM      9  C   LIG d   1      -7.639  73.447 117.237  0.00  0.00     0.028 C 
ATOM     10  C   LIG d   1      -7.351  71.988 116.848  0.00  0.00     0.006 C 
ENDBRANCH   8   9
BRANCH   8  11
ATOM     11  C   LIG d   1      -5.677  73.664 115.798  0.00  0.00     0.028 C 
ATOM     12  C   LIG d   1      -5.430  74.536 114.557  0.00  0.00     0.006 C 
ENDBRANCH   8  11
ENDBRANCH   7   8
ENDBRANCH   1   7
BRANCH   6  13
ATOM     13  N   LIG d   1      -2.983  75.911 118.046  0.00  0.00    -0.311 N 
ATOM     14  C   LIG d   1      -2.177  75.190 117.268  0.00  0.00     0.210 C 
ATOM     15  C   LIG d   1      -0.918  74.658 117.959  0.00  0.00     0.109 C 
ATOM     16  O   LIG d   1      -2.371  74.967 116.064  0.00  0.00    -0.276 OA
ATOM     17  H   LIG d   1      -2.733  76.069 119.003  0.00  0.00     0.149 HD
ENDBRANCH   6  13
BRANCH   5  18
ATOM     18  N   LIG d   1      -3.252  78.627 116.673  0.00  0.00     0.381 N 
ATOM     19  H   LIG d   1      -3.195  79.616 116.815  0.00  0.00    -0.090 HD
ATOM     20  H   LIG d   1      -3.552  78.461 115.729  0.00  0.00    -0.090 HD
ATOM     21  H   LIG d   1      -2.360  78.211 116.825  0.00  0.00    -0.090 HD
ENDBRANCH   5  18
BRANCH   3  22
ATOM     22  C   LIG d   1      -7.817  78.741 118.118  0.00  0.00     0.382 C 
ATOM     23  O   LIG d   1      -7.840  79.951 117.790  0.00  0.00    -0.241 OA
ATOM     24  O   LIG d   1      -8.812  78.236 118.671  0.00  0.00    -0.241 OA
ENDBRANCH   3  22
TORSDOF 7
ENDMDL
