MODEL 1
REMARK VINA RESULT:      -5.1      0.000      0.000
REMARK  7 active torsions:
REMARK  status: ('A' for Active; 'I' for Inactive)
REMARK    1  A    between atoms: C_2  and  C_3 
REMARK    2  A    between atoms: C_3  and  O_6 
REMARK    3  A    between atoms: C_3  and  C_4 
REMARK    4  A    between atoms: C_7  and  O_6 
REMARK    5  A    between atoms: C_9  and  C_10 
REMARK    6  A    between atoms: N_15  and  C_14 
REMARK    7  A    between atoms: N_20  and  C_19 
REMARK       I    between atoms: C_22  and  N_20 
ROOT
ATOM      1  C   LIG d   1      -7.978  81.850 119.765  0.00  0.00     0.161 C 
ATOM      2  C   LIG d   1      -8.103  80.493 119.424  0.00  0.00     0.016 C 
ATOM      3  C   LIG d   1      -9.216  79.964 118.732  0.00  0.00     0.038 C 
ATOM      4  C   LIG d   1     -10.216  80.789 118.196  0.00  0.00     0.028 C 
ATOM      5  C   LIG d   1     -10.387  82.103 118.951  0.00  0.00    -0.047 C 
ATOM      6  C   LIG d   1      -9.006  82.784 119.092  0.00  0.00     0.091 C 
ENDROOT
BRANCH   1   7
ATOM      7  O   LIG d   1      -6.637  82.301 119.491  0.00  0.00    -0.368 OA
BRANCH   7   8
ATOM      8  C   LIG d   1      -5.763  82.437 120.638  0.00  0.00     0.119 C 
BRANCH   8   9
ATOM      9  C   LIG d   1      -5.644  83.941 120.954  0.00  0.00     0.028 C 
ATOM     10  C   LIG d   1      -6.000  84.264 122.415  0.00  0.00     0.006 C 
ENDBRANCH   8   9
BRANCH   8  11
ATOM     11  C   LIG d   1      -4.339  81.978 120.311  0.00  0.00     0.028 C 
ATOM     12  C   LIG d   1      -4.280  80.523 119.821  0.00  0.00     0.006 C 
ENDBRANCH   8  11
ENDBRANCH   7   8
ENDBRANCH   1   7
BRANCH   6  13
ATOM     13  N   LIG d   1      -9.070  84.034 119.893  0.00  0.00    -0.311 N 
ATOM     14  C   LIG d   1      -9.506  84.079 121.150  0.00  0.00     0.210 C 
ATOM     15  C   LIG d   1      -9.508  85.473 121.785  0.00  0.00     0.109 C 
ATOM     16  O   LIG d   1      -9.862  83.091 121.810  0.00  0.00    -0.276 OA
ATOM     17  H   LIG d   1      -8.770  84.878 119.444  0.00  0.00     0.149 HD
ENDBRANCH   6  13
BRANCH   5  18
ATOM     18  N   LIG d   1     -11.362  82.922 118.207  0.00  0.00     0.381 N 
ATOM     19  H   LIG d   1     -11.088  82.985 117.246  0.00  0.00    -0.090 HD
ATOM     20  H   LIG d   1     -11.370  83.849 118.594  0.00  0.00    -0.090 HD
ATOM     21  H   LIG d   1     -12.270  82.518 118.275  0.00  0.00    -0.090 HD
ENDBRANCH   5  18
BRANCH   3  22
ATOM     22  C   LIG d   1      -9.357  78.591 118.603  0.00  0.00     0.382 C 
ATOM     23  O   LIG d   1      -8.343  77.852 118.635  0.00  0.00    -0.241 OA
ATOM     24  O   LIG d   1     -10.479  78.086 118.412  0.00  0.00    -0.241 OA
ENDBRANCH   3  22
TORSDOF 7
ENDMDL
MODEL 2
REMARK VINA RESULT:      -4.8     14.077     16.570
REMARK  7 active torsions:
REMARK  status: ('A' for Active; 'I' for Inactive)
REMARK    1  A    between atoms: C_2  and  C_3 
REMARK    2  A    between atoms: C_3  and  O_6 
REMARK    3  A    between atoms: C_3  and  C_4 
REMARK    4  A    between atoms: C_7  and  O_6 
REMARK    5  A    between atoms: C_9  and  C_10 
REMARK    6  A    between atoms: N_15  and  C_14 
REMARK    7  A    between atoms: N_20  and  C_19 
REMARK       I    between atoms: C_22  and  N_20 
ROOT
ATOM      1  C   LIG d   1     -13.698  67.122 121.655  0.00  0.00     0.161 C 
ATOM      2  C   LIG d   1     -12.638  66.888 122.547  0.00  0.00     0.016 C 
ATOM      3  C   LIG d   1     -11.755  65.790 122.436  0.00  0.00     0.038 C 
ATOM      4  C   LIG d   1     -11.780  64.928 121.329  0.00  0.00     0.028 C 
ATOM      5  C   LIG d   1     -13.150  64.829 120.669  0.00  0.00    -0.047 C 
ATOM      6  C   LIG d   1     -13.671  66.255 120.378  0.00  0.00     0.091 C 
ENDROOT
BRANCH   1   7
ATOM      7  O   LIG d   1     -13.746  68.520 121.309  0.00  0.00    -0.368 OA
BRANCH   7   8
ATOM      8  C   LIG d   1     -14.918  69.247 121.755  0.00  0.00     0.119 C 
BRANCH   8   9
ATOM      9  C   LIG d   1     -15.723  69.640 120.501  0.00  0.00     0.028 C 
ATOM     10  C   LIG d   1     -16.254  71.081 120.573  0.00  0.00     0.006 C 
ENDBRANCH   8   9
BRANCH   8  11
ATOM     11  C   LIG d   1     -14.533  70.571 122.421  0.00  0.00     0.028 C 
ATOM     12  C   LIG d   1     -13.351  70.428 123.392  0.00  0.00     0.006 C 
ENDBRANCH   8  11
ENDBRANCH   7   8
ENDBRANCH   1   7
BRANCH   6  13
ATOM     13  N   LIG d   1     -15.044  66.252 119.808  0.00  0.00    -0.311 N 
ATOM     14  C   LIG d   1     -15.295  66.289 118.501  0.00  0.00     0.210 C 
ATOM     15  C   LIG d   1     -16.781  66.299 118.128  0.00  0.00     0.109 C 
ATOM     16  O   LIG d   1     -14.428  66.282 117.614  0.00  0.00    -0.276 OA
ATOM     17  H   LIG d   1     -15.807  66.227 120.456  0.00  0.00     0.149 HD
ENDBRANCH   6  13
BRANCH   5  18
ATOM     18  N   LIG d   1     -13.001  64.009 119.452  0.00  0.00     0.381 N 
ATOM     19  H   LIG d   1     -12.181  63.440 119.525  0.00  0.00    -0.090 HD
ATOM     20  H   LIG d   1     -12.891  64.619 118.660  0.00  0.00    -0.090 HD
ATOM     21  H   LIG d   1     -13.804  63.433 119.327  0.00  0.00    -0.090 HD
ENDBRANCH   5  18
BRANCH   3  22
ATOM     22  C   LIG d   1     -10.860  65.521 123.460  0.00  0.00     0.382 C 
ATOM     23  O   LIG d   1     -10.812  64.374 123.966  0.00  0.00    -0.241 OA
ATOM     24  O   LIG d   1     -10.131  66.423 123.915  0.00  0.00    -0.241 OA
ENDBRANCH   3  22
TORSDOF 7
ENDMDL
MODEL 3
REMARK VINA RESULT:      -4.7      2.076      4.878
REMARK  7 active torsions:
REMARK  status: ('A' for Active; 'I' for Inactive)
REMARK    1  A    between atoms: C_2  and  C_3 
REMARK    2  A    between atoms: C_3  and  O_6 
REMARK    3  A    between atoms: C_3  and  C_4 
REMARK    4  A    between atoms: C_7  and  O_6 
REMARK    5  A    between atoms: C_9  and  C_10 
REMARK    6  A    between atoms: N_15  and  C_14 
REMARK    7  A    between atoms: N_20  and  C_19 
REMARK       I    between atoms: C_22  and  N_20 
ROOT
ATOM      1  C   LIG d   1      -9.252  82.943 119.568  0.00  0.00     0.161 C 
ATOM      2  C   LIG d   1      -9.224  84.216 120.162  0.00  0.00     0.016 C 
ATOM      3  C   LIG d   1      -9.870  84.520 121.382  0.00  0.00     0.038 C 
ATOM      4  C   LIG d   1     -10.466  83.526 122.173  0.00  0.00     0.028 C 
ATOM      5  C   LIG d   1     -10.955  82.325 121.370  0.00  0.00    -0.047 C 
ATOM      6  C   LIG d   1      -9.803  81.820 120.471  0.00  0.00     0.091 C 
ENDROOT
BRANCH   1   7
ATOM      7  O   LIG d   1      -7.938  82.599 119.087  0.00  0.00    -0.368 OA
BRANCH   7   8
ATOM      8  C   LIG d   1      -7.063  81.941 120.036  0.00  0.00     0.119 C 
BRANCH   8   9
ATOM      9  C   LIG d   1      -5.945  82.937 120.403  0.00  0.00     0.028 C 
ATOM     10  C   LIG d   1      -4.561  82.269 120.461  0.00  0.00     0.006 C 
ENDBRANCH   8   9
BRANCH   8  11
ATOM     11  C   LIG d   1      -6.349  80.745 119.400  0.00  0.00     0.028 C 
ATOM     12  C   LIG d   1      -6.930  80.364 118.030  0.00  0.00     0.006 C 
ENDBRANCH   8  11
ENDBRANCH   7   8
ENDBRANCH   1   7
BRANCH   6  13
ATOM     13  N   LIG d   1     -10.222  80.699 119.590  0.00  0.00    -0.311 N 
ATOM     14  C   LIG d   1     -10.075  79.416 119.917  0.00  0.00     0.210 C 
ATOM     15  C   LIG d   1     -10.555  78.420 118.856  0.00  0.00     0.109 C 
ATOM     16  O   LIG d   1      -9.623  79.008 120.997  0.00  0.00    -0.276 OA
ATOM     17  H   LIG d   1     -10.627  80.940 118.707  0.00  0.00     0.149 HD
ENDBRANCH   6  13
BRANCH   5  18
ATOM     18  N   LIG d   1     -11.427  81.310 122.330  0.00  0.00     0.381 N 
ATOM     19  H   LIG d   1     -12.010  80.646 121.861  0.00  0.00    -0.090 HD
ATOM     20  H   LIG d   1     -11.974  81.764 123.041  0.00  0.00    -0.090 HD
ATOM     21  H   LIG d   1     -10.650  80.845 122.746  0.00  0.00    -0.090 HD
ENDBRANCH   5  18
BRANCH   3  22
ATOM     22  C   LIG d   1      -9.959  85.838 121.803  0.00  0.00     0.382 C 
ATOM     23  O   LIG d   1      -8.915  86.495 122.029  0.00  0.00    -0.241 OA
ATOM     24  O   LIG d   1     -11.070  86.364 122.002  0.00  0.00    -0.241 OA
ENDBRANCH   3  22
TORSDOF 7
ENDMDL
MODEL 4
REMARK VINA RESULT:      -4.7      1.825      4.580
REMARK  7 active torsions:
REMARK  status: ('A' for Active; 'I' for Inactive)
REMARK    1  A    between atoms: C_2  and  C_3 
REMARK    2  A    between atoms: C_3  and  O_6 
REMARK    3  A    between atoms: C_3  and  C_4 
REMARK    4  A    between atoms: C_7  and  O_6 
REMARK    5  A    between atoms: C_9  and  C_10 
REMARK    6  A    between atoms: N_15  and  C_14 
REMARK    7  A    between atoms: N_20  and  C_19 
REMARK       I    between atoms: C_22  and  N_20 
ROOT
ATOM      1  C   LIG d   1      -8.097  82.706 120.941  0.00  0.00     0.161 C 
ATOM      2  C   LIG d   1      -8.584  83.880 121.540  0.00  0.00     0.016 C 
ATOM      3  C   LIG d   1      -9.793  84.505 121.157  0.00  0.00     0.038 C 
ATOM      4  C   LIG d   1     -10.679  83.910 120.246  0.00  0.00     0.028 C 
ATOM      5  C   LIG d   1      -9.991  82.984 119.249  0.00  0.00    -0.047 C 
ATOM      6  C   LIG d   1      -9.104  81.983 120.023  0.00  0.00     0.091 C 
ENDROOT
BRANCH   1   7
ATOM      7  O   LIG d   1      -7.609  81.807 121.956  0.00  0.00    -0.368 OA
BRANCH   7   8
ATOM      8  C   LIG d   1      -6.172  81.631 122.013  0.00  0.00     0.119 C 
BRANCH   8   9
ATOM      9  C   LIG d   1      -5.649  82.467 123.198  0.00  0.00     0.028 C 
ATOM     10  C   LIG d   1      -4.999  83.784 122.744  0.00  0.00     0.006 C 
ENDBRANCH   8   9
BRANCH   8  11
ATOM     11  C   LIG d   1      -5.489  82.214 120.773  0.00  0.00     0.028 C 
ATOM     12  C   LIG d   1      -4.691  81.164 119.983  0.00  0.00     0.006 C 
ENDBRANCH   8  11
ENDBRANCH   7   8
ENDBRANCH   1   7
BRANCH   6  13
ATOM     13  N   LIG d   1      -8.330  81.094 119.118  0.00  0.00    -0.311 N 
ATOM     14  C   LIG d   1      -8.232  79.777 119.291  0.00  0.00     0.210 C 
ATOM     15  C   LIG d   1      -7.369  79.051 118.255  0.00  0.00     0.109 C 
ATOM     16  O   LIG d   1      -8.805  79.137 120.186  0.00  0.00    -0.276 OA
ATOM     17  H   LIG d   1      -7.859  81.526 118.348  0.00  0.00     0.149 HD
ENDBRANCH   6  13
BRANCH   5  18
ATOM     18  N   LIG d   1     -11.044  82.328 118.451  0.00  0.00     0.381 N 
ATOM     19  H   LIG d   1     -10.629  81.824 117.692  0.00  0.00    -0.090 HD
ATOM     20  H   LIG d   1     -11.649  83.033 118.068  0.00  0.00    -0.090 HD
ATOM     21  H   LIG d   1     -11.569  81.705 119.025  0.00  0.00    -0.090 HD
ENDBRANCH   5  18
BRANCH   3  22
ATOM     22  C   LIG d   1     -10.108  85.759 121.658  0.00  0.00     0.382 C 
ATOM     23  O   LIG d   1      -9.191  86.564 121.954  0.00  0.00    -0.241 OA
ATOM     24  O   LIG d   1     -11.294  86.079 121.861  0.00  0.00    -0.241 OA
ENDBRANCH   3  22
TORSDOF 7
ENDMDL
MODEL 5
REMARK VINA RESULT:      -4.7      9.657     11.928
REMARK  7 active torsions:
REMARK  status: ('A' for Active; 'I' for Inactive)
REMARK    1  A    between atoms: C_2  and  C_3 
REMARK    2  A    between atoms: C_3  and  O_6 
REMARK    3  A    between atoms: C_3  and  C_4 
REMARK    4  A    between atoms: C_7  and  O_6 
REMARK    5  A    between atoms: C_9  and  C_10 
REMARK    6  A    between atoms: N_15  and  C_14 
REMARK    7  A    between atoms: N_20  and  C_19 
REMARK       I    between atoms: C_22  and  N_20 
ROOT
ATOM      1  C   LIG d   1     -17.703  77.862 120.354  0.00  0.00     0.161 C 
ATOM      2  C   LIG d   1     -18.517  78.981 120.598  0.00  0.00     0.016 C 
ATOM      3  C   LIG d   1     -19.926  78.960 120.476  0.00  0.00     0.038 C 
ATOM      4  C   LIG d   1     -20.632  77.770 120.248  0.00  0.00     0.028 C 
ATOM      5  C   LIG d   1     -19.822  76.718 119.497  0.00  0.00    -0.047 C 
ATOM      6  C   LIG d   1     -18.465  76.527 120.212  0.00  0.00     0.091 C 
ENDROOT
BRANCH   1   7
ATOM      7  O   LIG d   1     -16.696  77.757 121.380  0.00  0.00    -0.368 OA
BRANCH   7   8
ATOM      8  C   LIG d   1     -17.092  77.076 122.595  0.00  0.00     0.119 C 
BRANCH   8   9
ATOM      9  C   LIG d   1     -17.076  78.113 123.734  0.00  0.00     0.028 C 
ATOM     10  C   LIG d   1     -15.861  79.052 123.655  0.00  0.00     0.006 C 
ENDBRANCH   8   9
BRANCH   8  11
ATOM     11  C   LIG d   1     -16.065  76.014 122.999  0.00  0.00     0.028 C 
ATOM     12  C   LIG d   1     -14.890  75.917 122.013  0.00  0.00     0.006 C 
ENDBRANCH   8  11
ENDBRANCH   7   8
ENDBRANCH   1   7
BRANCH   6  13
ATOM     13  N   LIG d   1     -17.575  75.576 119.495  0.00  0.00    -0.311 N 
ATOM     14  C   LIG d   1     -17.465  74.289 119.819  0.00  0.00     0.210 C 
ATOM     15  C   LIG d   1     -16.477  73.489 118.963  0.00  0.00     0.109 C 
ATOM     16  O   LIG d   1     -18.116  73.726 120.712  0.00  0.00    -0.276 OA
ATOM     17  H   LIG d   1     -17.034  75.942 118.736  0.00  0.00     0.149 HD
ENDBRANCH   6  13
BRANCH   5  18
ATOM     18  N   LIG d   1     -20.629  75.484 119.449  0.00  0.00     0.381 N 
ATOM     19  H   LIG d   1     -21.470  75.609 119.976  0.00  0.00    -0.090 HD
ATOM     20  H   LIG d   1     -20.103  74.736 119.865  0.00  0.00    -0.090 HD
ATOM     21  H   LIG d   1     -20.851  75.259 118.504  0.00  0.00    -0.090 HD
ENDBRANCH   5  18
BRANCH   3  22
ATOM     22  C   LIG d   1     -20.639  80.147 120.544  0.00  0.00     0.382 C 
ATOM     23  O   LIG d   1     -20.276  81.136 119.864  0.00  0.00    -0.241 OA
ATOM     24  O   LIG d   1     -21.615  80.254 121.311  0.00  0.00    -0.241 OA
ENDBRANCH   3  22
TORSDOF 7
ENDMDL
MODEL 6
REMARK VINA RESULT:      -4.7     13.478     16.307
REMARK  7 active torsions:
REMARK  status: ('A' for Active; 'I' for Inactive)
REMARK    1  A    between atoms: C_2  and  C_3 
REMARK    2  A    between atoms: C_3  and  O_6 
REMARK    3  A    between atoms: C_3  and  C_4 
REMARK    4  A    between atoms: C_7  and  O_6 
REMARK    5  A    between atoms: C_9  and  C_10 
REMARK    6  A    between atoms: N_15  and  C_14 
REMARK    7  A    between atoms: N_20  and  C_19 
REMARK       I    between atoms: C_22  and  N_20 
ROOT
ATOM      1  C   LIG d   1     -13.451  67.378 121.523  0.00  0.00     0.161 C 
ATOM      2  C   LIG d   1     -12.409  66.985 122.379  0.00  0.00     0.016 C 
ATOM      3  C   LIG d   1     -11.721  65.756 122.254  0.00  0.00     0.038 C 
ATOM      4  C   LIG d   1     -11.929  64.897 121.165  0.00  0.00     0.028 C 
ATOM      5  C   LIG d   1     -13.323  65.016 120.558  0.00  0.00    -0.047 C 
ATOM      6  C   LIG d   1     -13.617  66.504 120.262  0.00  0.00     0.091 C 
ENDROOT
BRANCH   1   7
ATOM      7  O   LIG d   1     -13.286  68.762 121.156  0.00  0.00    -0.368 OA
BRANCH   7   8
ATOM      8  C   LIG d   1     -14.226  69.694 121.744  0.00  0.00     0.119 C 
BRANCH   8   9
ATOM      9  C   LIG d   1     -13.497  70.429 122.885  0.00  0.00     0.028 C 
ATOM     10  C   LIG d   1     -14.204  71.733 123.290  0.00  0.00     0.006 C 
ENDBRANCH   8   9
BRANCH   8  11
ATOM     11  C   LIG d   1     -15.392  68.961 122.414  0.00  0.00     0.028 C 
ATOM     12  C   LIG d   1     -16.737  69.216 121.713  0.00  0.00     0.006 C 
ENDBRANCH   8  11
ENDBRANCH   7   8
ENDBRANCH   1   7
BRANCH   6  13
ATOM     13  N   LIG d   1     -14.993  66.719 119.745  0.00  0.00    -0.311 N 
ATOM     14  C   LIG d   1     -15.254  67.275 118.563  0.00  0.00     0.210 C 
ATOM     15  C   LIG d   1     -16.742  67.421 118.231  0.00  0.00     0.109 C 
ATOM     16  O   LIG d   1     -14.393  67.632 117.744  0.00  0.00    -0.276 OA
ATOM     17  H   LIG d   1     -15.751  66.429 120.331  0.00  0.00     0.149 HD
ENDBRANCH   6  13
BRANCH   5  18
ATOM     18  N   LIG d   1     -13.357  64.169 119.350  0.00  0.00     0.381 N 
ATOM     19  H   LIG d   1     -12.962  63.273 119.554  0.00  0.00    -0.090 HD
ATOM     20  H   LIG d   1     -12.802  64.602 118.634  0.00  0.00    -0.090 HD
ATOM     21  H   LIG d   1     -14.296  64.063 119.035  0.00  0.00    -0.090 HD
ENDBRANCH   5  18
BRANCH   3  22
ATOM     22  C   LIG d   1     -10.841  65.357 123.249  0.00  0.00     0.382 C 
ATOM     23  O   LIG d   1     -10.719  64.139 123.526  0.00  0.00    -0.241 OA
ATOM     24  O   LIG d   1     -10.200  66.202 123.902  0.00  0.00    -0.241 OA
ENDBRANCH   3  22
TORSDOF 7
ENDMDL
MODEL 7
REMARK VINA RESULT:      -4.6      9.795     12.330
REMARK  7 active torsions:
REMARK  status: ('A' for Active; 'I' for Inactive)
REMARK    1  A    between atoms: C_2  and  C_3 
REMARK    2  A    between atoms: C_3  and  O_6 
REMARK    3  A    between atoms: C_3  and  C_4 
REMARK    4  A    between atoms: C_7  and  O_6 
REMARK    5  A    between atoms: C_9  and  C_10 
REMARK    6  A    between atoms: N_15  and  C_14 
REMARK    7  A    between atoms: N_20  and  C_19 
REMARK       I    between atoms: C_22  and  N_20 
ROOT
ATOM      1  C   LIG d   1     -18.688  76.398 120.703  0.00  0.00     0.161 C 
ATOM      2  C   LIG d   1     -19.623  77.354 120.274  0.00  0.00     0.016 C 
ATOM      3  C   LIG d   1     -19.477  78.742 120.504  0.00  0.00     0.038 C 
ATOM      4  C   LIG d   1     -18.304  79.284 121.050  0.00  0.00     0.028 C 
ATOM      5  C   LIG d   1     -17.553  78.314 121.955  0.00  0.00    -0.047 C 
ATOM      6  C   LIG d   1     -17.349  76.980 121.201  0.00  0.00     0.091 C 
ENDROOT
BRANCH   1   7
ATOM      7  O   LIG d   1     -18.456  75.436 119.654  0.00  0.00    -0.368 OA
BRANCH   7   8
ATOM      8  C   LIG d   1     -18.915  74.087 119.913  0.00  0.00     0.119 C 
BRANCH   8   9
ATOM      9  C   LIG d   1     -19.499  74.063 121.339  0.00  0.00     0.028 C 
ATOM     10  C   LIG d   1     -18.817  73.015 122.235  0.00  0.00     0.006 C 
ENDBRANCH   8   9
BRANCH   8  11
ATOM     11  C   LIG d   1     -17.748  73.096 119.936  0.00  0.00     0.028 C 
ATOM     12  C   LIG d   1     -16.520  73.603 119.162  0.00  0.00     0.006 C 
ENDBRANCH   8  11
ENDBRANCH   7   8
ENDBRANCH   1   7
BRANCH   6  13
ATOM     13  N   LIG d   1     -16.695  75.946 122.046  0.00  0.00    -0.311 N 
ATOM     14  C   LIG d   1     -15.376  75.773 122.102  0.00  0.00     0.210 C 
ATOM     15  C   LIG d   1     -14.912  74.637 123.020  0.00  0.00     0.109 C 
ATOM     16  O   LIG d   1     -14.544  76.472 121.505  0.00  0.00    -0.276 OA
ATOM     17  H   LIG d   1     -17.294  75.355 122.588  0.00  0.00     0.149 HD
ENDBRANCH   6  13
BRANCH   5  18
ATOM     18  N   LIG d   1     -16.284  78.959 122.344  0.00  0.00     0.381 N 
ATOM     19  H   LIG d   1     -15.667  78.993 121.557  0.00  0.00    -0.090 HD
ATOM     20  H   LIG d   1     -15.847  78.410 123.063  0.00  0.00    -0.090 HD
ATOM     21  H   LIG d   1     -16.459  79.881 122.679  0.00  0.00    -0.090 HD
ENDBRANCH   5  18
BRANCH   3  22
ATOM     22  C   LIG d   1     -20.531  79.599 120.223  0.00  0.00     0.382 C 
ATOM     23  O   LIG d   1     -20.300  80.760 119.808  0.00  0.00    -0.241 OA
ATOM     24  O   LIG d   1     -21.707  79.241 120.422  0.00  0.00    -0.241 OA
ENDBRANCH   3  22
TORSDOF 7
ENDMDL
MODEL 8
REMARK VINA RESULT:      -4.4      2.886      5.780
REMARK  7 active torsions:
REMARK  status: ('A' for Active; 'I' for Inactive)
REMARK    1  A    between atoms: C_2  and  C_3 
REMARK    2  A    between atoms: C_3  and  O_6 
REMARK    3  A    between atoms: C_3  and  C_4 
REMARK    4  A    between atoms: C_7  and  O_6 
REMARK    5  A    between atoms: C_9  and  C_10 
REMARK    6  A    between atoms: N_15  and  C_14 
REMARK    7  A    between atoms: N_20  and  C_19 
REMARK       I    between atoms: C_22  and  N_20 
ROOT
ATOM      1  C   LIG d   1      -8.794  82.186 121.516  0.00  0.00     0.161 C 
ATOM      2  C   LIG d   1      -9.064  83.483 121.983  0.00  0.00     0.016 C 
ATOM      3  C   LIG d   1      -9.937  84.381 121.326  0.00  0.00     0.038 C 
ATOM      4  C   LIG d   1     -10.720  83.985 120.231  0.00  0.00     0.028 C 
ATOM      5  C   LIG d   1     -10.104  82.848 119.424  0.00  0.00    -0.047 C 
ATOM      6  C   LIG d   1      -9.724  81.699 120.386  0.00  0.00     0.091 C 
ENDROOT
BRANCH   1   7
ATOM      7  O   LIG d   1      -8.813  81.256 122.617  0.00  0.00    -0.368 OA
BRANCH   7   8
ATOM      8  C   LIG d   1      -9.661  81.612 123.737  0.00  0.00     0.119 C 
BRANCH   8   9
ATOM      9  C   LIG d   1      -8.937  81.172 125.024  0.00  0.00     0.028 C 
ATOM     10  C   LIG d   1      -9.674  80.034 125.751  0.00  0.00     0.006 C 
ENDBRANCH   8   9
BRANCH   8  11
ATOM     11  C   LIG d   1     -10.972  80.820 123.717  0.00  0.00     0.028 C 
ATOM     12  C   LIG d   1     -12.168  81.660 123.243  0.00  0.00     0.006 C 
ENDBRANCH   8  11
ENDBRANCH   7   8
ENDBRANCH   1   7
BRANCH   6  13
ATOM     13  N   LIG d   1      -9.038  80.580 119.689  0.00  0.00    -0.311 N 
ATOM     14  C   LIG d   1      -9.662  79.477 119.281  0.00  0.00     0.210 C 
ATOM     15  C   LIG d   1      -8.764  78.439 118.601  0.00  0.00     0.109 C 
ATOM     16  O   LIG d   1     -10.881  79.273 119.389  0.00  0.00    -0.276 OA
ATOM     17  H   LIG d   1      -8.053  80.676 119.532  0.00  0.00     0.149 HD
ENDBRANCH   6  13
BRANCH   5  18
ATOM     18  N   LIG d   1     -11.086  82.445 118.400  0.00  0.00     0.381 N 
ATOM     19  H   LIG d   1     -10.842  81.547 118.032  0.00  0.00    -0.090 HD
ATOM     20  H   LIG d   1     -11.063  83.111 117.648  0.00  0.00    -0.090 HD
ATOM     21  H   LIG d   1     -11.999  82.412 118.797  0.00  0.00    -0.090 HD
ENDBRANCH   5  18
BRANCH   3  22
ATOM     22  C   LIG d   1     -10.002  85.703 121.739  0.00  0.00     0.382 C 
ATOM     23  O   LIG d   1     -11.115  86.273 121.842  0.00  0.00    -0.241 OA
ATOM     24  O   LIG d   1      -8.960  86.345 121.968  0.00  0.00    -0.241 OA
ENDBRANCH   3  22
TORSDOF 7
ENDMDL
MODEL 9
REMARK VINA RESULT:      -4.4     10.578     12.901
REMARK  7 active torsions:
REMARK  status: ('A' for Active; 'I' for Inactive)
REMARK    1  A    between atoms: C_2  and  C_3 
REMARK    2  A    between atoms: C_3  and  O_6 
REMARK    3  A    between atoms: C_3  and  C_4 
REMARK    4  A    between atoms: C_7  and  O_6 
REMARK    5  A    between atoms: C_9  and  C_10 
REMARK    6  A    between atoms: N_15  and  C_14 
REMARK    7  A    between atoms: N_20  and  C_19 
REMARK       I    between atoms: C_22  and  N_20 
ROOT
ATOM      1  C   LIG d   1     -19.740  76.607 119.775  0.00  0.00     0.161 C 
ATOM      2  C   LIG d   1     -18.873  75.510 119.910  0.00  0.00     0.016 C 
ATOM      3  C   LIG d   1     -17.533  75.627 120.344  0.00  0.00     0.038 C 
ATOM      4  C   LIG d   1     -17.010  76.839 120.820  0.00  0.00     0.028 C 
ATOM      5  C   LIG d   1     -17.693  78.067 120.226  0.00  0.00    -0.047 C 
ATOM      6  C   LIG d   1     -19.222  77.922 120.395  0.00  0.00     0.091 C 
ENDROOT
BRANCH   1   7
ATOM      7  O   LIG d   1     -21.035  76.275 120.313  0.00  0.00    -0.368 OA
BRANCH   7   8
ATOM      8  C   LIG d   1     -21.290  76.707 121.673  0.00  0.00     0.119 C 
BRANCH   8   9
ATOM      9  C   LIG d   1     -21.429  75.441 122.541  0.00  0.00     0.028 C 
ATOM     10  C   LIG d   1     -20.182  75.182 123.404  0.00  0.00     0.006 C 
ENDBRANCH   8   9
BRANCH   8  11
ATOM     11  C   LIG d   1     -22.637  77.427 121.786  0.00  0.00     0.028 C 
ATOM     12  C   LIG d   1     -23.282  77.702 120.419  0.00  0.00     0.006 C 
ENDBRANCH   8  11
ENDBRANCH   7   8
ENDBRANCH   1   7
BRANCH   6  13
ATOM     13  N   LIG d   1     -19.971  79.041 119.766  0.00  0.00    -0.311 N 
ATOM     14  C   LIG d   1     -20.316  80.150 120.418  0.00  0.00     0.210 C 
ATOM     15  C   LIG d   1     -21.102  81.170 119.588  0.00  0.00     0.109 C 
ATOM     16  O   LIG d   1     -20.019  80.399 121.596  0.00  0.00    -0.276 OA
ATOM     17  H   LIG d   1     -20.225  78.936 118.803  0.00  0.00     0.149 HD
ENDBRANCH   6  13
BRANCH   5  18
ATOM     18  N   LIG d   1     -17.146  79.255 120.910  0.00  0.00     0.381 N 
ATOM     19  H   LIG d   1     -17.816  79.607 121.564  0.00  0.00    -0.090 HD
ATOM     20  H   LIG d   1     -16.966  79.969 120.226  0.00  0.00    -0.090 HD
ATOM     21  H   LIG d   1     -16.302  79.017 121.383  0.00  0.00    -0.090 HD
ENDBRANCH   5  18
BRANCH   3  22
ATOM     22  C   LIG d   1     -16.687  74.531 120.267  0.00  0.00     0.382 C 
ATOM     23  O   LIG d   1     -16.132  74.093 121.303  0.00  0.00    -0.241 OA
ATOM     24  O   LIG d   1     -16.438  74.001 119.167  0.00  0.00    -0.241 OA
ENDBRANCH   3  22
TORSDOF 7
ENDMDL
