MODEL 1
REMARK VINA RESULT:      -6.5      0.000      0.000
REMARK  7 active torsions:
REMARK  status: ('A' for Active; 'I' for Inactive)
REMARK    1  A    between atoms: C_2  and  C_3 
REMARK    2  A    between atoms: C_3  and  O_6 
REMARK    3  A    between atoms: C_3  and  C_4 
REMARK    4  A    between atoms: C_7  and  O_6 
REMARK    5  A    between atoms: C_9  and  C_10 
REMARK    6  A    between atoms: N_15  and  C_14 
REMARK    7  A    between atoms: N_20  and  C_19 
REMARK       I    between atoms: C_22  and  N_20 
ROOT
ATOM      1  C   LIG d   1       0.129  83.002 111.206  0.00  0.00     0.161 C 
ATOM      2  C   LIG d   1      -0.938  82.703 112.071  0.00  0.00     0.016 C 
ATOM      3  C   LIG d   1      -1.452  81.398 112.249  0.00  0.00     0.038 C 
ATOM      4  C   LIG d   1      -0.831  80.273 111.685  0.00  0.00     0.028 C 
ATOM      5  C   LIG d   1      -0.062  80.583 110.405  0.00  0.00    -0.047 C 
ATOM      6  C   LIG d   1       0.890  81.773 110.668  0.00  0.00     0.091 C 
ENDROOT
BRANCH   1   7
ATOM      7  O   LIG d   1       1.041  83.912 111.852  0.00  0.00    -0.368 OA
BRANCH   7   8
ATOM      8  C   LIG d   1       1.104  85.250 111.300  0.00  0.00     0.119 C 
BRANCH   8   9
ATOM      9  C   LIG d   1       0.046  85.341 110.184  0.00  0.00     0.028 C 
ATOM     10  C   LIG d   1      -0.955  86.485 110.416  0.00  0.00     0.006 C 
ENDBRANCH   8   9
BRANCH   8  11
ATOM     11  C   LIG d   1       2.447  85.504 110.608  0.00  0.00     0.028 C 
ATOM     12  C   LIG d   1       3.607  84.731 111.255  0.00  0.00     0.006 C 
ENDBRANCH   8  11
ENDBRANCH   7   8
ENDBRANCH   1   7
BRANCH   6  13
ATOM     13  N   LIG d   1       1.619  82.196 109.444  0.00  0.00    -0.311 N 
ATOM     14  C   LIG d   1       2.857  81.800 109.155  0.00  0.00     0.210 C 
ATOM     15  C   LIG d   1       3.431  82.370 107.853  0.00  0.00     0.109 C 
ATOM     16  O   LIG d   1       3.523  81.006 109.836  0.00  0.00    -0.276 OA
ATOM     17  H   LIG d   1       1.141  82.816 108.819  0.00  0.00     0.149 HD
ENDBRANCH   6  13
BRANCH   5  18
ATOM     18  N   LIG d   1       0.646  79.354 110.001  0.00  0.00     0.381 N 
ATOM     19  H   LIG d   1       0.203  78.557 110.413  0.00  0.00    -0.090 HD
ATOM     20  H   LIG d   1       1.591  79.398 110.339  0.00  0.00    -0.090 HD
ATOM     21  H   LIG d   1       0.643  79.269 109.009  0.00  0.00    -0.090 HD
ENDBRANCH   5  18
BRANCH   3  22
ATOM     22  C   LIG d   1      -2.623  81.213 112.967  0.00  0.00     0.382 C 
ATOM     23  O   LIG d   1      -3.079  80.056 113.136  0.00  0.00    -0.241 OA
ATOM     24  O   LIG d   1      -3.253  82.191 113.411  0.00  0.00    -0.241 OA
ENDBRANCH   3  22
TORSDOF 7
ENDMDL
MODEL 2
REMARK VINA RESULT:      -6.4      2.636      3.834
REMARK  7 active torsions:
REMARK  status: ('A' for Active; 'I' for Inactive)
REMARK    1  A    between atoms: C_2  and  C_3 
REMARK    2  A    between atoms: C_3  and  O_6 
REMARK    3  A    between atoms: C_3  and  C_4 
REMARK    4  A    between atoms: C_7  and  O_6 
REMARK    5  A    between atoms: C_9  and  C_10 
REMARK    6  A    between atoms: N_15  and  C_14 
REMARK    7  A    between atoms: N_20  and  C_19 
REMARK       I    between atoms: C_22  and  N_20 
ROOT
ATOM      1  C   LIG d   1       2.347  84.934 110.107  0.00  0.00     0.161 C 
ATOM      2  C   LIG d   1       1.291  85.733 110.575  0.00  0.00     0.016 C 
ATOM      3  C   LIG d   1       0.013  85.223 110.899  0.00  0.00     0.038 C 
ATOM      4  C   LIG d   1      -0.251  83.845 110.922  0.00  0.00     0.028 C 
ATOM      5  C   LIG d   1       0.634  83.043 109.974  0.00  0.00    -0.047 C 
ATOM      6  C   LIG d   1       2.112  83.414 110.232  0.00  0.00     0.091 C 
ENDROOT
BRANCH   1   7
ATOM      7  O   LIG d   1       3.572  85.307 110.768  0.00  0.00    -0.368 OA
BRANCH   7   8
ATOM      8  C   LIG d   1       3.429  86.070 111.992  0.00  0.00     0.119 C 
BRANCH   8   9
ATOM      9  C   LIG d   1       4.498  87.180 111.972  0.00  0.00     0.028 C 
ATOM     10  C   LIG d   1       5.014  87.523 113.380  0.00  0.00     0.006 C 
ENDBRANCH   8   9
BRANCH   8  11
ATOM     11  C   LIG d   1       3.752  85.217 113.222  0.00  0.00     0.028 C 
ATOM     12  C   LIG d   1       2.493  84.683 113.924  0.00  0.00     0.006 C 
ENDBRANCH   8  11
ENDBRANCH   7   8
ENDBRANCH   1   7
BRANCH   6  13
ATOM     13  N   LIG d   1       3.039  82.736 109.289  0.00  0.00    -0.311 N 
ATOM     14  C   LIG d   1       3.707  81.624 109.589  0.00  0.00     0.210 C 
ATOM     15  C   LIG d   1       4.625  81.101 108.480  0.00  0.00     0.109 C 
ATOM     16  O   LIG d   1       3.601  81.002 110.657  0.00  0.00    -0.276 OA
ATOM     17  H   LIG d   1       3.161  83.156 108.388  0.00  0.00     0.149 HD
ENDBRANCH   6  13
BRANCH   5  18
ATOM     18  N   LIG d   1       0.348  81.613 110.200  0.00  0.00     0.381 N 
ATOM     19  H   LIG d   1      -0.405  81.321 109.610  0.00  0.00    -0.090 HD
ATOM     20  H   LIG d   1       0.068  81.485 111.157  0.00  0.00    -0.090 HD
ATOM     21  H   LIG d   1       1.160  81.069 110.008  0.00  0.00    -0.090 HD
ENDBRANCH   5  18
BRANCH   3  22
ATOM     22  C   LIG d   1      -1.029  86.097 111.167  0.00  0.00     0.382 C 
ATOM     23  O   LIG d   1      -1.449  86.866 110.269  0.00  0.00    -0.241 OA
ATOM     24  O   LIG d   1      -1.524  86.159 112.309  0.00  0.00    -0.241 OA
ENDBRANCH   3  22
TORSDOF 7
ENDMDL
MODEL 3
REMARK VINA RESULT:      -6.3      2.390      3.696
REMARK  7 active torsions:
REMARK  status: ('A' for Active; 'I' for Inactive)
REMARK    1  A    between atoms: C_2  and  C_3 
REMARK    2  A    between atoms: C_3  and  O_6 
REMARK    3  A    between atoms: C_3  and  C_4 
REMARK    4  A    between atoms: C_7  and  O_6 
REMARK    5  A    between atoms: C_9  and  C_10 
REMARK    6  A    between atoms: N_15  and  C_14 
REMARK    7  A    between atoms: N_20  and  C_19 
REMARK       I    between atoms: C_22  and  N_20 
ROOT
ATOM      1  C   LIG d   1       1.141  83.677 109.313  0.00  0.00     0.161 C 
ATOM      2  C   LIG d   1       0.661  84.858 109.904  0.00  0.00     0.016 C 
ATOM      3  C   LIG d   1      -0.210  84.872 111.017  0.00  0.00     0.038 C 
ATOM      4  C   LIG d   1      -0.542  83.701 111.714  0.00  0.00     0.028 C 
ATOM      5  C   LIG d   1      -0.487  82.446 110.850  0.00  0.00    -0.047 C 
ATOM      6  C   LIG d   1       0.879  82.393 110.128  0.00  0.00     0.091 C 
ENDROOT
BRANCH   1   7
ATOM      7  O   LIG d   1       2.547  83.811 109.027  0.00  0.00    -0.368 OA
BRANCH   7   8
ATOM      8  C   LIG d   1       3.447  83.602 110.144  0.00  0.00     0.119 C 
BRANCH   8   9
ATOM      9  C   LIG d   1       3.895  84.990 110.643  0.00  0.00     0.028 C 
ATOM     10  C   LIG d   1       3.746  85.141 112.166  0.00  0.00     0.006 C 
ENDBRANCH   8   9
BRANCH   8  11
ATOM     11  C   LIG d   1       4.732  82.897 109.699  0.00  0.00     0.028 C 
ATOM     12  C   LIG d   1       4.661  82.386 108.252  0.00  0.00     0.006 C 
ENDBRANCH   8  11
ENDBRANCH   7   8
ENDBRANCH   1   7
BRANCH   6  13
ATOM     13  N   LIG d   1       0.983  81.240 109.196  0.00  0.00    -0.311 N 
ATOM     14  C   LIG d   1       1.889  80.272 109.327  0.00  0.00     0.210 C 
ATOM     15  C   LIG d   1       1.836  79.188 108.247  0.00  0.00     0.109 C 
ATOM     16  O   LIG d   1       2.710  80.192 110.253  0.00  0.00    -0.276 OA
ATOM     17  H   LIG d   1       0.335  81.210 108.434  0.00  0.00     0.149 HD
ENDBRANCH   6  13
BRANCH   5  18
ATOM     18  N   LIG d   1      -0.719  81.287 111.733  0.00  0.00     0.381 N 
ATOM     19  H   LIG d   1      -0.481  80.442 111.252  0.00  0.00    -0.090 HD
ATOM     20  H   LIG d   1      -1.695  81.250 111.971  0.00  0.00    -0.090 HD
ATOM     21  H   LIG d   1      -0.171  81.373 112.560  0.00  0.00    -0.090 HD
ENDBRANCH   5  18
BRANCH   3  22
ATOM     22  C   LIG d   1      -0.791  86.065 111.420  0.00  0.00     0.382 C 
ATOM     23  O   LIG d   1      -1.540  86.090 112.426  0.00  0.00    -0.241 OA
ATOM     24  O   LIG d   1      -0.611  87.109 110.764  0.00  0.00    -0.241 OA
ENDBRANCH   3  22
TORSDOF 7
ENDMDL
MODEL 4
REMARK VINA RESULT:      -6.3      1.786      5.126
REMARK  7 active torsions:
REMARK  status: ('A' for Active; 'I' for Inactive)
REMARK    1  A    between atoms: C_2  and  C_3 
REMARK    2  A    between atoms: C_3  and  O_6 
REMARK    3  A    between atoms: C_3  and  C_4 
REMARK    4  A    between atoms: C_7  and  O_6 
REMARK    5  A    between atoms: C_9  and  C_10 
REMARK    6  A    between atoms: N_15  and  C_14 
REMARK    7  A    between atoms: N_20  and  C_19 
REMARK       I    between atoms: C_22  and  N_20 
ROOT
ATOM      1  C   LIG d   1       1.988  82.910 111.249  0.00  0.00     0.161 C 
ATOM      2  C   LIG d   1       3.087  82.988 110.378  0.00  0.00     0.016 C 
ATOM      3  C   LIG d   1       3.160  82.287 109.152  0.00  0.00     0.038 C 
ATOM      4  C   LIG d   1       2.066  81.573 108.640  0.00  0.00     0.028 C 
ATOM      5  C   LIG d   1       1.121  81.055 109.720  0.00  0.00    -0.047 C 
ATOM      6  C   LIG d   1       0.739  82.225 110.656  0.00  0.00     0.091 C 
ENDROOT
BRANCH   1   7
ATOM      7  O   LIG d   1       1.655  84.226 111.734  0.00  0.00    -0.368 OA
BRANCH   7   8
ATOM      8  C   LIG d   1       2.207  85.338 110.989  0.00  0.00     0.119 C 
BRANCH   8   9
ATOM      9  C   LIG d   1       2.807  86.326 112.008  0.00  0.00     0.028 C 
ATOM     10  C   LIG d   1       4.292  86.620 111.736  0.00  0.00     0.006 C 
ENDBRANCH   8   9
BRANCH   8  11
ATOM     11  C   LIG d   1       1.109  86.122 110.263  0.00  0.00     0.028 C 
ATOM     12  C   LIG d   1       0.745  85.514 108.899  0.00  0.00     0.006 C 
ENDBRANCH   8  11
ENDBRANCH   7   8
ENDBRANCH   1   7
BRANCH   6  13
ATOM     13  N   LIG d   1      -0.116  81.787 111.790  0.00  0.00    -0.311 N 
ATOM     14  C   LIG d   1      -1.133  82.506 112.262  0.00  0.00     0.210 C 
ATOM     15  C   LIG d   1      -1.871  81.881 113.449  0.00  0.00     0.109 C 
ATOM     16  O   LIG d   1      -1.513  83.588 111.789  0.00  0.00    -0.276 OA
ATOM     17  H   LIG d   1       0.103  80.906 112.213  0.00  0.00     0.149 HD
ENDBRANCH   6  13
BRANCH   5  18
ATOM     18  N   LIG d   1      -0.042  80.452 109.043  0.00  0.00     0.381 N 
ATOM     19  H   LIG d   1      -0.121  79.488 109.298  0.00  0.00    -0.090 HD
ATOM     20  H   LIG d   1       0.097  80.505 108.049  0.00  0.00    -0.090 HD
ATOM     21  H   LIG d   1      -0.874  80.939 109.296  0.00  0.00    -0.090 HD
ENDBRANCH   5  18
BRANCH   3  22
ATOM     22  C   LIG d   1       4.351  82.262 108.444  0.00  0.00     0.382 C 
ATOM     23  O   LIG d   1       4.449  81.565 107.406  0.00  0.00    -0.241 OA
ATOM     24  O   LIG d   1       5.343  82.894 108.855  0.00  0.00    -0.241 OA
ENDBRANCH   3  22
TORSDOF 7
ENDMDL
MODEL 5
REMARK VINA RESULT:      -6.1      2.147      3.819
REMARK  7 active torsions:
REMARK  status: ('A' for Active; 'I' for Inactive)
REMARK    1  A    between atoms: C_2  and  C_3 
REMARK    2  A    between atoms: C_3  and  O_6 
REMARK    3  A    between atoms: C_3  and  C_4 
REMARK    4  A    between atoms: C_7  and  O_6 
REMARK    5  A    between atoms: C_9  and  C_10 
REMARK    6  A    between atoms: N_15  and  C_14 
REMARK    7  A    between atoms: N_20  and  C_19 
REMARK       I    between atoms: C_22  and  N_20 
ROOT
ATOM      1  C   LIG d   1       1.441  81.963 112.423  0.00  0.00     0.161 C 
ATOM      2  C   LIG d   1       0.236  81.253 112.554  0.00  0.00     0.016 C 
ATOM      3  C   LIG d   1      -1.038  81.843 112.385  0.00  0.00     0.038 C 
ATOM      4  C   LIG d   1      -1.190  83.158 111.921  0.00  0.00     0.028 C 
ATOM      5  C   LIG d   1      -0.010  84.061 112.262  0.00  0.00    -0.047 C 
ATOM      6  C   LIG d   1       1.297  83.371 111.808  0.00  0.00     0.091 C 
ENDROOT
BRANCH   1   7
ATOM      7  O   LIG d   1       2.389  81.182 111.669  0.00  0.00    -0.368 OA
BRANCH   7   8
ATOM      8  C   LIG d   1       2.375  81.375 110.233  0.00  0.00     0.119 C 
BRANCH   8   9
ATOM      9  C   LIG d   1       1.985  80.031 109.589  0.00  0.00     0.028 C 
ATOM     10  C   LIG d   1       0.645  80.107 108.837  0.00  0.00     0.006 C 
ENDBRANCH   8   9
BRANCH   8  11
ATOM     11  C   LIG d   1       3.776  81.688 109.700  0.00  0.00     0.028 C 
ATOM     12  C   LIG d   1       3.758  82.248 108.269  0.00  0.00     0.006 C 
ENDBRANCH   8  11
ENDBRANCH   7   8
ENDBRANCH   1   7
BRANCH   6  13
ATOM     13  N   LIG d   1       2.507  84.150 112.180  0.00  0.00    -0.311 N 
ATOM     14  C   LIG d   1       3.096  85.023 111.364  0.00  0.00     0.210 C 
ATOM     15  C   LIG d   1       4.344  85.703 111.937  0.00  0.00     0.109 C 
ATOM     16  O   LIG d   1       2.686  85.322 110.233  0.00  0.00    -0.276 OA
ATOM     17  H   LIG d   1       2.889  83.992 113.092  0.00  0.00     0.149 HD
ENDBRANCH   6  13
BRANCH   5  18
ATOM     18  N   LIG d   1      -0.238  85.360 111.602  0.00  0.00     0.381 N 
ATOM     19  H   LIG d   1       0.543  85.585 111.018  0.00  0.00    -0.090 HD
ATOM     20  H   LIG d   1      -0.320  86.072 112.306  0.00  0.00    -0.090 HD
ATOM     21  H   LIG d   1      -1.071  85.324 111.056  0.00  0.00    -0.090 HD
ENDBRANCH   5  18
BRANCH   3  22
ATOM     22  C   LIG d   1      -2.177  81.126 112.720  0.00  0.00     0.382 C 
ATOM     23  O   LIG d   1      -2.078  80.066 113.383  0.00  0.00    -0.241 OA
ATOM     24  O   LIG d   1      -3.298  81.503 112.329  0.00  0.00    -0.241 OA
ENDBRANCH   3  22
TORSDOF 7
ENDMDL
MODEL 6
REMARK VINA RESULT:      -5.9      2.442      4.335
REMARK  7 active torsions:
REMARK  status: ('A' for Active; 'I' for Inactive)
REMARK    1  A    between atoms: C_2  and  C_3 
REMARK    2  A    between atoms: C_3  and  O_6 
REMARK    3  A    between atoms: C_3  and  C_4 
REMARK    4  A    between atoms: C_7  and  O_6 
REMARK    5  A    between atoms: C_9  and  C_10 
REMARK    6  A    between atoms: N_15  and  C_14 
REMARK    7  A    between atoms: N_20  and  C_19 
REMARK       I    between atoms: C_22  and  N_20 
ROOT
ATOM      1  C   LIG d   1       1.110  82.581 111.904  0.00  0.00     0.161 C 
ATOM      2  C   LIG d   1      -0.075  81.827 111.948  0.00  0.00     0.016 C 
ATOM      3  C   LIG d   1      -1.212  82.208 112.696  0.00  0.00     0.038 C 
ATOM      4  C   LIG d   1      -1.297  83.454 113.334  0.00  0.00     0.028 C 
ATOM      5  C   LIG d   1       0.060  84.024 113.733  0.00  0.00    -0.047 C 
ATOM      6  C   LIG d   1       0.997  83.999 112.504  0.00  0.00     0.091 C 
ENDROOT
BRANCH   1   7
ATOM      7  O   LIG d   1       1.596  82.648 110.549  0.00  0.00    -0.368 OA
BRANCH   7   8
ATOM      8  C   LIG d   1       2.298  81.477 110.065  0.00  0.00     0.119 C 
BRANCH   8   9
ATOM      9  C   LIG d   1       3.771  81.877 109.848  0.00  0.00     0.028 C 
ATOM     10  C   LIG d   1       3.959  83.402 109.771  0.00  0.00     0.006 C 
ENDBRANCH   8   9
BRANCH   8  11
ATOM     11  C   LIG d   1       1.786  81.050 108.686  0.00  0.00     0.028 C 
ATOM     12  C   LIG d   1       0.706  79.959 108.764  0.00  0.00     0.006 C 
ENDBRANCH   8  11
ENDBRANCH   7   8
ENDBRANCH   1   7
BRANCH   6  13
ATOM     13  N   LIG d   1       2.371  84.461 112.829  0.00  0.00    -0.311 N 
ATOM     14  C   LIG d   1       2.763  85.729 112.720  0.00  0.00     0.210 C 
ATOM     15  C   LIG d   1       4.228  85.986 113.086  0.00  0.00     0.109 C 
ATOM     16  O   LIG d   1       2.028  86.670 112.387  0.00  0.00    -0.276 OA
ATOM     17  H   LIG d   1       3.024  83.767 113.137  0.00  0.00     0.149 HD
ENDBRANCH   6  13
BRANCH   5  18
ATOM     18  N   LIG d   1      -0.165  85.383 114.261  0.00  0.00     0.381 N 
ATOM     19  H   LIG d   1       0.244  85.465 115.171  0.00  0.00    -0.090 HD
ATOM     20  H   LIG d   1      -1.154  85.540 114.345  0.00  0.00    -0.090 HD
ATOM     21  H   LIG d   1       0.236  86.058 113.647  0.00  0.00    -0.090 HD
ENDBRANCH   5  18
BRANCH   3  22
ATOM     22  C   LIG d   1      -2.267  81.320 112.844  0.00  0.00     0.382 C 
ATOM     23  O   LIG d   1      -2.096  80.241 113.462  0.00  0.00    -0.241 OA
ATOM     24  O   LIG d   1      -3.374  81.562 112.329  0.00  0.00    -0.241 OA
ENDBRANCH   3  22
TORSDOF 7
ENDMDL
MODEL 7
REMARK VINA RESULT:      -5.6      2.186      5.366
REMARK  7 active torsions:
REMARK  status: ('A' for Active; 'I' for Inactive)
REMARK    1  A    between atoms: C_2  and  C_3 
REMARK    2  A    between atoms: C_3  and  O_6 
REMARK    3  A    between atoms: C_3  and  C_4 
REMARK    4  A    between atoms: C_7  and  O_6 
REMARK    5  A    between atoms: C_9  and  C_10 
REMARK    6  A    between atoms: N_15  and  C_14 
REMARK    7  A    between atoms: N_20  and  C_19 
REMARK       I    between atoms: C_22  and  N_20 
ROOT
ATOM      1  C   LIG d   1       2.590  83.937 111.183  0.00  0.00     0.161 C 
ATOM      2  C   LIG d   1       3.566  83.532 110.257  0.00  0.00     0.016 C 
ATOM      3  C   LIG d   1       3.457  82.361 109.474  0.00  0.00     0.038 C 
ATOM      4  C   LIG d   1       2.286  81.589 109.454  0.00  0.00     0.028 C 
ATOM      5  C   LIG d   1       1.479  81.679 110.744  0.00  0.00    -0.047 C 
ATOM      6  C   LIG d   1       1.256  83.168 111.094  0.00  0.00     0.091 C 
ENDROOT
BRANCH   1   7
ATOM      7  O   LIG d   1       2.361  85.355 111.062  0.00  0.00    -0.368 OA
BRANCH   7   8
ATOM      8  C   LIG d   1       2.877  86.179 112.136  0.00  0.00     0.119 C 
BRANCH   8   9
ATOM      9  C   LIG d   1       4.259  86.700 111.697  0.00  0.00     0.028 C 
ATOM     10  C   LIG d   1       4.797  87.795 112.632  0.00  0.00     0.006 C 
ENDBRANCH   8   9
BRANCH   8  11
ATOM     11  C   LIG d   1       3.138  85.350 113.397  0.00  0.00     0.028 C 
ATOM     12  C   LIG d   1       2.189  85.707 114.552  0.00  0.00     0.006 C 
ENDBRANCH   8  11
ENDBRANCH   7   8
ENDBRANCH   1   7
BRANCH   6  13
ATOM     13  N   LIG d   1       0.547  83.347 112.388  0.00  0.00    -0.311 N 
ATOM     14  C   LIG d   1      -0.780  83.339 112.503  0.00  0.00     0.210 C 
ATOM     15  C   LIG d   1      -1.307  83.560 113.925  0.00  0.00     0.109 C 
ATOM     16  O   LIG d   1      -1.571  83.138 111.569  0.00  0.00    -0.276 OA
ATOM     17  H   LIG d   1       1.112  83.485 113.202  0.00  0.00     0.149 HD
ENDBRANCH   6  13
BRANCH   5  18
ATOM     18  N   LIG d   1       0.220  80.939 110.535  0.00  0.00     0.381 N 
ATOM     19  H   LIG d   1       0.094  80.754 109.560  0.00  0.00    -0.090 HD
ATOM     20  H   LIG d   1      -0.547  81.508 110.849  0.00  0.00    -0.090 HD
ATOM     21  H   LIG d   1       0.239  80.083 111.044  0.00  0.00    -0.090 HD
ENDBRANCH   5  18
BRANCH   3  22
ATOM     22  C   LIG d   1       4.544  81.928 108.729  0.00  0.00     0.382 C 
ATOM     23  O   LIG d   1       5.194  82.747 108.035  0.00  0.00    -0.241 OA
ATOM     24  O   LIG d   1       4.855  80.722 108.707  0.00  0.00    -0.241 OA
ENDBRANCH   3  22
TORSDOF 7
ENDMDL
MODEL 8
REMARK VINA RESULT:      -5.5      2.214      5.392
REMARK  7 active torsions:
REMARK  status: ('A' for Active; 'I' for Inactive)
REMARK    1  A    between atoms: C_2  and  C_3 
REMARK    2  A    between atoms: C_3  and  O_6 
REMARK    3  A    between atoms: C_3  and  C_4 
REMARK    4  A    between atoms: C_7  and  O_6 
REMARK    5  A    between atoms: C_9  and  C_10 
REMARK    6  A    between atoms: N_15  and  C_14 
REMARK    7  A    between atoms: N_20  and  C_19 
REMARK       I    between atoms: C_22  and  N_20 
ROOT
ATOM      1  C   LIG d   1       1.277  83.060 110.575  0.00  0.00     0.161 C 
ATOM      2  C   LIG d   1       1.836  84.346 110.656  0.00  0.00     0.016 C 
ATOM      3  C   LIG d   1       1.497  85.280 111.662  0.00  0.00     0.038 C 
ATOM      4  C   LIG d   1       0.682  84.934 112.751  0.00  0.00     0.028 C 
ATOM      5  C   LIG d   1      -0.302  83.812 112.438  0.00  0.00    -0.047 C 
ATOM      6  C   LIG d   1       0.471  82.626 111.817  0.00  0.00     0.091 C 
ENDROOT
BRANCH   1   7
ATOM      7  O   LIG d   1       2.309  82.096 110.286  0.00  0.00    -0.368 OA
BRANCH   7   8
ATOM      8  C   LIG d   1       2.325  81.565 108.938  0.00  0.00     0.119 C 
BRANCH   8   9
ATOM      9  C   LIG d   1       1.964  80.069 109.026  0.00  0.00     0.028 C 
ATOM     10  C   LIG d   1       3.172  79.195 109.403  0.00  0.00     0.006 C 
ENDBRANCH   8   9
BRANCH   8  11
ATOM     11  C   LIG d   1       3.734  81.607 108.339  0.00  0.00     0.028 C 
ATOM     12  C   LIG d   1       4.647  82.629 109.035  0.00  0.00     0.006 C 
ENDBRANCH   8  11
ENDBRANCH   7   8
ENDBRANCH   1   7
BRANCH   6  13
ATOM     13  N   LIG d   1      -0.429  81.517 111.403  0.00  0.00    -0.311 N 
ATOM     14  C   LIG d   1      -0.806  80.536 112.221  0.00  0.00     0.210 C 
ATOM     15  C   LIG d   1      -1.720  79.482 111.587  0.00  0.00     0.109 C 
ATOM     16  O   LIG d   1      -0.496  80.454 113.419  0.00  0.00    -0.276 OA
ATOM     17  H   LIG d   1      -0.753  81.522 110.456  0.00  0.00     0.149 HD
ENDBRANCH   6  13
BRANCH   5  18
ATOM     18  N   LIG d   1      -0.990  83.459 113.694  0.00  0.00     0.381 N 
ATOM     19  H   LIG d   1      -0.348  83.518 114.460  0.00  0.00    -0.090 HD
ATOM     20  H   LIG d   1      -1.318  82.512 113.630  0.00  0.00    -0.090 HD
ATOM     21  H   LIG d   1      -1.757  84.075 113.847  0.00  0.00    -0.090 HD
ENDBRANCH   5  18
BRANCH   3  22
ATOM     22  C   LIG d   1       1.943  86.589 111.564  0.00  0.00     0.382 C 
ATOM     23  O   LIG d   1       2.387  87.179 112.578  0.00  0.00    -0.241 OA
ATOM     24  O   LIG d   1       1.866  87.203 110.482  0.00  0.00    -0.241 OA
ENDBRANCH   3  22
TORSDOF 7
ENDMDL
MODEL 9
REMARK VINA RESULT:      -4.8      2.428      6.096
REMARK  7 active torsions:
REMARK  status: ('A' for Active; 'I' for Inactive)
REMARK    1  A    between atoms: C_2  and  C_3 
REMARK    2  A    between atoms: C_3  and  O_6 
REMARK    3  A    between atoms: C_3  and  C_4 
REMARK    4  A    between atoms: C_7  and  O_6 
REMARK    5  A    between atoms: C_9  and  C_10 
REMARK    6  A    between atoms: N_15  and  C_14 
REMARK    7  A    between atoms: N_20  and  C_19 
REMARK       I    between atoms: C_22  and  N_20 
ROOT
ATOM      1  C   LIG d   1       1.083  83.369 109.967  0.00  0.00     0.161 C 
ATOM      2  C   LIG d   1       2.144  82.650 109.392  0.00  0.00     0.016 C 
ATOM      3  C   LIG d   1       3.504  82.993 109.572  0.00  0.00     0.038 C 
ATOM      4  C   LIG d   1       3.903  83.995 110.468  0.00  0.00     0.028 C 
ATOM      5  C   LIG d   1       2.847  85.074 110.681  0.00  0.00    -0.047 C 
ATOM      6  C   LIG d   1       1.503  84.397 111.037  0.00  0.00     0.091 C 
ENDROOT
BRANCH   1   7
ATOM      7  O   LIG d   1       0.109  82.454 110.506  0.00  0.00    -0.368 OA
BRANCH   7   8
ATOM      8  C   LIG d   1       0.572  81.104 110.758  0.00  0.00     0.119 C 
BRANCH   8   9
ATOM      9  C   LIG d   1       0.202  80.251 109.529  0.00  0.00     0.028 C 
ATOM     10  C   LIG d   1       1.228  79.138 109.257  0.00  0.00     0.006 C 
ENDBRANCH   8   9
BRANCH   8  11
ATOM     11  C   LIG d   1      -0.176  80.468 111.934  0.00  0.00     0.028 C 
ATOM     12  C   LIG d   1      -1.062  81.472 112.689  0.00  0.00     0.006 C 
ENDBRANCH   8  11
ENDBRANCH   7   8
ENDBRANCH   1   7
BRANCH   6  13
ATOM     13  N   LIG d   1       0.395  85.378 111.179  0.00  0.00    -0.311 N 
ATOM     14  C   LIG d   1      -0.185  85.982 110.144  0.00  0.00     0.210 C 
ATOM     15  C   LIG d   1      -1.295  86.972 110.512  0.00  0.00     0.109 C 
ATOM     16  O   LIG d   1       0.091  85.769 108.954  0.00  0.00    -0.276 OA
ATOM     17  H   LIG d   1       0.087  85.586 112.108  0.00  0.00     0.149 HD
ENDBRANCH   6  13
BRANCH   5  18
ATOM     18  N   LIG d   1       3.338  85.977 111.739  0.00  0.00     0.381 N 
ATOM     19  H   LIG d   1       3.896  86.701 111.333  0.00  0.00    -0.090 HD
ATOM     20  H   LIG d   1       3.915  85.452 112.372  0.00  0.00    -0.090 HD
ATOM     21  H   LIG d   1       2.569  86.376 112.231  0.00  0.00    -0.090 HD
ENDBRANCH   5  18
BRANCH   3  22
ATOM     22  C   LIG d   1       4.479  82.355 108.820  0.00  0.00     0.382 C 
ATOM     23  O   LIG d   1       5.418  83.019 108.319  0.00  0.00    -0.241 OA
ATOM     24  O   LIG d   1       4.406  81.131 108.599  0.00  0.00    -0.241 OA
ENDBRANCH   3  22
TORSDOF 7
ENDMDL
