MODEL 1
REMARK VINA RESULT:      -6.4      0.000      0.000
REMARK  7 active torsions:
REMARK  status: ('A' for Active; 'I' for Inactive)
REMARK    1  A    between atoms: C_2  and  C_3 
REMARK    2  A    between atoms: C_3  and  O_6 
REMARK    3  A    between atoms: C_3  and  C_4 
REMARK    4  A    between atoms: C_7  and  O_6 
REMARK    5  A    between atoms: C_9  and  C_10 
REMARK    6  A    between atoms: N_15  and  C_14 
REMARK    7  A    between atoms: N_20  and  C_19 
REMARK       I    between atoms: C_22  and  N_20 
ROOT
ATOM      1  C   LIG d   1       1.561  83.249 111.394  0.00  0.00     0.161 C 
ATOM      2  C   LIG d   1       2.464  83.020 110.342  0.00  0.00     0.016 C 
ATOM      3  C   LIG d   1       2.434  81.865 109.528  0.00  0.00     0.038 C 
ATOM      4  C   LIG d   1       1.396  80.925 109.614  0.00  0.00     0.028 C 
ATOM      5  C   LIG d   1       0.751  80.859 110.994  0.00  0.00    -0.047 C 
ATOM      6  C   LIG d   1       0.355  82.288 111.431  0.00  0.00     0.091 C 
ENDROOT
BRANCH   1   7
ATOM      7  O   LIG d   1       1.111  84.618 111.362  0.00  0.00    -0.368 OA
BRANCH   7   8
ATOM      8  C   LIG d   1       1.717  85.465 110.355  0.00  0.00     0.119 C 
BRANCH   8   9
ATOM      9  C   LIG d   1       2.375  86.653 111.084  0.00  0.00     0.028 C 
ATOM     10  C   LIG d   1       3.804  86.333 111.555  0.00  0.00     0.006 C 
ENDBRANCH   8   9
BRANCH   8  11
ATOM     11  C   LIG d   1       0.659  86.087 109.439  0.00  0.00     0.028 C 
ATOM     12  C   LIG d   1      -0.771  85.915 109.977  0.00  0.00     0.006 C 
ENDBRANCH   8  11
ENDBRANCH   7   8
ENDBRANCH   1   7
BRANCH   6  13
ATOM     13  N   LIG d   1      -0.208  82.325 112.806  0.00  0.00    -0.311 N 
ATOM     14  C   LIG d   1      -1.508  82.214 113.069  0.00  0.00     0.210 C 
ATOM     15  C   LIG d   1      -1.877  82.298 114.554  0.00  0.00     0.109 C 
ATOM     16  O   LIG d   1      -2.389  82.023 112.217  0.00  0.00    -0.276 OA
ATOM     17  H   LIG d   1       0.440  82.446 113.560  0.00  0.00     0.149 HD
ENDBRANCH   6  13
BRANCH   5  18
ATOM     18  N   LIG d   1      -0.401  79.942 110.904  0.00  0.00     0.381 N 
ATOM     19  H   LIG d   1      -0.524  79.644 109.957  0.00  0.00    -0.090 HD
ATOM     20  H   LIG d   1      -1.230  80.432 111.190  0.00  0.00    -0.090 HD
ATOM     21  H   LIG d   1      -0.254  79.151 111.492  0.00  0.00    -0.090 HD
ENDBRANCH   5  18
BRANCH   3  22
ATOM     22  C   LIG d   1       3.471  81.621 108.641  0.00  0.00     0.382 C 
ATOM     23  O   LIG d   1       4.370  80.798 108.939  0.00  0.00    -0.241 OA
ATOM     24  O   LIG d   1       3.545  82.248 107.567  0.00  0.00    -0.241 OA
ENDBRANCH   3  22
TORSDOF 7
ENDMDL
MODEL 2
REMARK VINA RESULT:      -6.4      2.659      5.243
REMARK  7 active torsions:
REMARK  status: ('A' for Active; 'I' for Inactive)
REMARK    1  A    between atoms: C_2  and  C_3 
REMARK    2  A    between atoms: C_3  and  O_6 
REMARK    3  A    between atoms: C_3  and  C_4 
REMARK    4  A    between atoms: C_7  and  O_6 
REMARK    5  A    between atoms: C_9  and  C_10 
REMARK    6  A    between atoms: N_15  and  C_14 
REMARK    7  A    between atoms: N_20  and  C_19 
REMARK       I    between atoms: C_22  and  N_20 
ROOT
ATOM      1  C   LIG d   1       1.913  84.072 111.932  0.00  0.00     0.161 C 
ATOM      2  C   LIG d   1       0.902  83.099 112.002  0.00  0.00     0.016 C 
ATOM      3  C   LIG d   1      -0.233  83.214 112.837  0.00  0.00     0.038 C 
ATOM      4  C   LIG d   1      -0.512  84.389 113.550  0.00  0.00     0.028 C 
ATOM      5  C   LIG d   1       0.734  85.196 113.901  0.00  0.00    -0.047 C 
ATOM      6  C   LIG d   1       1.570  85.411 112.619  0.00  0.00     0.091 C 
ENDROOT
BRANCH   1   7
ATOM      7  O   LIG d   1       2.282  84.295 110.557  0.00  0.00    -0.368 OA
BRANCH   7   8
ATOM      8  C   LIG d   1       1.229  84.114 109.577  0.00  0.00     0.119 C 
BRANCH   8   9
ATOM      9  C   LIG d   1       1.861  83.454 108.336  0.00  0.00     0.028 C 
ATOM     10  C   LIG d   1       3.132  82.659 108.677  0.00  0.00     0.006 C 
ENDBRANCH   8   9
BRANCH   8  11
ATOM     11  C   LIG d   1       0.686  85.460 109.088  0.00  0.00     0.028 C 
ATOM     12  C   LIG d   1      -0.592  85.890 109.825  0.00  0.00     0.006 C 
ENDBRANCH   8  11
ENDBRANCH   7   8
ENDBRANCH   1   7
BRANCH   6  13
ATOM     13  N   LIG d   1       2.848  86.119 112.888  0.00  0.00    -0.311 N 
ATOM     14  C   LIG d   1       3.193  87.260 112.294  0.00  0.00     0.210 C 
ATOM     15  C   LIG d   1       4.564  87.812 112.700  0.00  0.00     0.109 C 
ATOM     16  O   LIG d   1       2.481  87.885 111.494  0.00  0.00    -0.276 OA
ATOM     17  H   LIG d   1       3.473  85.698 113.548  0.00  0.00     0.149 HD
ENDBRANCH   6  13
BRANCH   5  18
ATOM     18  N   LIG d   1       0.288  86.459 114.519  0.00  0.00     0.381 N 
ATOM     19  H   LIG d   1      -0.393  86.900 113.934  0.00  0.00    -0.090 HD
ATOM     20  H   LIG d   1       1.077  87.074 114.606  0.00  0.00    -0.090 HD
ATOM     21  H   LIG d   1      -0.103  86.279 115.418  0.00  0.00    -0.090 HD
ENDBRANCH   5  18
BRANCH   3  22
ATOM     22  C   LIG d   1      -1.083  82.130 112.995  0.00  0.00     0.382 C 
ATOM     23  O   LIG d   1      -0.647  81.057 113.477  0.00  0.00    -0.241 OA
ATOM     24  O   LIG d   1      -2.269  82.197 112.621  0.00  0.00    -0.241 OA
ENDBRANCH   3  22
TORSDOF 7
ENDMDL
MODEL 3
REMARK VINA RESULT:      -6.2      1.565      4.951
REMARK  7 active torsions:
REMARK  status: ('A' for Active; 'I' for Inactive)
REMARK    1  A    between atoms: C_2  and  C_3 
REMARK    2  A    between atoms: C_3  and  O_6 
REMARK    3  A    between atoms: C_3  and  C_4 
REMARK    4  A    between atoms: C_7  and  O_6 
REMARK    5  A    between atoms: C_9  and  C_10 
REMARK    6  A    between atoms: N_15  and  C_14 
REMARK    7  A    between atoms: N_20  and  C_19 
REMARK       I    between atoms: C_22  and  N_20 
ROOT
ATOM      1  C   LIG d   1       0.620  82.733 111.140  0.00  0.00     0.161 C 
ATOM      2  C   LIG d   1      -0.403  82.549 112.084  0.00  0.00     0.016 C 
ATOM      3  C   LIG d   1      -0.954  81.285 112.397  0.00  0.00     0.038 C 
ATOM      4  C   LIG d   1      -0.411  80.094 111.893  0.00  0.00     0.028 C 
ATOM      5  C   LIG d   1       0.292  80.269 110.551  0.00  0.00    -0.047 C 
ATOM      6  C   LIG d   1       1.301  81.434 110.662  0.00  0.00     0.091 C 
ENDROOT
BRANCH   1   7
ATOM      7  O   LIG d   1       1.603  83.653 111.657  0.00  0.00    -0.368 OA
BRANCH   7   8
ATOM      8  C   LIG d   1       1.622  84.970 111.055  0.00  0.00     0.119 C 
BRANCH   8   9
ATOM      9  C   LIG d   1       0.694  84.931 109.826  0.00  0.00     0.028 C 
ATOM     10  C   LIG d   1      -0.402  86.008 109.883  0.00  0.00     0.006 C 
ENDBRANCH   8   9
BRANCH   8  11
ATOM     11  C   LIG d   1       3.010  85.312 110.505  0.00  0.00     0.028 C 
ATOM     12  C   LIG d   1       3.741  86.369 111.348  0.00  0.00     0.006 C 
ENDBRANCH   8  11
ENDBRANCH   7   8
ENDBRANCH   1   7
BRANCH   6  13
ATOM     13  N   LIG d   1       1.972  81.727 109.369  0.00  0.00    -0.311 N 
ATOM     14  C   LIG d   1       3.294  81.817 109.232  0.00  0.00     0.210 C 
ATOM     15  C   LIG d   1       3.777  82.147 107.816  0.00  0.00     0.109 C 
ATOM     16  O   LIG d   1       4.114  81.623 110.142  0.00  0.00    -0.276 OA
ATOM     17  H   LIG d   1       1.383  81.868 108.571  0.00  0.00     0.149 HD
ENDBRANCH   6  13
BRANCH   5  18
ATOM     18  N   LIG d   1       0.928  78.982 110.211  0.00  0.00     0.381 N 
ATOM     19  H   LIG d   1       1.526  79.100 109.417  0.00  0.00    -0.090 HD
ATOM     20  H   LIG d   1       0.212  78.319 109.971  0.00  0.00    -0.090 HD
ATOM     21  H   LIG d   1       1.455  78.647 110.987  0.00  0.00    -0.090 HD
ENDBRANCH   5  18
BRANCH   3  22
ATOM     22  C   LIG d   1      -2.087  81.208 113.193  0.00  0.00     0.382 C 
ATOM     23  O   LIG d   1      -3.158  81.740 112.813  0.00  0.00    -0.241 OA
ATOM     24  O   LIG d   1      -2.041  80.650 114.306  0.00  0.00    -0.241 OA
ENDBRANCH   3  22
TORSDOF 7
ENDMDL
MODEL 4
REMARK VINA RESULT:      -6.0      2.592      4.965
REMARK  7 active torsions:
REMARK  status: ('A' for Active; 'I' for Inactive)
REMARK    1  A    between atoms: C_2  and  C_3 
REMARK    2  A    between atoms: C_3  and  O_6 
REMARK    3  A    between atoms: C_3  and  C_4 
REMARK    4  A    between atoms: C_7  and  O_6 
REMARK    5  A    between atoms: C_9  and  C_10 
REMARK    6  A    between atoms: N_15  and  C_14 
REMARK    7  A    between atoms: N_20  and  C_19 
REMARK       I    between atoms: C_22  and  N_20 
ROOT
ATOM      1  C   LIG d   1       3.169  83.131 111.811  0.00  0.00     0.161 C 
ATOM      2  C   LIG d   1       3.336  84.497 112.094  0.00  0.00     0.016 C 
ATOM      3  C   LIG d   1       2.870  85.530 111.248  0.00  0.00     0.038 C 
ATOM      4  C   LIG d   1       2.067  85.266 110.128  0.00  0.00     0.028 C 
ATOM      5  C   LIG d   1       2.301  83.883 109.528  0.00  0.00    -0.047 C 
ATOM      6  C   LIG d   1       2.199  82.825 110.650  0.00  0.00     0.091 C 
ENDROOT
BRANCH   1   7
ATOM      7  O   LIG d   1       2.761  82.431 113.003  0.00  0.00    -0.368 OA
BRANCH   7   8
ATOM      8  C   LIG d   1       1.336  82.221 113.162  0.00  0.00     0.119 C 
BRANCH   8   9
ATOM      9  C   LIG d   1       0.853  83.157 114.287  0.00  0.00     0.028 C 
ATOM     10  C   LIG d   1      -0.021  84.307 113.758  0.00  0.00     0.006 C 
ENDBRANCH   8   9
BRANCH   8  11
ATOM     11  C   LIG d   1       1.034  80.803 113.657  0.00  0.00     0.028 C 
ATOM     12  C   LIG d   1      -0.257  80.225 113.056  0.00  0.00     0.006 C 
ENDBRANCH   8  11
ENDBRANCH   7   8
ENDBRANCH   1   7
BRANCH   6  13
ATOM     13  N   LIG d   1       2.498  81.453 110.164  0.00  0.00    -0.311 N 
ATOM     14  C   LIG d   1       1.561  80.601 109.752  0.00  0.00     0.210 C 
ATOM     15  C   LIG d   1       2.083  79.230 109.310  0.00  0.00     0.109 C 
ATOM     16  O   LIG d   1       0.351  80.861 109.679  0.00  0.00    -0.276 OA
ATOM     17  H   LIG d   1       3.459  81.170 110.160  0.00  0.00     0.149 HD
ENDBRANCH   6  13
BRANCH   5  18
ATOM     18  N   LIG d   1       1.306  83.688 108.457  0.00  0.00     0.381 N 
ATOM     19  H   LIG d   1       1.724  83.202 107.690  0.00  0.00    -0.090 HD
ATOM     20  H   LIG d   1       0.999  84.588 108.131  0.00  0.00    -0.090 HD
ATOM     21  H   LIG d   1       0.529  83.170 108.804  0.00  0.00    -0.090 HD
ENDBRANCH   5  18
BRANCH   3  22
ATOM     22  C   LIG d   1       3.240  86.842 111.498  0.00  0.00     0.382 C 
ATOM     23  O   LIG d   1       2.387  87.759 111.425  0.00  0.00    -0.241 OA
ATOM     24  O   LIG d   1       4.426  87.127 111.751  0.00  0.00    -0.241 OA
ENDBRANCH   3  22
TORSDOF 7
ENDMDL
MODEL 5
REMARK VINA RESULT:      -5.6      2.574      5.206
REMARK  7 active torsions:
REMARK  status: ('A' for Active; 'I' for Inactive)
REMARK    1  A    between atoms: C_2  and  C_3 
REMARK    2  A    between atoms: C_3  and  O_6 
REMARK    3  A    between atoms: C_3  and  C_4 
REMARK    4  A    between atoms: C_7  and  O_6 
REMARK    5  A    between atoms: C_9  and  C_10 
REMARK    6  A    between atoms: N_15  and  C_14 
REMARK    7  A    between atoms: N_20  and  C_19 
REMARK       I    between atoms: C_22  and  N_20 
ROOT
ATOM      1  C   LIG d   1       0.916  82.989 111.295  0.00  0.00     0.161 C 
ATOM      2  C   LIG d   1       0.658  84.357 111.483  0.00  0.00     0.016 C 
ATOM      3  C   LIG d   1       0.704  85.308 110.437  0.00  0.00     0.038 C 
ATOM      4  C   LIG d   1       0.863  84.928 109.096  0.00  0.00     0.028 C 
ATOM      5  C   LIG d   1       1.627  83.620 108.924  0.00  0.00    -0.047 C 
ATOM      6  C   LIG d   1       0.982  82.539 109.821  0.00  0.00     0.091 C 
ENDROOT
BRANCH   1   7
ATOM      7  O   LIG d   1      -0.056  82.205 112.015  0.00  0.00    -0.368 OA
BRANCH   7   8
ATOM      8  C   LIG d   1       0.320  81.793 113.352  0.00  0.00     0.119 C 
BRANCH   8   9
ATOM      9  C   LIG d   1       1.822  82.093 113.523  0.00  0.00     0.028 C 
ATOM     10  C   LIG d   1       2.556  80.991 114.306  0.00  0.00     0.006 C 
ENDBRANCH   8   9
BRANCH   8  11
ATOM     11  C   LIG d   1       0.188  80.277 113.526  0.00  0.00     0.028 C 
ATOM     12  C   LIG d   1      -1.056  79.877 114.335  0.00  0.00     0.006 C 
ENDBRANCH   8  11
ENDBRANCH   7   8
ENDBRANCH   1   7
BRANCH   6  13
ATOM     13  N   LIG d   1       1.720  81.250 109.776  0.00  0.00    -0.311 N 
ATOM     14  C   LIG d   1       1.155  80.093 109.438  0.00  0.00     0.210 C 
ATOM     15  C   LIG d   1       2.091  78.880 109.476  0.00  0.00     0.109 C 
ATOM     16  O   LIG d   1      -0.025  79.960 109.081  0.00  0.00    -0.276 OA
ATOM     17  H   LIG d   1       2.691  81.272 110.021  0.00  0.00     0.149 HD
ENDBRANCH   6  13
BRANCH   5  18
ATOM     18  N   LIG d   1       1.600  83.274 107.490  0.00  0.00     0.381 N 
ATOM     19  H   LIG d   1       0.907  83.823 107.022  0.00  0.00    -0.090 HD
ATOM     20  H   LIG d   1       1.351  82.305 107.394  0.00  0.00    -0.090 HD
ATOM     21  H   LIG d   1       2.494  83.436 107.083  0.00  0.00    -0.090 HD
ENDBRANCH   5  18
BRANCH   3  22
ATOM     22  C   LIG d   1       0.629  86.660 110.735  0.00  0.00     0.382 C 
ATOM     23  O   LIG d   1      -0.471  87.171 111.057  0.00  0.00    -0.241 OA
ATOM     24  O   LIG d   1       1.638  87.384 110.642  0.00  0.00    -0.241 OA
ENDBRANCH   3  22
TORSDOF 7
ENDMDL
MODEL 6
REMARK VINA RESULT:      -5.2      2.455      5.805
REMARK  7 active torsions:
REMARK  status: ('A' for Active; 'I' for Inactive)
REMARK    1  A    between atoms: C_2  and  C_3 
REMARK    2  A    between atoms: C_3  and  O_6 
REMARK    3  A    between atoms: C_3  and  C_4 
REMARK    4  A    between atoms: C_7  and  O_6 
REMARK    5  A    between atoms: C_9  and  C_10 
REMARK    6  A    between atoms: N_15  and  C_14 
REMARK    7  A    between atoms: N_20  and  C_19 
REMARK       I    between atoms: C_22  and  N_20 
ROOT
ATOM      1  C   LIG d   1       0.894  83.206 111.737  0.00  0.00     0.161 C 
ATOM      2  C   LIG d   1      -0.184  82.405 112.149  0.00  0.00     0.016 C 
ATOM      3  C   LIG d   1      -1.108  82.795 113.145  0.00  0.00     0.038 C 
ATOM      4  C   LIG d   1      -1.104  84.086 113.695  0.00  0.00     0.028 C 
ATOM      5  C   LIG d   1       0.269  84.748 113.676  0.00  0.00    -0.047 C 
ATOM      6  C   LIG d   1       0.849  84.662 112.245  0.00  0.00     0.091 C 
ENDROOT
BRANCH   1   7
ATOM      7  O   LIG d   1       1.001  83.180 110.300  0.00  0.00    -0.368 OA
BRANCH   7   8
ATOM      8  C   LIG d   1       2.047  82.339 109.753  0.00  0.00     0.119 C 
BRANCH   8   9
ATOM      9  C   LIG d   1       1.407  80.988 109.381  0.00  0.00     0.028 C 
ATOM     10  C   LIG d   1       2.330  79.797 109.689  0.00  0.00     0.006 C 
ENDBRANCH   8   9
BRANCH   8  11
ATOM     11  C   LIG d   1       3.106  82.010 110.810  0.00  0.00     0.028 C 
ATOM     12  C   LIG d   1       4.410  82.798 110.612  0.00  0.00     0.006 C 
ENDBRANCH   8  11
ENDBRANCH   7   8
ENDBRANCH   1   7
BRANCH   6  13
ATOM     13  N   LIG d   1       2.227  85.212 112.158  0.00  0.00    -0.311 N 
ATOM     14  C   LIG d   1       2.567  86.209 111.343  0.00  0.00     0.210 C 
ATOM     15  C   LIG d   1       4.045  86.610 111.395  0.00  0.00     0.109 C 
ATOM     16  O   LIG d   1       1.779  86.822 110.607  0.00  0.00    -0.276 OA
ATOM     17  H   LIG d   1       2.923  84.795 112.744  0.00  0.00     0.149 HD
ENDBRANCH   6  13
BRANCH   5  18
ATOM     18  N   LIG d   1       0.102  86.135 114.149  0.00  0.00     0.381 N 
ATOM     19  H   LIG d   1      -0.606  86.594 113.611  0.00  0.00    -0.090 HD
ATOM     20  H   LIG d   1       0.967  86.630 114.019  0.00  0.00    -0.090 HD
ATOM     21  H   LIG d   1      -0.149  86.139 115.113  0.00  0.00    -0.090 HD
ENDBRANCH   5  18
BRANCH   3  22
ATOM     22  C   LIG d   1      -2.024  81.875 113.631  0.00  0.00     0.382 C 
ATOM     23  O   LIG d   1      -3.247  82.024 113.394  0.00  0.00    -0.241 OA
ATOM     24  O   LIG d   1      -1.648  80.923 114.341  0.00  0.00    -0.241 OA
ENDBRANCH   3  22
TORSDOF 7
ENDMDL
MODEL 7
REMARK VINA RESULT:      -4.7      2.894      5.393
REMARK  7 active torsions:
REMARK  status: ('A' for Active; 'I' for Inactive)
REMARK    1  A    between atoms: C_2  and  C_3 
REMARK    2  A    between atoms: C_3  and  O_6 
REMARK    3  A    between atoms: C_3  and  C_4 
REMARK    4  A    between atoms: C_7  and  O_6 
REMARK    5  A    between atoms: C_9  and  C_10 
REMARK    6  A    between atoms: N_15  and  C_14 
REMARK    7  A    between atoms: N_20  and  C_19 
REMARK       I    between atoms: C_22  and  N_20 
ROOT
ATOM      1  C   LIG d   1       1.723  84.306 111.670  0.00  0.00     0.161 C 
ATOM      2  C   LIG d   1       0.823  83.233 111.780  0.00  0.00     0.016 C 
ATOM      3  C   LIG d   1      -0.310  83.251 112.626  0.00  0.00     0.038 C 
ATOM      4  C   LIG d   1      -0.704  84.409 113.312  0.00  0.00     0.028 C 
ATOM      5  C   LIG d   1       0.453  85.352 113.625  0.00  0.00    -0.047 C 
ATOM      6  C   LIG d   1       1.248  85.619 112.326  0.00  0.00     0.091 C 
ENDROOT
BRANCH   1   7
ATOM      7  O   LIG d   1       2.052  84.528 110.284  0.00  0.00    -0.368 OA
BRANCH   7   8
ATOM      8  C   LIG d   1       3.361  84.077 109.859  0.00  0.00     0.119 C 
BRANCH   8   9
ATOM      9  C   LIG d   1       3.153  83.064 108.717  0.00  0.00     0.028 C 
ATOM     10  C   LIG d   1       1.749  83.159 108.097  0.00  0.00     0.006 C 
ENDBRANCH   8   9
BRANCH   8  11
ATOM     11  C   LIG d   1       4.069  83.295 110.970  0.00  0.00     0.028 C 
ATOM     12  C   LIG d   1       4.152  81.788 110.678  0.00  0.00     0.006 C 
ENDBRANCH   8  11
ENDBRANCH   7   8
ENDBRANCH   1   7
BRANCH   6  13
ATOM     13  N   LIG d   1       2.447  86.465 112.559  0.00  0.00    -0.311 N 
ATOM     14  C   LIG d   1       3.392  86.168 113.449  0.00  0.00     0.210 C 
ATOM     15  C   LIG d   1       4.533  87.186 113.544  0.00  0.00     0.109 C 
ATOM     16  O   LIG d   1       3.410  85.143 114.146  0.00  0.00    -0.276 OA
ATOM     17  H   LIG d   1       2.528  87.301 112.014  0.00  0.00     0.149 HD
ENDBRANCH   6  13
BRANCH   5  18
ATOM     18  N   LIG d   1      -0.118  86.578 114.215  0.00  0.00     0.381 N 
ATOM     19  H   LIG d   1      -1.101  86.458 114.359  0.00  0.00    -0.090 HD
ATOM     20  H   LIG d   1       0.017  87.340 113.575  0.00  0.00    -0.090 HD
ATOM     21  H   LIG d   1       0.330  86.779 115.082  0.00  0.00    -0.090 HD
ENDBRANCH   5  18
BRANCH   3  22
ATOM     22  C   LIG d   1      -1.038  82.088 112.824  0.00  0.00     0.382 C 
ATOM     23  O   LIG d   1      -0.461  81.047 113.222  0.00  0.00    -0.241 OA
ATOM     24  O   LIG d   1      -2.256  82.054 112.568  0.00  0.00    -0.241 OA
ENDBRANCH   3  22
TORSDOF 7
ENDMDL
MODEL 8
REMARK VINA RESULT:      -4.7      2.734      5.464
REMARK  7 active torsions:
REMARK  status: ('A' for Active; 'I' for Inactive)
REMARK    1  A    between atoms: C_2  and  C_3 
REMARK    2  A    between atoms: C_3  and  O_6 
REMARK    3  A    between atoms: C_3  and  C_4 
REMARK    4  A    between atoms: C_7  and  O_6 
REMARK    5  A    between atoms: C_9  and  C_10 
REMARK    6  A    between atoms: N_15  and  C_14 
REMARK    7  A    between atoms: N_20  and  C_19 
REMARK       I    between atoms: C_22  and  N_20 
ROOT
ATOM      1  C   LIG d   1       3.001  84.523 111.750  0.00  0.00     0.161 C 
ATOM      2  C   LIG d   1       3.518  85.684 112.349  0.00  0.00     0.016 C 
ATOM      3  C   LIG d   1       3.065  86.987 112.040  0.00  0.00     0.038 C 
ATOM      4  C   LIG d   1       1.952  87.209 111.215  0.00  0.00     0.028 C 
ATOM      5  C   LIG d   1       1.722  86.098 110.196  0.00  0.00    -0.047 C 
ATOM      6  C   LIG d   1       1.711  84.738 110.931  0.00  0.00     0.091 C 
ENDROOT
BRANCH   1   7
ATOM      7  O   LIG d   1       2.796  83.507 112.751  0.00  0.00    -0.368 OA
BRANCH   7   8
ATOM      8  C   LIG d   1       3.517  82.265 112.556  0.00  0.00     0.119 C 
BRANCH   8   9
ATOM      9  C   LIG d   1       4.173  82.325 111.163  0.00  0.00     0.028 C 
ATOM     10  C   LIG d   1       4.065  80.991 110.406  0.00  0.00     0.006 C 
ENDBRANCH   8   9
BRANCH   8  11
ATOM     11  C   LIG d   1       2.563  81.069 112.504  0.00  0.00     0.028 C 
ATOM     12  C   LIG d   1       1.455  81.143 113.567  0.00  0.00     0.006 C 
ENDBRANCH   8  11
ENDBRANCH   7   8
ENDBRANCH   1   7
BRANCH   6  13
ATOM     13  N   LIG d   1       1.576  83.590 109.996  0.00  0.00    -0.311 N 
ATOM     14  C   LIG d   1       0.632  82.658 110.112  0.00  0.00     0.210 C 
ATOM     15  C   LIG d   1       0.683  81.550 109.055  0.00  0.00     0.109 C 
ATOM     16  O   LIG d   1      -0.263  82.660 110.971  0.00  0.00    -0.276 OA
ATOM     17  H   LIG d   1       2.241  83.527 109.251  0.00  0.00     0.149 HD
ENDBRANCH   6  13
BRANCH   5  18
ATOM     18  N   LIG d   1       0.455  86.388 109.498  0.00  0.00     0.381 N 
ATOM     19  H   LIG d   1       0.114  87.287 109.776  0.00  0.00    -0.090 HD
ATOM     20  H   LIG d   1      -0.226  85.697 109.760  0.00  0.00    -0.090 HD
ATOM     21  H   LIG d   1       0.597  86.369 108.512  0.00  0.00    -0.090 HD
ENDBRANCH   5  18
BRANCH   3  22
ATOM     22  C   LIG d   1       3.753  88.088 112.527  0.00  0.00     0.382 C 
ATOM     23  O   LIG d   1       5.005  88.061 112.602  0.00  0.00    -0.241 OA
ATOM     24  O   LIG d   1       3.136  89.090 112.934  0.00  0.00    -0.241 OA
ENDBRANCH   3  22
TORSDOF 7
ENDMDL
MODEL 9
REMARK VINA RESULT:      -4.2      2.526      5.342
REMARK  7 active torsions:
REMARK  status: ('A' for Active; 'I' for Inactive)
REMARK    1  A    between atoms: C_2  and  C_3 
REMARK    2  A    between atoms: C_3  and  O_6 
REMARK    3  A    between atoms: C_3  and  C_4 
REMARK    4  A    between atoms: C_7  and  O_6 
REMARK    5  A    between atoms: C_9  and  C_10 
REMARK    6  A    between atoms: N_15  and  C_14 
REMARK    7  A    between atoms: N_20  and  C_19 
REMARK       I    between atoms: C_22  and  N_20 
ROOT
ATOM      1  C   LIG d   1       1.112  84.088 112.397  0.00  0.00     0.161 C 
ATOM      2  C   LIG d   1       1.828  85.196 112.878  0.00  0.00     0.016 C 
ATOM      3  C   LIG d   1       2.195  86.297 112.070  0.00  0.00     0.038 C 
ATOM      4  C   LIG d   1       1.736  86.433 110.751  0.00  0.00     0.028 C 
ATOM      5  C   LIG d   1       1.435  85.100 110.074  0.00  0.00    -0.047 C 
ATOM      6  C   LIG d   1       0.508  84.270 110.990  0.00  0.00     0.091 C 
ENDROOT
BRANCH   1   7
ATOM      7  O   LIG d   1       0.086  83.722 113.341  0.00  0.00    -0.368 OA
BRANCH   7   8
ATOM      8  C   LIG d   1       0.359  82.561 114.162  0.00  0.00     0.119 C 
BRANCH   8   9
ATOM      9  C   LIG d   1       1.883  82.334 114.151  0.00  0.00     0.028 C 
ATOM     10  C   LIG d   1       2.264  80.938 113.630  0.00  0.00     0.006 C 
ENDBRANCH   8   9
BRANCH   8  11
ATOM     11  C   LIG d   1      -0.245  81.292 113.552  0.00  0.00     0.028 C 
ATOM     12  C   LIG d   1      -1.326  80.659 114.442  0.00  0.00     0.006 C 
ENDBRANCH   8  11
ENDBRANCH   7   8
ENDBRANCH   1   7
BRANCH   6  13
ATOM     13  N   LIG d   1       0.232  82.917 110.440  0.00  0.00    -0.311 N 
ATOM     14  C   LIG d   1       1.187  82.041 110.133  0.00  0.00     0.210 C 
ATOM     15  C   LIG d   1       0.686  80.711 109.562  0.00  0.00     0.109 C 
ATOM     16  O   LIG d   1       2.400  82.227 110.310  0.00  0.00    -0.276 OA
ATOM     17  H   LIG d   1      -0.728  82.671 110.294  0.00  0.00     0.149 HD
ENDBRANCH   6  13
BRANCH   5  18
ATOM     18  N   LIG d   1       0.837  85.394 108.758  0.00  0.00     0.381 N 
ATOM     19  H   LIG d   1      -0.068  84.972 108.696  0.00  0.00    -0.090 HD
ATOM     20  H   LIG d   1       1.419  84.998 108.040  0.00  0.00    -0.090 HD
ATOM     21  H   LIG d   1       0.762  86.379 108.629  0.00  0.00    -0.090 HD
ENDBRANCH   5  18
BRANCH   3  22
ATOM     22  C   LIG d   1       3.063  87.256 112.567  0.00  0.00     0.382 C 
ATOM     23  O   LIG d   1       2.912  88.462 112.253  0.00  0.00    -0.241 OA
ATOM     24  O   LIG d   1       4.022  86.927 113.290  0.00  0.00    -0.241 OA
ENDBRANCH   3  22
TORSDOF 7
ENDMDL
