MODEL 1
REMARK VINA RESULT:      -5.6      0.000      0.000
REMARK  7 active torsions:
REMARK  status: ('A' for Active; 'I' for Inactive)
REMARK    1  A    between atoms: C_2  and  C_3 
REMARK    2  A    between atoms: C_3  and  O_6 
REMARK    3  A    between atoms: C_3  and  C_4 
REMARK    4  A    between atoms: C_7  and  O_6 
REMARK    5  A    between atoms: C_9  and  C_10 
REMARK    6  A    between atoms: N_15  and  C_14 
REMARK    7  A    between atoms: N_20  and  C_19 
REMARK       I    between atoms: C_22  and  N_20 
ROOT
ATOM      1  C   LIG d   1       2.298  86.362 111.948  0.00  0.00     0.161 C 
ATOM      2  C   LIG d   1       2.986  87.551 112.238  0.00  0.00     0.016 C 
ATOM      3  C   LIG d   1       3.511  87.855 113.516  0.00  0.00     0.038 C 
ATOM      4  C   LIG d   1       3.515  86.916 114.558  0.00  0.00     0.028 C 
ATOM      5  C   LIG d   1       2.385  85.897 114.459  0.00  0.00    -0.047 C 
ATOM      6  C   LIG d   1       2.389  85.278 113.043  0.00  0.00     0.091 C 
ENDROOT
BRANCH   1   7
ATOM      7  O   LIG d   1       2.745  85.835 110.683  0.00  0.00    -0.368 OA
BRANCH   7   8
ATOM      8  C   LIG d   1       1.737  85.720 109.649  0.00  0.00     0.119 C 
BRANCH   8   9
ATOM      9  C   LIG d   1       0.416  86.263 110.227  0.00  0.00     0.028 C 
ATOM     10  C   LIG d   1      -0.818  85.697 109.504  0.00  0.00     0.006 C 
ENDBRANCH   8   9
BRANCH   8  11
ATOM     11  C   LIG d   1       1.456  84.254 109.305  0.00  0.00     0.028 C 
ATOM     12  C   LIG d   1       2.726  83.388 109.305  0.00  0.00     0.006 C 
ENDBRANCH   8  11
ENDBRANCH   7   8
ENDBRANCH   1   7
BRANCH   6  13
ATOM     13  N   LIG d   1       1.263  84.332 112.834  0.00  0.00    -0.311 N 
ATOM     14  C   LIG d   1       1.430  83.027 112.624  0.00  0.00     0.210 C 
ATOM     15  C   LIG d   1       0.136  82.235 112.412  0.00  0.00     0.109 C 
ATOM     16  O   LIG d   1       2.526  82.446 112.624  0.00  0.00    -0.276 OA
ATOM     17  H   LIG d   1       0.337  84.714 112.849  0.00  0.00     0.149 HD
ENDBRANCH   6  13
BRANCH   5  18
ATOM     18  N   LIG d   1       2.589  84.899 115.527  0.00  0.00     0.381 N 
ATOM     19  H   LIG d   1       2.769  84.002 115.122  0.00  0.00    -0.090 HD
ATOM     20  H   LIG d   1       1.751  84.835 116.076  0.00  0.00    -0.090 HD
ATOM     21  H   LIG d   1       3.354  85.171 116.105  0.00  0.00    -0.090 HD
ENDBRANCH   5  18
BRANCH   3  22
ATOM     22  C   LIG d   1       4.005  89.125 113.772  0.00  0.00     0.382 C 
ATOM     23  O   LIG d   1       3.350  89.919 114.489  0.00  0.00    -0.241 OA
ATOM     24  O   LIG d   1       5.075  89.502 113.258  0.00  0.00    -0.241 OA
ENDBRANCH   3  22
TORSDOF 7
ENDMDL
MODEL 2
REMARK VINA RESULT:      -5.6      2.328      3.781
REMARK  7 active torsions:
REMARK  status: ('A' for Active; 'I' for Inactive)
REMARK    1  A    between atoms: C_2  and  C_3 
REMARK    2  A    between atoms: C_3  and  O_6 
REMARK    3  A    between atoms: C_3  and  C_4 
REMARK    4  A    between atoms: C_7  and  O_6 
REMARK    5  A    between atoms: C_9  and  C_10 
REMARK    6  A    between atoms: N_15  and  C_14 
REMARK    7  A    between atoms: N_20  and  C_19 
REMARK       I    between atoms: C_22  and  N_20 
ROOT
ATOM      1  C   LIG d   1       1.803  83.551 113.105  0.00  0.00     0.161 C 
ATOM      2  C   LIG d   1       1.857  84.519 112.088  0.00  0.00     0.016 C 
ATOM      3  C   LIG d   1       2.298  85.845 112.300  0.00  0.00     0.038 C 
ATOM      4  C   LIG d   1       2.863  86.254 113.517  0.00  0.00     0.028 C 
ATOM      5  C   LIG d   1       2.362  85.454 114.715  0.00  0.00    -0.047 C 
ATOM      6  C   LIG d   1       2.519  83.946 114.413  0.00  0.00     0.091 C 
ENDROOT
BRANCH   1   7
ATOM      7  O   LIG d   1       2.315  82.297 112.612  0.00  0.00    -0.368 OA
BRANCH   7   8
ATOM      8  C   LIG d   1       1.880  81.906 111.287  0.00  0.00     0.119 C 
BRANCH   8   9
ATOM      9  C   LIG d   1       0.935  80.699 111.447  0.00  0.00     0.028 C 
ATOM     10  C   LIG d   1       0.793  79.889 110.147  0.00  0.00     0.006 C 
ENDBRANCH   8   9
BRANCH   8  11
ATOM     11  C   LIG d   1       3.051  81.396 110.443  0.00  0.00     0.028 C 
ATOM     12  C   LIG d   1       4.230  82.381 110.402  0.00  0.00     0.006 C 
ENDBRANCH   8  11
ENDBRANCH   7   8
ENDBRANCH   1   7
BRANCH   6  13
ATOM     13  N   LIG d   1       1.975  83.091 115.500  0.00  0.00    -0.311 N 
ATOM     14  C   LIG d   1       2.714  82.625 116.506  0.00  0.00     0.210 C 
ATOM     15  C   LIG d   1       1.960  81.745 117.508  0.00  0.00     0.109 C 
ATOM     16  O   LIG d   1       3.914  82.884 116.681  0.00  0.00    -0.276 OA
ATOM     17  H   LIG d   1       1.003  82.857 115.453  0.00  0.00     0.149 HD
ENDBRANCH   6  13
BRANCH   5  18
ATOM     18  N   LIG d   1       3.132  85.890 115.896  0.00  0.00     0.381 N 
ATOM     19  H   LIG d   1       2.702  86.697 116.301  0.00  0.00    -0.090 HD
ATOM     20  H   LIG d   1       4.060  86.141 115.604  0.00  0.00    -0.090 HD
ATOM     21  H   LIG d   1       3.174  85.155 116.566  0.00  0.00    -0.090 HD
ENDBRANCH   5  18
BRANCH   3  22
ATOM     22  C   LIG d   1       2.140  86.790 111.297  0.00  0.00     0.382 C 
ATOM     23  O   LIG d   1       2.236  88.012 111.567  0.00  0.00    -0.241 OA
ATOM     24  O   LIG d   1       1.859  86.438 110.136  0.00  0.00    -0.241 OA
ENDBRANCH   3  22
TORSDOF 7
ENDMDL
MODEL 3
REMARK VINA RESULT:      -5.6      2.062      2.625
REMARK  7 active torsions:
REMARK  status: ('A' for Active; 'I' for Inactive)
REMARK    1  A    between atoms: C_2  and  C_3 
REMARK    2  A    between atoms: C_3  and  O_6 
REMARK    3  A    between atoms: C_3  and  C_4 
REMARK    4  A    between atoms: C_7  and  O_6 
REMARK    5  A    between atoms: C_9  and  C_10 
REMARK    6  A    between atoms: N_15  and  C_14 
REMARK    7  A    between atoms: N_20  and  C_19 
REMARK       I    between atoms: C_22  and  N_20 
ROOT
ATOM      1  C   LIG d   1       2.501  85.900 113.976  0.00  0.00     0.161 C 
ATOM      2  C   LIG d   1       3.043  87.015 113.315  0.00  0.00     0.016 C 
ATOM      3  C   LIG d   1       4.127  87.768 113.822  0.00  0.00     0.038 C 
ATOM      4  C   LIG d   1       4.845  87.364 114.958  0.00  0.00     0.028 C 
ATOM      5  C   LIG d   1       4.017  86.534 115.933  0.00  0.00    -0.047 C 
ATOM      6  C   LIG d   1       3.342  85.378 115.160  0.00  0.00     0.091 C 
ENDROOT
BRANCH   1   7
ATOM      7  O   LIG d   1       2.258  84.841 113.029  0.00  0.00    -0.368 OA
BRANCH   7   8
ATOM      8  C   LIG d   1       2.735  85.070 111.681  0.00  0.00     0.119 C 
BRANCH   8   9
ATOM      9  C   LIG d   1       1.522  84.967 110.736  0.00  0.00     0.028 C 
ATOM     10  C   LIG d   1       0.976  86.345 110.329  0.00  0.00     0.006 C 
ENDBRANCH   8   9
BRANCH   8  11
ATOM     11  C   LIG d   1       3.693  83.962 111.233  0.00  0.00     0.028 C 
ATOM     12  C   LIG d   1       3.570  83.637 109.736  0.00  0.00     0.006 C 
ENDBRANCH   8  11
ENDBRANCH   7   8
ENDBRANCH   1   7
BRANCH   6  13
ATOM     13  N   LIG d   1       2.446  84.566 116.024  0.00  0.00    -0.311 N 
ATOM     14  C   LIG d   1       2.839  83.459 116.653  0.00  0.00     0.210 C 
ATOM     15  C   LIG d   1       1.751  82.763 117.477  0.00  0.00     0.109 C 
ATOM     16  O   LIG d   1       3.993  83.007 116.633  0.00  0.00    -0.276 OA
ATOM     17  H   LIG d   1       1.500  84.879 116.122  0.00  0.00     0.149 HD
ENDBRANCH   6  13
BRANCH   5  18
ATOM     18  N   LIG d   1       4.923  86.065 116.999  0.00  0.00     0.381 N 
ATOM     19  H   LIG d   1       5.700  86.689 117.082  0.00  0.00    -0.090 HD
ATOM     20  H   LIG d   1       5.274  85.156 116.751  0.00  0.00    -0.090 HD
ATOM     21  H   LIG d   1       4.433  86.015 117.865  0.00  0.00    -0.090 HD
ENDBRANCH   5  18
BRANCH   3  22
ATOM     22  C   LIG d   1       4.478  88.963 113.212  0.00  0.00     0.382 C 
ATOM     23  O   LIG d   1       3.678  89.929 113.219  0.00  0.00    -0.241 OA
ATOM     24  O   LIG d   1       5.567  89.072 112.616  0.00  0.00    -0.241 OA
ENDBRANCH   3  22
TORSDOF 7
ENDMDL
MODEL 4
REMARK VINA RESULT:      -5.4     13.091     15.355
REMARK  7 active torsions:
REMARK  status: ('A' for Active; 'I' for Inactive)
REMARK    1  A    between atoms: C_2  and  C_3 
REMARK    2  A    between atoms: C_3  and  O_6 
REMARK    3  A    between atoms: C_3  and  C_4 
REMARK    4  A    between atoms: C_7  and  O_6 
REMARK    5  A    between atoms: C_9  and  C_10 
REMARK    6  A    between atoms: N_15  and  C_14 
REMARK    7  A    between atoms: N_20  and  C_19 
REMARK       I    between atoms: C_22  and  N_20 
ROOT
ATOM      1  C   LIG d   1      -5.367  73.443 116.429  0.00  0.00     0.161 C 
ATOM      2  C   LIG d   1      -5.123  74.323 115.361  0.00  0.00     0.016 C 
ATOM      3  C   LIG d   1      -6.006  75.364 114.993  0.00  0.00     0.038 C 
ATOM      4  C   LIG d   1      -7.128  75.693 115.768  0.00  0.00     0.028 C 
ATOM      5  C   LIG d   1      -7.682  74.515 116.562  0.00  0.00    -0.047 C 
ATOM      6  C   LIG d   1      -6.530  73.857 117.355  0.00  0.00     0.091 C 
ENDROOT
BRANCH   1   7
ATOM      7  O   LIG d   1      -4.159  73.258 117.194  0.00  0.00    -0.368 OA
BRANCH   7   8
ATOM      8  C   LIG d   1      -3.202  74.344 117.149  0.00  0.00     0.119 C 
BRANCH   8   9
ATOM      9  C   LIG d   1      -1.796  73.720 117.063  0.00  0.00     0.028 C 
ATOM     10  C   LIG d   1      -1.415  72.955 118.341  0.00  0.00     0.006 C 
ENDBRANCH   8   9
BRANCH   8  11
ATOM     11  C   LIG d   1      -3.210  75.148 118.452  0.00  0.00     0.028 C 
ATOM     12  C   LIG d   1      -4.020  76.450 118.345  0.00  0.00     0.006 C 
ENDBRANCH   8  11
ENDBRANCH   7   8
ENDBRANCH   1   7
BRANCH   6  13
ATOM     13  N   LIG d   1      -6.970  72.645 118.093  0.00  0.00    -0.311 N 
ATOM     14  C   LIG d   1      -7.357  71.521 117.492  0.00  0.00     0.210 C 
ATOM     15  C   LIG d   1      -7.790  70.397 118.440  0.00  0.00     0.109 C 
ATOM     16  O   LIG d   1      -7.352  71.336 116.266  0.00  0.00    -0.276 OA
ATOM     17  H   LIG d   1      -6.975  72.696 119.093  0.00  0.00     0.149 HD
ENDBRANCH   6  13
BRANCH   5  18
ATOM     18  N   LIG d   1      -8.760  75.029 117.428  0.00  0.00     0.381 N 
ATOM     19  H   LIG d   1      -9.501  75.396 116.865  0.00  0.00    -0.090 HD
ATOM     20  H   LIG d   1      -8.395  75.775 117.994  0.00  0.00    -0.090 HD
ATOM     21  H   LIG d   1      -9.106  74.299 118.012  0.00  0.00    -0.090 HD
ENDBRANCH   5  18
BRANCH   3  22
ATOM     22  C   LIG d   1      -5.791  76.063 113.815  0.00  0.00     0.382 C 
ATOM     23  O   LIG d   1      -4.628  76.402 113.490  0.00  0.00    -0.241 OA
ATOM     24  O   LIG d   1      -6.751  76.397 113.095  0.00  0.00    -0.241 OA
ENDBRANCH   3  22
TORSDOF 7
ENDMDL
MODEL 5
REMARK VINA RESULT:      -5.2      2.957      6.371
REMARK  7 active torsions:
REMARK  status: ('A' for Active; 'I' for Inactive)
REMARK    1  A    between atoms: C_2  and  C_3 
REMARK    2  A    between atoms: C_3  and  O_6 
REMARK    3  A    between atoms: C_3  and  C_4 
REMARK    4  A    between atoms: C_7  and  O_6 
REMARK    5  A    between atoms: C_9  and  C_10 
REMARK    6  A    between atoms: N_15  and  C_14 
REMARK    7  A    between atoms: N_20  and  C_19 
REMARK       I    between atoms: C_22  and  N_20 
ROOT
ATOM      1  C   LIG d   1       2.688  87.238 114.594  0.00  0.00     0.161 C 
ATOM      2  C   LIG d   1       2.500  86.462 113.438  0.00  0.00     0.016 C 
ATOM      3  C   LIG d   1       3.237  86.652 112.246  0.00  0.00     0.038 C 
ATOM      4  C   LIG d   1       4.323  87.537 112.178  0.00  0.00     0.028 C 
ATOM      5  C   LIG d   1       4.221  88.697 113.163  0.00  0.00    -0.047 C 
ATOM      6  C   LIG d   1       3.944  88.134 114.575  0.00  0.00     0.091 C 
ENDROOT
BRANCH   1   7
ATOM      7  O   LIG d   1       2.697  86.386 115.757  0.00  0.00    -0.368 OA
BRANCH   7   8
ATOM      8  C   LIG d   1       3.978  85.813 116.117  0.00  0.00     0.119 C 
BRANCH   8   9
ATOM      9  C   LIG d   1       3.868  84.286 115.938  0.00  0.00     0.028 C 
ATOM     10  C   LIG d   1       2.425  83.779 116.098  0.00  0.00     0.006 C 
ENDBRANCH   8   9
BRANCH   8  11
ATOM     11  C   LIG d   1       4.286  86.026 117.602  0.00  0.00     0.028 C 
ATOM     12  C   LIG d   1       3.217  86.866 118.318  0.00  0.00     0.006 C 
ENDBRANCH   8  11
ENDBRANCH   7   8
ENDBRANCH   1   7
BRANCH   6  13
ATOM     13  N   LIG d   1       3.746  89.206 115.585  0.00  0.00    -0.311 N 
ATOM     14  C   LIG d   1       4.725  89.678 116.354  0.00  0.00     0.210 C 
ATOM     15  C   LIG d   1       4.302  90.769 117.343  0.00  0.00     0.109 C 
ATOM     16  O   LIG d   1       5.911  89.320 116.290  0.00  0.00    -0.276 OA
ATOM     17  H   LIG d   1       2.821  89.577 115.682  0.00  0.00     0.149 HD
ENDBRANCH   6  13
BRANCH   5  18
ATOM     18  N   LIG d   1       5.479  89.462 113.082  0.00  0.00     0.381 N 
ATOM     19  H   LIG d   1       5.914  89.307 112.194  0.00  0.00    -0.090 HD
ATOM     20  H   LIG d   1       6.104  89.138 113.799  0.00  0.00    -0.090 HD
ATOM     21  H   LIG d   1       5.296  90.434 113.205  0.00  0.00    -0.090 HD
ENDBRANCH   5  18
BRANCH   3  22
ATOM     22  C   LIG d   1       2.862  85.979 111.092  0.00  0.00     0.382 C 
ATOM     23  O   LIG d   1       3.396  84.880 110.806  0.00  0.00    -0.241 OA
ATOM     24  O   LIG d   1       2.030  86.479 110.312  0.00  0.00    -0.241 OA
ENDBRANCH   3  22
TORSDOF 7
ENDMDL
MODEL 6
REMARK VINA RESULT:      -5.1     13.269     16.311
REMARK  7 active torsions:
REMARK  status: ('A' for Active; 'I' for Inactive)
REMARK    1  A    between atoms: C_2  and  C_3 
REMARK    2  A    between atoms: C_3  and  O_6 
REMARK    3  A    between atoms: C_3  and  C_4 
REMARK    4  A    between atoms: C_7  and  O_6 
REMARK    5  A    between atoms: C_9  and  C_10 
REMARK    6  A    between atoms: N_15  and  C_14 
REMARK    7  A    between atoms: N_20  and  C_19 
REMARK       I    between atoms: C_22  and  N_20 
ROOT
ATOM      1  C   LIG d   1      -6.441  74.488 118.288  0.00  0.00     0.161 C 
ATOM      2  C   LIG d   1      -6.589  73.092 118.226  0.00  0.00     0.016 C 
ATOM      3  C   LIG d   1      -7.694  72.453 117.619  0.00  0.00     0.038 C 
ATOM      4  C   LIG d   1      -8.659  73.169 116.895  0.00  0.00     0.028 C 
ATOM      5  C   LIG d   1      -8.819  74.612 117.362  0.00  0.00    -0.047 C 
ATOM      6  C   LIG d   1      -7.427  75.282 117.407  0.00  0.00     0.091 C 
ENDROOT
BRANCH   1   7
ATOM      7  O   LIG d   1      -5.082  74.850 117.971  0.00  0.00    -0.368 OA
BRANCH   7   8
ATOM      8  C   LIG d   1      -4.368  73.941 117.098  0.00  0.00     0.119 C 
BRANCH   8   9
ATOM      9  C   LIG d   1      -2.949  73.766 117.673  0.00  0.00     0.028 C 
ATOM     10  C   LIG d   1      -2.637  74.781 118.785  0.00  0.00     0.006 C 
ENDBRANCH   8   9
BRANCH   8  11
ATOM     11  C   LIG d   1      -4.169  74.547 115.705  0.00  0.00     0.028 C 
ATOM     12  C   LIG d   1      -5.181  74.019 114.676  0.00  0.00     0.006 C 
ENDBRANCH   8  11
ENDBRANCH   7   8
ENDBRANCH   1   7
BRANCH   6  13
ATOM     13  N   LIG d   1      -7.484  76.671 117.934  0.00  0.00    -0.311 N 
ATOM     14  C   LIG d   1      -6.804  77.685 117.402  0.00  0.00     0.210 C 
ATOM     15  C   LIG d   1      -6.988  79.030 118.112  0.00  0.00     0.109 C 
ATOM     16  O   LIG d   1      -6.092  77.605 116.390  0.00  0.00    -0.276 OA
ATOM     17  H   LIG d   1      -8.062  76.831 118.735  0.00  0.00     0.149 HD
ENDBRANCH   6  13
BRANCH   5  18
ATOM     18  N   LIG d   1      -9.753  75.279 116.436  0.00  0.00     0.381 N 
ATOM     19  H   LIG d   1     -10.696  75.115 116.729  0.00  0.00    -0.090 HD
ATOM     20  H   LIG d   1      -9.636  74.888 115.518  0.00  0.00    -0.090 HD
ATOM     21  H   LIG d   1      -9.570  76.258 116.414  0.00  0.00    -0.090 HD
ENDBRANCH   5  18
BRANCH   3  22
ATOM     22  C   LIG d   1      -7.864  71.085 117.768  0.00  0.00     0.382 C 
ATOM     23  O   LIG d   1      -7.513  70.521 118.833  0.00  0.00    -0.241 OA
ATOM     24  O   LIG d   1      -8.322  70.400 116.834  0.00  0.00    -0.241 OA
ENDBRANCH   3  22
TORSDOF 7
ENDMDL
MODEL 7
REMARK VINA RESULT:      -5.0      2.179      4.441
REMARK  7 active torsions:
REMARK  status: ('A' for Active; 'I' for Inactive)
REMARK    1  A    between atoms: C_2  and  C_3 
REMARK    2  A    between atoms: C_3  and  O_6 
REMARK    3  A    between atoms: C_3  and  C_4 
REMARK    4  A    between atoms: C_7  and  O_6 
REMARK    5  A    between atoms: C_9  and  C_10 
REMARK    6  A    between atoms: N_15  and  C_14 
REMARK    7  A    between atoms: N_20  and  C_19 
REMARK       I    between atoms: C_22  and  N_20 
ROOT
ATOM      1  C   LIG d   1       2.980  85.537 114.226  0.00  0.00     0.161 C 
ATOM      2  C   LIG d   1       3.464  86.855 114.181  0.00  0.00     0.016 C 
ATOM      3  C   LIG d   1       3.620  87.586 112.980  0.00  0.00     0.038 C 
ATOM      4  C   LIG d   1       3.157  87.097 111.749  0.00  0.00     0.028 C 
ATOM      5  C   LIG d   1       3.125  85.574 111.676  0.00  0.00    -0.047 C 
ATOM      6  C   LIG d   1       2.365  85.028 112.906  0.00  0.00     0.091 C 
ENDROOT
BRANCH   1   7
ATOM      7  O   LIG d   1       2.033  85.402 115.305  0.00  0.00    -0.368 OA
BRANCH   7   8
ATOM      8  C   LIG d   1       2.447  84.568 116.415  0.00  0.00     0.119 C 
BRANCH   8   9
ATOM      9  C   LIG d   1       2.436  85.446 117.682  0.00  0.00     0.028 C 
ATOM     10  C   LIG d   1       1.506  86.663 117.545  0.00  0.00     0.006 C 
ENDBRANCH   8   9
BRANCH   8  11
ATOM     11  C   LIG d   1       3.898  84.105 116.254  0.00  0.00     0.028 C 
ATOM     12  C   LIG d   1       4.811  84.606 117.384  0.00  0.00     0.006 C 
ENDBRANCH   8  11
ENDBRANCH   7   8
ENDBRANCH   1   7
BRANCH   6  13
ATOM     13  N   LIG d   1       2.361  83.542 112.956  0.00  0.00    -0.311 N 
ATOM     14  C   LIG d   1       1.374  82.795 112.464  0.00  0.00     0.210 C 
ATOM     15  C   LIG d   1       1.559  81.284 112.637  0.00  0.00     0.109 C 
ATOM     16  O   LIG d   1       0.378  83.239 111.873  0.00  0.00    -0.276 OA
ATOM     17  H   LIG d   1       3.146  83.098 113.390  0.00  0.00     0.149 HD
ENDBRANCH   6  13
BRANCH   5  18
ATOM     18  N   LIG d   1       2.495  85.203 110.395  0.00  0.00     0.381 N 
ATOM     19  H   LIG d   1       2.312  84.219 110.380  0.00  0.00    -0.090 HD
ATOM     20  H   LIG d   1       3.129  85.418 109.646  0.00  0.00    -0.090 HD
ATOM     21  H   LIG d   1       1.644  85.708 110.274  0.00  0.00    -0.090 HD
ENDBRANCH   5  18
BRANCH   3  22
ATOM     22  C   LIG d   1       4.281  88.804 112.998  0.00  0.00     0.382 C 
ATOM     23  O   LIG d   1       3.652  89.856 113.267  0.00  0.00    -0.241 OA
ATOM     24  O   LIG d   1       5.490  88.871 112.705  0.00  0.00    -0.241 OA
ENDBRANCH   3  22
TORSDOF 7
ENDMDL
MODEL 8
REMARK VINA RESULT:      -5.0      9.883     14.021
REMARK  7 active torsions:
REMARK  status: ('A' for Active; 'I' for Inactive)
REMARK    1  A    between atoms: C_2  and  C_3 
REMARK    2  A    between atoms: C_3  and  O_6 
REMARK    3  A    between atoms: C_3  and  C_4 
REMARK    4  A    between atoms: C_7  and  O_6 
REMARK    5  A    between atoms: C_9  and  C_10 
REMARK    6  A    between atoms: N_15  and  C_14 
REMARK    7  A    between atoms: N_20  and  C_19 
REMARK       I    between atoms: C_22  and  N_20 
ROOT
ATOM      1  C   LIG d   1      -3.320  75.344 116.622  0.00  0.00     0.161 C 
ATOM      2  C   LIG d   1      -4.051  74.239 117.090  0.00  0.00     0.016 C 
ATOM      3  C   LIG d   1      -5.202  73.736 116.441  0.00  0.00     0.038 C 
ATOM      4  C   LIG d   1      -5.616  74.215 115.189  0.00  0.00     0.028 C 
ATOM      5  C   LIG d   1      -5.206  75.661 114.928  0.00  0.00    -0.047 C 
ATOM      6  C   LIG d   1      -3.692  75.810 115.199  0.00  0.00     0.091 C 
ENDROOT
BRANCH   1   7
ATOM      7  O   LIG d   1      -1.908  75.068 116.706  0.00  0.00    -0.368 OA
BRANCH   7   8
ATOM      8  C   LIG d   1      -1.497  73.730 116.331  0.00  0.00     0.119 C 
BRANCH   8   9
ATOM      9  C   LIG d   1      -0.469  73.251 117.375  0.00  0.00     0.028 C 
ATOM     10  C   LIG d   1      -1.137  72.695 118.644  0.00  0.00     0.006 C 
ENDBRANCH   8   9
BRANCH   8  11
ATOM     11  C   LIG d   1      -0.748  73.731 114.996  0.00  0.00     0.028 C 
ATOM     12  C   LIG d   1      -0.038  75.064 114.712  0.00  0.00     0.006 C 
ENDBRANCH   8  11
ENDBRANCH   7   8
ENDBRANCH   1   7
BRANCH   6  13
ATOM     13  N   LIG d   1      -3.224  77.213 115.048  0.00  0.00    -0.311 N 
ATOM     14  C   LIG d   1      -2.736  77.705 113.911  0.00  0.00     0.210 C 
ATOM     15  C   LIG d   1      -2.293  79.170 113.978  0.00  0.00     0.109 C 
ATOM     16  O   LIG d   1      -2.658  77.077 112.845  0.00  0.00    -0.276 OA
ATOM     17  H   LIG d   1      -3.281  77.801 115.856  0.00  0.00     0.149 HD
ENDBRANCH   6  13
BRANCH   5  18
ATOM     18  N   LIG d   1      -5.579  75.986 113.538  0.00  0.00     0.381 N 
ATOM     19  H   LIG d   1      -4.848  76.514 113.105  0.00  0.00    -0.090 HD
ATOM     20  H   LIG d   1      -6.412  76.549 113.548  0.00  0.00    -0.090 HD
ATOM     21  H   LIG d   1      -5.742  75.148 113.024  0.00  0.00    -0.090 HD
ENDBRANCH   5  18
BRANCH   3  22
ATOM     22  C   LIG d   1      -5.976  72.770 117.065  0.00  0.00     0.382 C 
ATOM     23  O   LIG d   1      -6.196  71.676 116.491  0.00  0.00    -0.241 OA
ATOM     24  O   LIG d   1      -6.493  72.994 118.175  0.00  0.00    -0.241 OA
ENDBRANCH   3  22
TORSDOF 7
ENDMDL
MODEL 9
REMARK VINA RESULT:      -4.9     12.263     14.177
REMARK  7 active torsions:
REMARK  status: ('A' for Active; 'I' for Inactive)
REMARK    1  A    between atoms: C_2  and  C_3 
REMARK    2  A    between atoms: C_3  and  O_6 
REMARK    3  A    between atoms: C_3  and  C_4 
REMARK    4  A    between atoms: C_7  and  O_6 
REMARK    5  A    between atoms: C_9  and  C_10 
REMARK    6  A    between atoms: N_15  and  C_14 
REMARK    7  A    between atoms: N_20  and  C_19 
REMARK       I    between atoms: C_22  and  N_20 
ROOT
ATOM      1  C   LIG d   1      10.909  75.918 114.861  0.00  0.00     0.161 C 
ATOM      2  C   LIG d   1       9.550  76.228 115.037  0.00  0.00     0.016 C 
ATOM      3  C   LIG d   1       9.029  77.537 114.918  0.00  0.00     0.038 C 
ATOM      4  C   LIG d   1       9.813  78.609 114.464  0.00  0.00     0.028 C 
ATOM      5  C   LIG d   1      11.299  78.442 114.763  0.00  0.00    -0.047 C 
ATOM      6  C   LIG d   1      11.759  77.055 114.257  0.00  0.00     0.091 C 
ENDROOT
BRANCH   1   7
ATOM      7  O   LIG d   1      11.039  74.721 114.070  0.00  0.00    -0.368 OA
BRANCH   7   8
ATOM      8  C   LIG d   1      11.565  73.558 114.755  0.00  0.00     0.119 C 
BRANCH   8   9
ATOM      9  C   LIG d   1      12.496  72.823 113.771  0.00  0.00     0.028 C 
ATOM     10  C   LIG d   1      13.979  73.156 114.007  0.00  0.00     0.006 C 
ENDBRANCH   8   9
BRANCH   8  11
ATOM     11  C   LIG d   1      10.454  72.556 115.087  0.00  0.00     0.028 C 
ATOM     12  C   LIG d   1      10.633  71.905 116.467  0.00  0.00     0.006 C 
ENDBRANCH   8  11
ENDBRANCH   7   8
ENDBRANCH   1   7
BRANCH   6  13
ATOM     13  N   LIG d   1      13.182  76.776 114.585  0.00  0.00    -0.311 N 
ATOM     14  C   LIG d   1      14.188  77.020 113.747  0.00  0.00     0.210 C 
ATOM     15  C   LIG d   1      15.575  76.640 114.275  0.00  0.00     0.109 C 
ATOM     16  O   LIG d   1      14.068  77.545 112.630  0.00  0.00    -0.276 OA
ATOM     17  H   LIG d   1      13.373  76.379 115.483  0.00  0.00     0.149 HD
ENDBRANCH   6  13
BRANCH   5  18
ATOM     18  N   LIG d   1      12.012  79.559 114.116  0.00  0.00     0.381 N 
ATOM     19  H   LIG d   1      12.557  79.215 113.351  0.00  0.00    -0.090 HD
ATOM     20  H   LIG d   1      12.635  79.978 114.784  0.00  0.00    -0.090 HD
ATOM     21  H   LIG d   1      11.359  80.237 113.789  0.00  0.00    -0.090 HD
ENDBRANCH   5  18
BRANCH   3  22
ATOM     22  C   LIG d   1       7.719  77.792 115.294  0.00  0.00     0.382 C 
ATOM     23  O   LIG d   1       6.772  77.269 114.659  0.00  0.00    -0.241 OA
ATOM     24  O   LIG d   1       7.472  78.574 116.232  0.00  0.00    -0.241 OA
ENDBRANCH   3  22
TORSDOF 7
ENDMDL
