MODEL 1
REMARK VINA RESULT:      -6.6      0.000      0.000
REMARK  7 active torsions:
REMARK  status: ('A' for Active; 'I' for Inactive)
REMARK    1  A    between atoms: C_2  and  C_3 
REMARK    2  A    between atoms: C_3  and  O_6 
REMARK    3  A    between atoms: C_3  and  C_4 
REMARK    4  A    between atoms: C_7  and  O_6 
REMARK    5  A    between atoms: C_9  and  C_10 
REMARK    6  A    between atoms: N_15  and  C_14 
REMARK    7  A    between atoms: N_20  and  C_19 
REMARK       I    between atoms: C_22  and  N_20 
ROOT
ATOM      1  C   LIG d   1       0.764  82.880 111.264  0.00  0.00     0.161 C 
ATOM      2  C   LIG d   1       1.308  83.270 110.028  0.00  0.00     0.016 C 
ATOM      3  C   LIG d   1       1.530  82.373 108.958  0.00  0.00     0.038 C 
ATOM      4  C   LIG d   1       1.080  81.045 108.998  0.00  0.00     0.028 C 
ATOM      5  C   LIG d   1       0.982  80.481 110.412  0.00  0.00    -0.047 C 
ATOM      6  C   LIG d   1       0.164  81.459 111.287  0.00  0.00     0.091 C 
ENDROOT
BRANCH   1   7
ATOM      7  O   LIG d   1      -0.218  83.845 111.692  0.00  0.00    -0.368 OA
BRANCH   7   8
ATOM      8  C   LIG d   1       0.276  85.180 111.963  0.00  0.00     0.119 C 
BRANCH   8   9
ATOM      9  C   LIG d   1       0.298  85.363 113.493  0.00  0.00     0.028 C 
ATOM     10  C   LIG d   1      -0.804  84.553 114.197  0.00  0.00     0.006 C 
ENDBRANCH   8   9
BRANCH   8  11
ATOM     11  C   LIG d   1      -0.688  86.248 111.440  0.00  0.00     0.028 C 
ATOM     12  C   LIG d   1      -1.217  85.935 110.031  0.00  0.00     0.006 C 
ENDBRANCH   8  11
ENDBRANCH   7   8
ENDBRANCH   1   7
BRANCH   6  13
ATOM     13  N   LIG d   1       0.092  81.024 112.706  0.00  0.00    -0.311 N 
ATOM     14  C   LIG d   1      -1.050  80.923 113.384  0.00  0.00     0.210 C 
ATOM     15  C   LIG d   1      -0.899  80.476 114.842  0.00  0.00     0.109 C 
ATOM     16  O   LIG d   1      -2.176  81.129 112.908  0.00  0.00    -0.276 OA
ATOM     17  H   LIG d   1       0.956  80.806 113.161  0.00  0.00     0.149 HD
ENDBRANCH   6  13
BRANCH   5  18
ATOM     18  N   LIG d   1       0.371  79.142 110.316  0.00  0.00     0.381 N 
ATOM     19  H   LIG d   1      -0.125  79.057 109.451  0.00  0.00    -0.090 HD
ATOM     20  H   LIG d   1      -0.285  79.029 111.069  0.00  0.00    -0.090 HD
ATOM     21  H   LIG d   1       1.076  78.441 110.372  0.00  0.00    -0.090 HD
ENDBRANCH   5  18
BRANCH   3  22
ATOM     22  C   LIG d   1       2.245  82.793 107.847  0.00  0.00     0.382 C 
ATOM     23  O   LIG d   1       1.664  83.419 106.928  0.00  0.00    -0.241 OA
ATOM     24  O   LIG d   1       3.454  82.515 107.732  0.00  0.00    -0.241 OA
ENDBRANCH   3  22
TORSDOF 7
ENDMDL
MODEL 2
REMARK VINA RESULT:      -6.3      1.146      1.587
REMARK  7 active torsions:
REMARK  status: ('A' for Active; 'I' for Inactive)
REMARK    1  A    between atoms: C_2  and  C_3 
REMARK    2  A    between atoms: C_3  and  O_6 
REMARK    3  A    between atoms: C_3  and  C_4 
REMARK    4  A    between atoms: C_7  and  O_6 
REMARK    5  A    between atoms: C_9  and  C_10 
REMARK    6  A    between atoms: N_15  and  C_14 
REMARK    7  A    between atoms: N_20  and  C_19 
REMARK       I    between atoms: C_22  and  N_20 
ROOT
ATOM      1  C   LIG d   1       1.378  82.528 111.458  0.00  0.00     0.161 C 
ATOM      2  C   LIG d   1       1.969  82.859 110.226  0.00  0.00     0.016 C 
ATOM      3  C   LIG d   1       1.744  82.131 109.035  0.00  0.00     0.038 C 
ATOM      4  C   LIG d   1       0.788  81.106 108.962  0.00  0.00     0.028 C 
ATOM      5  C   LIG d   1       0.541  80.412 110.296  0.00  0.00    -0.047 C 
ATOM      6  C   LIG d   1       0.247  81.482 111.373  0.00  0.00     0.091 C 
ENDROOT
BRANCH   1   7
ATOM      7  O   LIG d   1       0.907  83.724 112.110  0.00  0.00    -0.368 OA
BRANCH   7   8
ATOM      8  C   LIG d   1       1.393  84.978 111.571  0.00  0.00     0.119 C 
BRANCH   8   9
ATOM      9  C   LIG d   1       2.398  85.559 112.584  0.00  0.00     0.028 C 
ATOM     10  C   LIG d   1       3.825  85.636 112.016  0.00  0.00     0.006 C 
ENDBRANCH   8   9
BRANCH   8  11
ATOM     11  C   LIG d   1       0.269  86.015 111.474  0.00  0.00     0.028 C 
ATOM     12  C   LIG d   1      -0.759  85.679 110.382  0.00  0.00     0.006 C 
ENDBRANCH   8  11
ENDBRANCH   7   8
ENDBRANCH   1   7
BRANCH   6  13
ATOM     13  N   LIG d   1       0.077  80.893 112.726  0.00  0.00    -0.311 N 
ATOM     14  C   LIG d   1      -1.108  80.570 113.241  0.00  0.00     0.210 C 
ATOM     15  C   LIG d   1      -1.062  79.994 114.660  0.00  0.00     0.109 C 
ATOM     16  O   LIG d   1      -2.191  80.675 112.645  0.00  0.00    -0.276 OA
ATOM     17  H   LIG d   1       0.906  80.744 113.267  0.00  0.00     0.149 HD
ENDBRANCH   6  13
BRANCH   5  18
ATOM     18  N   LIG d   1      -0.573  79.463 110.106  0.00  0.00     0.381 N 
ATOM     19  H   LIG d   1      -1.338  79.716 110.698  0.00  0.00    -0.090 HD
ATOM     20  H   LIG d   1      -0.264  78.543 110.365  0.00  0.00    -0.090 HD
ATOM     21  H   LIG d   1      -0.865  79.467 109.153  0.00  0.00    -0.090 HD
ENDBRANCH   5  18
BRANCH   3  22
ATOM     22  C   LIG d   1       2.509  82.400 107.911  0.00  0.00     0.382 C 
ATOM     23  O   LIG d   1       3.695  81.996 107.848  0.00  0.00    -0.241 OA
ATOM     24  O   LIG d   1       2.042  83.080 106.977  0.00  0.00    -0.241 OA
ENDBRANCH   3  22
TORSDOF 7
ENDMDL
MODEL 3
REMARK VINA RESULT:      -6.3      0.765      1.907
REMARK  7 active torsions:
REMARK  status: ('A' for Active; 'I' for Inactive)
REMARK    1  A    between atoms: C_2  and  C_3 
REMARK    2  A    between atoms: C_3  and  O_6 
REMARK    3  A    between atoms: C_3  and  C_4 
REMARK    4  A    between atoms: C_7  and  O_6 
REMARK    5  A    between atoms: C_9  and  C_10 
REMARK    6  A    between atoms: N_15  and  C_14 
REMARK    7  A    between atoms: N_20  and  C_19 
REMARK       I    between atoms: C_22  and  N_20 
ROOT
ATOM      1  C   LIG d   1       1.621  82.574 111.548  0.00  0.00     0.161 C 
ATOM      2  C   LIG d   1       2.209  82.909 110.317  0.00  0.00     0.016 C 
ATOM      3  C   LIG d   1       1.908  82.247 109.104  0.00  0.00     0.038 C 
ATOM      4  C   LIG d   1       0.880  81.297 109.014  0.00  0.00     0.028 C 
ATOM      5  C   LIG d   1       0.609  80.570 110.326  0.00  0.00    -0.047 C 
ATOM      6  C   LIG d   1       0.415  81.616 111.448  0.00  0.00     0.091 C 
ENDROOT
BRANCH   1   7
ATOM      7  O   LIG d   1       1.250  83.774 112.255  0.00  0.00    -0.368 OA
BRANCH   7   8
ATOM      8  C   LIG d   1      -0.102  84.249 112.039  0.00  0.00     0.119 C 
BRANCH   8   9
ATOM      9  C   LIG d   1      -0.005  85.605 111.314  0.00  0.00     0.028 C 
ATOM     10  C   LIG d   1      -0.965  85.700 110.116  0.00  0.00     0.006 C 
ENDBRANCH   8   9
BRANCH   8  11
ATOM     11  C   LIG d   1      -0.806  84.548 113.366  0.00  0.00     0.028 C 
ATOM     12  C   LIG d   1       0.037  84.155 114.590  0.00  0.00     0.006 C 
ENDBRANCH   8  11
ENDBRANCH   7   8
ENDBRANCH   1   7
BRANCH   6  13
ATOM     13  N   LIG d   1       0.229  80.987 112.782  0.00  0.00    -0.311 N 
ATOM     14  C   LIG d   1      -0.965  80.779 113.335  0.00  0.00     0.210 C 
ATOM     15  C   LIG d   1      -0.931  80.137 114.725  0.00  0.00     0.109 C 
ATOM     16  O   LIG d   1      -2.050  81.036 112.791  0.00  0.00    -0.276 OA
ATOM     17  H   LIG d   1       1.056  80.719 113.280  0.00  0.00     0.149 HD
ENDBRANCH   6  13
BRANCH   5  18
ATOM     18  N   LIG d   1      -0.574  79.712 110.125  0.00  0.00     0.381 N 
ATOM     19  H   LIG d   1      -1.027  79.956 109.267  0.00  0.00    -0.090 HD
ATOM     20  H   LIG d   1      -1.220  79.867 110.879  0.00  0.00    -0.090 HD
ATOM     21  H   LIG d   1      -0.300  78.754 110.104  0.00  0.00    -0.090 HD
ENDBRANCH   5  18
BRANCH   3  22
ATOM     22  C   LIG d   1       2.668  82.505 107.974  0.00  0.00     0.382 C 
ATOM     23  O   LIG d   1       3.888  82.210 107.957  0.00  0.00    -0.241 OA
ATOM     24  O   LIG d   1       2.160  83.069 106.986  0.00  0.00    -0.241 OA
ENDBRANCH   3  22
TORSDOF 7
ENDMDL
MODEL 4
REMARK VINA RESULT:      -5.9      1.323      1.912
REMARK  7 active torsions:
REMARK  status: ('A' for Active; 'I' for Inactive)
REMARK    1  A    between atoms: C_2  and  C_3 
REMARK    2  A    between atoms: C_3  and  O_6 
REMARK    3  A    between atoms: C_3  and  C_4 
REMARK    4  A    between atoms: C_7  and  O_6 
REMARK    5  A    between atoms: C_9  and  C_10 
REMARK    6  A    between atoms: N_15  and  C_14 
REMARK    7  A    between atoms: N_20  and  C_19 
REMARK       I    between atoms: C_22  and  N_20 
ROOT
ATOM      1  C   LIG d   1       1.410  82.613 111.499  0.00  0.00     0.161 C 
ATOM      2  C   LIG d   1       1.990  82.951 110.265  0.00  0.00     0.016 C 
ATOM      3  C   LIG d   1       1.760  82.226 109.073  0.00  0.00     0.038 C 
ATOM      4  C   LIG d   1       0.808  81.198 109.002  0.00  0.00     0.028 C 
ATOM      5  C   LIG d   1       0.574  80.497 110.336  0.00  0.00    -0.047 C 
ATOM      6  C   LIG d   1       0.283  81.562 111.418  0.00  0.00     0.091 C 
ENDROOT
BRANCH   1   7
ATOM      7  O   LIG d   1       0.938  83.804 112.159  0.00  0.00    -0.368 OA
BRANCH   7   8
ATOM      8  C   LIG d   1       1.706  84.245 113.306  0.00  0.00     0.119 C 
BRANCH   8   9
ATOM      9  C   LIG d   1       0.735  84.953 114.269  0.00  0.00     0.028 C 
ATOM     10  C   LIG d   1      -0.736  84.780 113.853  0.00  0.00     0.006 C 
ENDBRANCH   8   9
BRANCH   8  11
ATOM     11  C   LIG d   1       2.735  85.308 112.912  0.00  0.00     0.028 C 
ATOM     12  C   LIG d   1       4.164  84.750 112.819  0.00  0.00     0.006 C 
ENDBRANCH   8  11
ENDBRANCH   7   8
ENDBRANCH   1   7
BRANCH   6  13
ATOM     13  N   LIG d   1       0.125  80.968 112.771  0.00  0.00    -0.311 N 
ATOM     14  C   LIG d   1      -1.003  81.041 113.477  0.00  0.00     0.210 C 
ATOM     15  C   LIG d   1      -0.946  80.379 114.857  0.00  0.00     0.109 C 
ATOM     16  O   LIG d   1      -2.054  81.564 113.078  0.00  0.00    -0.276 OA
ATOM     17  H   LIG d   1       0.919  80.497 113.158  0.00  0.00     0.149 HD
ENDBRANCH   6  13
BRANCH   5  18
ATOM     18  N   LIG d   1      -0.537  79.544 110.150  0.00  0.00     0.381 N 
ATOM     19  H   LIG d   1      -1.186  79.629 110.907  0.00  0.00    -0.090 HD
ATOM     20  H   LIG d   1      -0.168  78.610 110.155  0.00  0.00    -0.090 HD
ATOM     21  H   LIG d   1      -0.998  79.723 109.285  0.00  0.00    -0.090 HD
ENDBRANCH   5  18
BRANCH   3  22
ATOM     22  C   LIG d   1       2.516  82.502 107.944  0.00  0.00     0.382 C 
ATOM     23  O   LIG d   1       3.721  82.157 107.896  0.00  0.00    -0.241 OA
ATOM     24  O   LIG d   1       2.020  83.132 106.990  0.00  0.00    -0.241 OA
ENDBRANCH   3  22
TORSDOF 7
ENDMDL
MODEL 5
REMARK VINA RESULT:      -5.9      8.927     11.959
REMARK  7 active torsions:
REMARK  status: ('A' for Active; 'I' for Inactive)
REMARK    1  A    between atoms: C_2  and  C_3 
REMARK    2  A    between atoms: C_3  and  O_6 
REMARK    3  A    between atoms: C_3  and  C_4 
REMARK    4  A    between atoms: C_7  and  O_6 
REMARK    5  A    between atoms: C_9  and  C_10 
REMARK    6  A    between atoms: N_15  and  C_14 
REMARK    7  A    between atoms: N_20  and  C_19 
REMARK       I    between atoms: C_22  and  N_20 
ROOT
ATOM      1  C   LIG d   1      -6.996  76.715 116.365  0.00  0.00     0.161 C 
ATOM      2  C   LIG d   1      -7.728  75.659 115.796  0.00  0.00     0.016 C 
ATOM      3  C   LIG d   1      -9.136  75.562 115.867  0.00  0.00     0.038 C 
ATOM      4  C   LIG d   1      -9.926  76.599 116.385  0.00  0.00     0.028 C 
ATOM      5  C   LIG d   1      -9.203  77.451 117.423  0.00  0.00    -0.047 C 
ATOM      6  C   LIG d   1      -7.848  77.912 116.837  0.00  0.00     0.091 C 
ENDROOT
BRANCH   1   7
ATOM      7  O   LIG d   1      -5.979  77.157 115.444  0.00  0.00    -0.368 OA
BRANCH   7   8
ATOM      8  C   LIG d   1      -4.612  76.835 115.801  0.00  0.00     0.119 C 
BRANCH   8   9
ATOM      9  C   LIG d   1      -3.739  78.050 115.434  0.00  0.00     0.028 C 
ATOM     10  C   LIG d   1      -3.107  78.713 116.669  0.00  0.00     0.006 C 
ENDBRANCH   8   9
BRANCH   8  11
ATOM     11  C   LIG d   1      -4.073  75.678 114.956  0.00  0.00     0.028 C 
ATOM     12  C   LIG d   1      -2.659  75.243 115.373  0.00  0.00     0.006 C 
ENDBRANCH   8  11
ENDBRANCH   7   8
ENDBRANCH   1   7
BRANCH   6  13
ATOM     13  N   LIG d   1      -7.039  78.681 117.818  0.00  0.00    -0.311 N 
ATOM     14  C   LIG d   1      -7.149  79.997 117.988  0.00  0.00     0.210 C 
ATOM     15  C   LIG d   1      -6.207  80.595 119.037  0.00  0.00     0.109 C 
ATOM     16  O   LIG d   1      -7.961  80.721 117.392  0.00  0.00    -0.276 OA
ATOM     17  H   LIG d   1      -6.377  78.167 118.366  0.00  0.00     0.149 HD
ENDBRANCH   6  13
BRANCH   5  18
ATOM     18  N   LIG d   1     -10.092  78.574 117.776  0.00  0.00     0.381 N 
ATOM     19  H   LIG d   1      -9.545  79.377 118.015  0.00  0.00    -0.090 HD
ATOM     20  H   LIG d   1     -10.639  78.315 118.578  0.00  0.00    -0.090 HD
ATOM     21  H   LIG d   1     -10.692  78.788 117.010  0.00  0.00    -0.090 HD
ENDBRANCH   5  18
BRANCH   3  22
ATOM     22  C   LIG d   1      -9.766  74.398 115.452  0.00  0.00     0.382 C 
ATOM     23  O   LIG d   1     -10.525  74.418 114.453  0.00  0.00    -0.241 OA
ATOM     24  O   LIG d   1      -9.621  73.339 116.091  0.00  0.00    -0.241 OA
ENDBRANCH   3  22
TORSDOF 7
ENDMDL
MODEL 6
REMARK VINA RESULT:      -5.8      2.579      4.198
REMARK  7 active torsions:
REMARK  status: ('A' for Active; 'I' for Inactive)
REMARK    1  A    between atoms: C_2  and  C_3 
REMARK    2  A    between atoms: C_3  and  O_6 
REMARK    3  A    between atoms: C_3  and  C_4 
REMARK    4  A    between atoms: C_7  and  O_6 
REMARK    5  A    between atoms: C_9  and  C_10 
REMARK    6  A    between atoms: N_15  and  C_14 
REMARK    7  A    between atoms: N_20  and  C_19 
REMARK       I    between atoms: C_22  and  N_20 
ROOT
ATOM      1  C   LIG d   1       0.969  82.264 111.122  0.00  0.00     0.161 C 
ATOM      2  C   LIG d   1       1.704  81.080 110.945  0.00  0.00     0.016 C 
ATOM      3  C   LIG d   1       2.326  80.726 109.725  0.00  0.00     0.038 C 
ATOM      4  C   LIG d   1       2.381  81.610 108.637  0.00  0.00     0.028 C 
ATOM      5  C   LIG d   1       1.223  82.601 108.602  0.00  0.00    -0.047 C 
ATOM      6  C   LIG d   1       1.112  83.292 109.980  0.00  0.00     0.091 C 
ENDROOT
BRANCH   1   7
ATOM      7  O   LIG d   1       1.311  82.868 112.385  0.00  0.00    -0.368 OA
BRANCH   7   8
ATOM      8  C   LIG d   1       0.514  82.459 113.524  0.00  0.00     0.119 C 
BRANCH   8   9
ATOM      9  C   LIG d   1      -0.773  83.306 113.515  0.00  0.00     0.028 C 
ATOM     10  C   LIG d   1      -0.543  84.729 114.050  0.00  0.00     0.006 C 
ENDBRANCH   8   9
BRANCH   8  11
ATOM     11  C   LIG d   1       1.213  82.798 114.844  0.00  0.00     0.028 C 
ATOM     12  C   LIG d   1       2.740  82.901 114.700  0.00  0.00     0.006 C 
ENDBRANCH   8  11
ENDBRANCH   7   8
ENDBRANCH   1   7
BRANCH   6  13
ATOM     13  N   LIG d   1      -0.049  84.216 110.059  0.00  0.00    -0.311 N 
ATOM     14  C   LIG d   1       0.044  85.477 110.480  0.00  0.00     0.210 C 
ATOM     15  C   LIG d   1      -1.277  86.251 110.502  0.00  0.00     0.109 C 
ATOM     16  O   LIG d   1       1.102  86.037 110.806  0.00  0.00    -0.276 OA
ATOM     17  H   LIG d   1      -0.941  83.854 109.783  0.00  0.00     0.149 HD
ENDBRANCH   6  13
BRANCH   5  18
ATOM     18  N   LIG d   1       1.479  83.547 107.500  0.00  0.00     0.381 N 
ATOM     19  H   LIG d   1       1.535  83.050 106.633  0.00  0.00    -0.090 HD
ATOM     20  H   LIG d   1       2.361  84.002 107.660  0.00  0.00    -0.090 HD
ATOM     21  H   LIG d   1       0.751  84.225 107.456  0.00  0.00    -0.090 HD
ENDBRANCH   5  18
BRANCH   3  22
ATOM     22  C   LIG d   1       2.867  79.458 109.572  0.00  0.00     0.382 C 
ATOM     23  O   LIG d   1       4.005  79.202 110.034  0.00  0.00    -0.241 OA
ATOM     24  O   LIG d   1       2.250  78.580 108.940  0.00  0.00    -0.241 OA
ENDBRANCH   3  22
TORSDOF 7
ENDMDL
MODEL 7
REMARK VINA RESULT:      -5.8      2.020      4.696
REMARK  7 active torsions:
REMARK  status: ('A' for Active; 'I' for Inactive)
REMARK    1  A    between atoms: C_2  and  C_3 
REMARK    2  A    between atoms: C_3  and  O_6 
REMARK    3  A    between atoms: C_3  and  C_4 
REMARK    4  A    between atoms: C_7  and  O_6 
REMARK    5  A    between atoms: C_9  and  C_10 
REMARK    6  A    between atoms: N_15  and  C_14 
REMARK    7  A    between atoms: N_20  and  C_19 
REMARK       I    between atoms: C_22  and  N_20 
ROOT
ATOM      1  C   LIG d   1       0.421  82.680 111.178  0.00  0.00     0.161 C 
ATOM      2  C   LIG d   1      -0.701  82.315 111.940  0.00  0.00     0.016 C 
ATOM      3  C   LIG d   1      -1.188  80.990 112.024  0.00  0.00     0.038 C 
ATOM      4  C   LIG d   1      -0.491  79.908 111.467  0.00  0.00     0.028 C 
ATOM      5  C   LIG d   1       0.368  80.293 110.267  0.00  0.00    -0.047 C 
ATOM      6  C   LIG d   1       1.259  81.495 110.653  0.00  0.00     0.091 C 
ENDROOT
BRANCH   1   7
ATOM      7  O   LIG d   1       1.250  83.586 111.932  0.00  0.00    -0.368 OA
BRANCH   7   8
ATOM      8  C   LIG d   1       1.330  84.943 111.431  0.00  0.00     0.119 C 
BRANCH   8   9
ATOM      9  C   LIG d   1       2.694  85.516 111.863  0.00  0.00     0.028 C 
ATOM     10  C   LIG d   1       3.852  84.539 111.599  0.00  0.00     0.006 C 
ENDBRANCH   8   9
BRANCH   8  11
ATOM     11  C   LIG d   1       0.284  85.844 112.093  0.00  0.00     0.028 C 
ATOM     12  C   LIG d   1      -0.894  86.172 111.163  0.00  0.00     0.006 C 
ENDBRANCH   8  11
ENDBRANCH   7   8
ENDBRANCH   1   7
BRANCH   6  13
ATOM     13  N   LIG d   1       2.071  81.990 109.511  0.00  0.00    -0.311 N 
ATOM     14  C   LIG d   1       3.329  81.614 109.288  0.00  0.00     0.210 C 
ATOM     15  C   LIG d   1       3.990  82.259 108.065  0.00  0.00     0.109 C 
ATOM     16  O   LIG d   1       3.950  80.783 109.968  0.00  0.00    -0.276 OA
ATOM     17  H   LIG d   1       1.635  82.644 108.891  0.00  0.00     0.149 HD
ENDBRANCH   6  13
BRANCH   5  18
ATOM     18  N   LIG d   1       1.144  79.102 109.873  0.00  0.00     0.381 N 
ATOM     19  H   LIG d   1       2.080  79.368 109.642  0.00  0.00    -0.090 HD
ATOM     20  H   LIG d   1       0.722  78.694 109.057  0.00  0.00    -0.090 HD
ATOM     21  H   LIG d   1       1.153  78.439 110.617  0.00  0.00    -0.090 HD
ENDBRANCH   5  18
BRANCH   3  22
ATOM     22  C   LIG d   1      -2.407  80.743 112.637  0.00  0.00     0.382 C 
ATOM     23  O   LIG d   1      -2.962  81.642 113.312  0.00  0.00    -0.241 OA
ATOM     24  O   LIG d   1      -2.937  79.618 112.559  0.00  0.00    -0.241 OA
ENDBRANCH   3  22
TORSDOF 7
ENDMDL
MODEL 8
REMARK VINA RESULT:      -5.7      2.533      5.507
REMARK  7 active torsions:
REMARK  status: ('A' for Active; 'I' for Inactive)
REMARK    1  A    between atoms: C_2  and  C_3 
REMARK    2  A    between atoms: C_3  and  O_6 
REMARK    3  A    between atoms: C_3  and  C_4 
REMARK    4  A    between atoms: C_7  and  O_6 
REMARK    5  A    between atoms: C_9  and  C_10 
REMARK    6  A    between atoms: N_15  and  C_14 
REMARK    7  A    between atoms: N_20  and  C_19 
REMARK       I    between atoms: C_22  and  N_20 
ROOT
ATOM      1  C   LIG d   1       1.235  82.133 111.212  0.00  0.00     0.161 C 
ATOM      2  C   LIG d   1       0.249  81.135 111.284  0.00  0.00     0.016 C 
ATOM      3  C   LIG d   1      -0.749  81.098 112.285  0.00  0.00     0.038 C 
ATOM      4  C   LIG d   1      -0.921  82.147 113.200  0.00  0.00     0.028 C 
ATOM      5  C   LIG d   1       0.362  82.923 113.480  0.00  0.00    -0.047 C 
ATOM      6  C   LIG d   1       0.996  83.346 112.135  0.00  0.00     0.091 C 
ENDROOT
BRANCH   1   7
ATOM      7  O   LIG d   1       1.393  82.565 109.846  0.00  0.00    -0.368 OA
BRANCH   7   8
ATOM      8  C   LIG d   1       2.285  81.772 109.025  0.00  0.00     0.119 C 
BRANCH   8   9
ATOM      9  C   LIG d   1       3.595  81.581 109.815  0.00  0.00     0.028 C 
ATOM     10  C   LIG d   1       4.539  82.789 109.685  0.00  0.00     0.006 C 
ENDBRANCH   8   9
BRANCH   8  11
ATOM     11  C   LIG d   1       2.685  82.521 107.751  0.00  0.00     0.028 C 
ATOM     12  C   LIG d   1       1.553  83.401 107.197  0.00  0.00     0.006 C 
ENDBRANCH   8  11
ENDBRANCH   7   8
ENDBRANCH   1   7
BRANCH   6  13
ATOM     13  N   LIG d   1       2.299  84.037 112.315  0.00  0.00    -0.311 N 
ATOM     14  C   LIG d   1       2.546  85.266 111.863  0.00  0.00     0.210 C 
ATOM     15  C   LIG d   1       3.962  85.783 112.138  0.00  0.00     0.109 C 
ATOM     16  O   LIG d   1       1.718  85.987 111.288  0.00  0.00    -0.276 OA
ATOM     17  H   LIG d   1       3.019  83.536 112.798  0.00  0.00     0.149 HD
ENDBRANCH   6  13
BRANCH   5  18
ATOM     18  N   LIG d   1       0.012  84.069 114.339  0.00  0.00     0.381 N 
ATOM     19  H   LIG d   1      -0.400  84.794 113.786  0.00  0.00    -0.090 HD
ATOM     20  H   LIG d   1       0.851  84.430 114.758  0.00  0.00    -0.090 HD
ATOM     21  H   LIG d   1      -0.625  83.781 115.049  0.00  0.00    -0.090 HD
ENDBRANCH   5  18
BRANCH   3  22
ATOM     22  C   LIG d   1      -1.563  79.982 112.403  0.00  0.00     0.382 C 
ATOM     23  O   LIG d   1      -2.449  79.943 113.290  0.00  0.00    -0.241 OA
ATOM     24  O   LIG d   1      -1.394  78.995 111.661  0.00  0.00    -0.241 OA
ENDBRANCH   3  22
TORSDOF 7
ENDMDL
MODEL 9
REMARK VINA RESULT:      -5.7      2.958      4.431
REMARK  7 active torsions:
REMARK  status: ('A' for Active; 'I' for Inactive)
REMARK    1  A    between atoms: C_2  and  C_3 
REMARK    2  A    between atoms: C_3  and  O_6 
REMARK    3  A    between atoms: C_3  and  C_4 
REMARK    4  A    between atoms: C_7  and  O_6 
REMARK    5  A    between atoms: C_9  and  C_10 
REMARK    6  A    between atoms: N_15  and  C_14 
REMARK    7  A    between atoms: N_20  and  C_19 
REMARK       I    between atoms: C_22  and  N_20 
ROOT
ATOM      1  C   LIG d   1       2.290  82.010 112.196  0.00  0.00     0.161 C 
ATOM      2  C   LIG d   1       2.525  83.265 112.784  0.00  0.00     0.016 C 
ATOM      3  C   LIG d   1       3.292  84.281 112.169  0.00  0.00     0.038 C 
ATOM      4  C   LIG d   1       3.753  84.165 110.849  0.00  0.00     0.028 C 
ATOM      5  C   LIG d   1       3.970  82.722 110.407  0.00  0.00    -0.047 C 
ATOM      6  C   LIG d   1       2.692  81.907 110.710  0.00  0.00     0.091 C 
ENDROOT
BRANCH   1   7
ATOM      7  O   LIG d   1       0.907  81.641 112.368  0.00  0.00    -0.368 OA
BRANCH   7   8
ATOM      8  C   LIG d   1      -0.008  82.723 112.670  0.00  0.00     0.119 C 
BRANCH   8   9
ATOM      9  C   LIG d   1      -1.007  82.204 113.723  0.00  0.00     0.028 C 
ATOM     10  C   LIG d   1      -2.300  81.664 113.090  0.00  0.00     0.006 C 
ENDBRANCH   8   9
BRANCH   8  11
ATOM     11  C   LIG d   1      -0.859  83.089 111.450  0.00  0.00     0.028 C 
ATOM     12  C   LIG d   1      -0.598  84.517 110.948  0.00  0.00     0.006 C 
ENDBRANCH   8  11
ENDBRANCH   7   8
ENDBRANCH   1   7
BRANCH   6  13
ATOM     13  N   LIG d   1       2.849  80.465 110.386  0.00  0.00    -0.311 N 
ATOM     14  C   LIG d   1       2.038  79.807 109.560  0.00  0.00     0.210 C 
ATOM     15  C   LIG d   1       2.365  78.321 109.379  0.00  0.00     0.109 C 
ATOM     16  O   LIG d   1       1.098  80.319 108.934  0.00  0.00    -0.276 OA
ATOM     17  H   LIG d   1       3.605  79.978 110.826  0.00  0.00     0.149 HD
ENDBRANCH   6  13
BRANCH   5  18
ATOM     18  N   LIG d   1       4.317  82.742 108.974  0.00  0.00     0.381 N 
ATOM     19  H   LIG d   1       4.812  81.906 108.733  0.00  0.00    -0.090 HD
ATOM     20  H   LIG d   1       4.918  83.527 108.795  0.00  0.00    -0.090 HD
ATOM     21  H   LIG d   1       3.490  82.816 108.424  0.00  0.00    -0.090 HD
ENDBRANCH   5  18
BRANCH   3  22
ATOM     22  C   LIG d   1       3.638  85.413 112.891  0.00  0.00     0.382 C 
ATOM     23  O   LIG d   1       3.470  85.439 114.134  0.00  0.00    -0.241 OA
ATOM     24  O   LIG d   1       4.075  86.424 112.309  0.00  0.00    -0.241 OA
ENDBRANCH   3  22
TORSDOF 7
ENDMDL
