MODEL 1
REMARK VINA RESULT:      -5.3      0.000      0.000
REMARK  7 active torsions:
REMARK  status: ('A' for Active; 'I' for Inactive)
REMARK    1  A    between atoms: C_2  and  C_3 
REMARK    2  A    between atoms: C_3  and  O_6 
REMARK    3  A    between atoms: C_3  and  C_4 
REMARK    4  A    between atoms: C_7  and  O_6 
REMARK    5  A    between atoms: C_9  and  C_10 
REMARK    6  A    between atoms: N_15  and  C_14 
REMARK    7  A    between atoms: N_20  and  C_19 
REMARK       I    between atoms: C_22  and  N_20 
ROOT
ATOM      1  C   LIG d   1      -2.071  76.980 114.992  0.00  0.00     0.161 C 
ATOM      2  C   LIG d   1      -3.282  76.674 114.347  0.00  0.00     0.016 C 
ATOM      3  C   LIG d   1      -4.137  75.625 114.755  0.00  0.00     0.038 C 
ATOM      4  C   LIG d   1      -3.912  74.901 115.935  0.00  0.00     0.028 C 
ATOM      5  C   LIG d   1      -2.443  74.840 116.338  0.00  0.00    -0.047 C 
ATOM      6  C   LIG d   1      -1.865  76.273 116.348  0.00  0.00     0.091 C 
ENDROOT
BRANCH   1   7
ATOM      7  O   LIG d   1      -1.947  78.408 115.147  0.00  0.00    -0.368 OA
BRANCH   7   8
ATOM      8  C   LIG d   1      -1.520  79.141 113.973  0.00  0.00     0.119 C 
BRANCH   8   9
ATOM      9  C   LIG d   1      -0.488  80.190 114.433  0.00  0.00     0.028 C 
ATOM     10  C   LIG d   1      -0.237  80.140 115.950  0.00  0.00     0.006 C 
ENDBRANCH   8   9
BRANCH   8  11
ATOM     11  C   LIG d   1      -2.674  79.947 113.368  0.00  0.00     0.028 C 
ATOM     12  C   LIG d   1      -2.307  81.418 113.119  0.00  0.00     0.006 C 
ENDBRANCH   8  11
ENDBRANCH   7   8
ENDBRANCH   1   7
BRANCH   6  13
ATOM     13  N   LIG d   1      -0.410  76.296 116.650  0.00  0.00    -0.311 N 
ATOM     14  C   LIG d   1       0.106  76.875 117.733  0.00  0.00     0.210 C 
ATOM     15  C   LIG d   1       1.632  76.801 117.842  0.00  0.00     0.109 C 
ATOM     16  O   LIG d   1      -0.559  77.415 118.630  0.00  0.00    -0.276 OA
ATOM     17  H   LIG d   1       0.200  75.854 115.990  0.00  0.00     0.149 HD
ENDBRANCH   6  13
BRANCH   5  18
ATOM     18  N   LIG d   1      -2.368  74.177 117.653  0.00  0.00     0.381 N 
ATOM     19  H   LIG d   1      -2.928  74.675 118.316  0.00  0.00    -0.090 HD
ATOM     20  H   LIG d   1      -1.415  74.191 117.971  0.00  0.00    -0.090 HD
ATOM     21  H   LIG d   1      -2.687  73.236 117.579  0.00  0.00    -0.090 HD
ENDBRANCH   5  18
BRANCH   3  22
ATOM     22  C   LIG d   1      -5.211  75.264 113.955  0.00  0.00     0.382 C 
ATOM     23  O   LIG d   1      -5.347  75.778 112.819  0.00  0.00    -0.241 OA
ATOM     24  O   LIG d   1      -6.069  74.464 114.373  0.00  0.00    -0.241 OA
ENDBRANCH   3  22
TORSDOF 7
ENDMDL
MODEL 2
REMARK VINA RESULT:      -5.3      2.587      5.265
REMARK  7 active torsions:
REMARK  status: ('A' for Active; 'I' for Inactive)
REMARK    1  A    between atoms: C_2  and  C_3 
REMARK    2  A    between atoms: C_3  and  O_6 
REMARK    3  A    between atoms: C_3  and  C_4 
REMARK    4  A    between atoms: C_7  and  O_6 
REMARK    5  A    between atoms: C_9  and  C_10 
REMARK    6  A    between atoms: N_15  and  C_14 
REMARK    7  A    between atoms: N_20  and  C_19 
REMARK       I    between atoms: C_22  and  N_20 
ROOT
ATOM      1  C   LIG d   1      -1.260  78.587 114.928  0.00  0.00     0.161 C 
ATOM      2  C   LIG d   1      -1.591  79.942 114.757  0.00  0.00     0.016 C 
ATOM      3  C   LIG d   1      -2.108  80.470 113.551  0.00  0.00     0.038 C 
ATOM      4  C   LIG d   1      -2.472  79.645 112.476  0.00  0.00     0.028 C 
ATOM      5  C   LIG d   1      -1.685  78.340 112.421  0.00  0.00    -0.047 C 
ATOM      6  C   LIG d   1      -1.754  77.653 113.804  0.00  0.00     0.091 C 
ENDROOT
BRANCH   1   7
ATOM      7  O   LIG d   1      -1.736  78.126 116.208  0.00  0.00    -0.368 OA
BRANCH   7   8
ATOM      8  C   LIG d   1      -0.723  77.880 117.214  0.00  0.00     0.119 C 
BRANCH   8   9
ATOM      9  C   LIG d   1      -0.907  76.434 117.713  0.00  0.00     0.028 C 
ATOM     10  C   LIG d   1       0.422  75.662 117.779  0.00  0.00     0.006 C 
ENDBRANCH   8   9
BRANCH   8  11
ATOM     11  C   LIG d   1      -0.935  78.764 118.447  0.00  0.00     0.028 C 
ATOM     12  C   LIG d   1      -0.339  80.171 118.280  0.00  0.00     0.006 C 
ENDBRANCH   8  11
ENDBRANCH   7   8
ENDBRANCH   1   7
BRANCH   6  13
ATOM     13  N   LIG d   1      -0.941  76.411 113.861  0.00  0.00    -0.311 N 
ATOM     14  C   LIG d   1      -1.405  75.251 114.323  0.00  0.00     0.210 C 
ATOM     15  C   LIG d   1      -0.395  74.100 114.313  0.00  0.00     0.109 C 
ATOM     16  O   LIG d   1      -2.568  75.058 114.709  0.00  0.00    -0.276 OA
ATOM     17  H   LIG d   1       0.005  76.469 113.538  0.00  0.00     0.149 HD
ENDBRANCH   6  13
BRANCH   5  18
ATOM     18  N   LIG d   1      -2.260  77.519 111.338  0.00  0.00     0.381 N 
ATOM     19  H   LIG d   1      -3.233  77.364 111.511  0.00  0.00    -0.090 HD
ATOM     20  H   LIG d   1      -1.796  76.627 111.325  0.00  0.00    -0.090 HD
ATOM     21  H   LIG d   1      -2.139  77.977 110.462  0.00  0.00    -0.090 HD
ENDBRANCH   5  18
BRANCH   3  22
ATOM     22  C   LIG d   1      -2.227  81.843 113.397  0.00  0.00     0.382 C 
ATOM     23  O   LIG d   1      -2.002  82.371 112.282  0.00  0.00    -0.241 OA
ATOM     24  O   LIG d   1      -2.513  82.565 114.371  0.00  0.00    -0.241 OA
ENDBRANCH   3  22
TORSDOF 7
ENDMDL
MODEL 3
REMARK VINA RESULT:      -4.9      5.080      7.215
REMARK  7 active torsions:
REMARK  status: ('A' for Active; 'I' for Inactive)
REMARK    1  A    between atoms: C_2  and  C_3 
REMARK    2  A    between atoms: C_3  and  O_6 
REMARK    3  A    between atoms: C_3  and  C_4 
REMARK    4  A    between atoms: C_7  and  O_6 
REMARK    5  A    between atoms: C_9  and  C_10 
REMARK    6  A    between atoms: N_15  and  C_14 
REMARK    7  A    between atoms: N_20  and  C_19 
REMARK       I    between atoms: C_22  and  N_20 
ROOT
ATOM      1  C   LIG d   1      -0.812  83.302 113.107  0.00  0.00     0.161 C 
ATOM      2  C   LIG d   1      -1.714  82.232 113.234  0.00  0.00     0.016 C 
ATOM      3  C   LIG d   1      -1.428  80.918 112.798  0.00  0.00     0.038 C 
ATOM      4  C   LIG d   1      -0.155  80.549 112.339  0.00  0.00     0.028 C 
ATOM      5  C   LIG d   1       0.626  81.706 111.724  0.00  0.00    -0.047 C 
ATOM      6  C   LIG d   1       0.622  82.895 112.711  0.00  0.00     0.091 C 
ENDROOT
BRANCH   1   7
ATOM      7  O   LIG d   1      -0.797  84.075 114.324  0.00  0.00    -0.368 OA
BRANCH   7   8
ATOM      8  C   LIG d   1      -1.463  83.480 115.465  0.00  0.00     0.119 C 
BRANCH   8   9
ATOM      9  C   LIG d   1      -2.274  84.592 116.158  0.00  0.00     0.028 C 
ATOM     10  C   LIG d   1      -1.868  84.784 117.629  0.00  0.00     0.006 C 
ENDBRANCH   8   9
BRANCH   8  11
ATOM     11  C   LIG d   1      -0.454  83.001 116.512  0.00  0.00     0.028 C 
ATOM     12  C   LIG d   1      -0.377  81.469 116.608  0.00  0.00     0.006 C 
ENDBRANCH   8  11
ENDBRANCH   7   8
ENDBRANCH   1   7
BRANCH   6  13
ATOM     13  N   LIG d   1       1.293  84.098 112.152  0.00  0.00    -0.311 N 
ATOM     14  C   LIG d   1       2.456  84.565 112.604  0.00  0.00     0.210 C 
ATOM     15  C   LIG d   1       2.962  85.829 111.900  0.00  0.00     0.109 C 
ATOM     16  O   LIG d   1       3.132  84.035 113.498  0.00  0.00    -0.276 OA
ATOM     17  H   LIG d   1       0.829  84.572 111.402  0.00  0.00     0.149 HD
ENDBRANCH   6  13
BRANCH   5  18
ATOM     18  N   LIG d   1       1.982  81.214 111.416  0.00  0.00     0.381 N 
ATOM     19  H   LIG d   1       1.987  80.214 111.413  0.00  0.00    -0.090 HD
ATOM     20  H   LIG d   1       2.613  81.531 112.131  0.00  0.00    -0.090 HD
ATOM     21  H   LIG d   1       2.275  81.557 110.528  0.00  0.00    -0.090 HD
ENDBRANCH   5  18
BRANCH   3  22
ATOM     22  C   LIG d   1      -2.436  79.966 112.781  0.00  0.00     0.382 C 
ATOM     23  O   LIG d   1      -2.530  79.170 111.815  0.00  0.00    -0.241 OA
ATOM     24  O   LIG d   1      -3.279  79.921 113.697  0.00  0.00    -0.241 OA
ENDBRANCH   3  22
TORSDOF 7
ENDMDL
MODEL 4
REMARK VINA RESULT:      -4.9      6.320      9.817
REMARK  7 active torsions:
REMARK  status: ('A' for Active; 'I' for Inactive)
REMARK    1  A    between atoms: C_2  and  C_3 
REMARK    2  A    between atoms: C_3  and  O_6 
REMARK    3  A    between atoms: C_3  and  C_4 
REMARK    4  A    between atoms: C_7  and  O_6 
REMARK    5  A    between atoms: C_9  and  C_10 
REMARK    6  A    between atoms: N_15  and  C_14 
REMARK    7  A    between atoms: N_20  and  C_19 
REMARK       I    between atoms: C_22  and  N_20 
ROOT
ATOM      1  C   LIG d   1      -0.233  85.137 113.984  0.00  0.00     0.161 C 
ATOM      2  C   LIG d   1       0.693  86.148 113.677  0.00  0.00     0.016 C 
ATOM      3  C   LIG d   1       1.673  86.024 112.666  0.00  0.00     0.038 C 
ATOM      4  C   LIG d   1       1.698  84.931 111.787  0.00  0.00     0.028 C 
ATOM      5  C   LIG d   1       1.103  83.660 112.384  0.00  0.00    -0.047 C 
ATOM      6  C   LIG d   1      -0.294  83.983 112.962  0.00  0.00     0.091 C 
ENDROOT
BRANCH   1   7
ATOM      7  O   LIG d   1      -1.542  85.713 114.168  0.00  0.00    -0.368 OA
BRANCH   7   8
ATOM      8  C   LIG d   1      -1.908  86.040 115.531  0.00  0.00     0.119 C 
BRANCH   8   9
ATOM      9  C   LIG d   1      -2.366  84.737 116.214  0.00  0.00     0.028 C 
ATOM     10  C   LIG d   1      -1.463  84.345 117.395  0.00  0.00     0.006 C 
ENDBRANCH   8   9
BRANCH   8  11
ATOM     11  C   LIG d   1      -3.126  86.969 115.573  0.00  0.00     0.028 C 
ATOM     12  C   LIG d   1      -2.963  88.120 116.578  0.00  0.00     0.006 C 
ENDBRANCH   8  11
ENDBRANCH   7   8
ENDBRANCH   1   7
BRANCH   6  13
ATOM     13  N   LIG d   1      -0.911  82.813 113.641  0.00  0.00    -0.311 N 
ATOM     14  C   LIG d   1      -1.726  81.956 113.028  0.00  0.00     0.210 C 
ATOM     15  C   LIG d   1      -2.268  80.832 113.916  0.00  0.00     0.109 C 
ATOM     16  O   LIG d   1      -2.025  82.002 111.826  0.00  0.00    -0.276 OA
ATOM     17  H   LIG d   1      -0.697  82.683 114.610  0.00  0.00     0.149 HD
ENDBRANCH   6  13
BRANCH   5  18
ATOM     18  N   LIG d   1       1.066  82.641 111.318  0.00  0.00     0.381 N 
ATOM     19  H   LIG d   1       1.181  83.080 110.426  0.00  0.00    -0.090 HD
ATOM     20  H   LIG d   1       0.169  82.187 111.333  0.00  0.00    -0.090 HD
ATOM     21  H   LIG d   1       1.788  81.970 111.461  0.00  0.00    -0.090 HD
ENDBRANCH   5  18
BRANCH   3  22
ATOM     22  C   LIG d   1       2.669  86.982 112.553  0.00  0.00     0.382 C 
ATOM     23  O   LIG d   1       2.477  88.141 112.994  0.00  0.00    -0.241 OA
ATOM     24  O   LIG d   1       3.741  86.715 111.976  0.00  0.00    -0.241 OA
ENDBRANCH   3  22
TORSDOF 7
ENDMDL
MODEL 5
REMARK VINA RESULT:      -4.9      1.738      4.929
REMARK  7 active torsions:
REMARK  status: ('A' for Active; 'I' for Inactive)
REMARK    1  A    between atoms: C_2  and  C_3 
REMARK    2  A    between atoms: C_3  and  O_6 
REMARK    3  A    between atoms: C_3  and  C_4 
REMARK    4  A    between atoms: C_7  and  O_6 
REMARK    5  A    between atoms: C_9  and  C_10 
REMARK    6  A    between atoms: N_15  and  C_14 
REMARK    7  A    between atoms: N_20  and  C_19 
REMARK       I    between atoms: C_22  and  N_20 
ROOT
ATOM      1  C   LIG d   1      -1.740  76.961 115.698  0.00  0.00     0.161 C 
ATOM      2  C   LIG d   1      -0.432  77.184 116.160  0.00  0.00     0.016 C 
ATOM      3  C   LIG d   1       0.189  76.391 117.152  0.00  0.00     0.038 C 
ATOM      4  C   LIG d   1      -0.407  75.220 117.645  0.00  0.00     0.028 C 
ATOM      5  C   LIG d   1      -1.930  75.241 117.577  0.00  0.00    -0.047 C 
ATOM      6  C   LIG d   1      -2.364  75.622 116.143  0.00  0.00     0.091 C 
ENDROOT
BRANCH   1   7
ATOM      7  O   LIG d   1      -1.777  77.078 114.262  0.00  0.00    -0.368 OA
BRANCH   7   8
ATOM      8  C   LIG d   1      -2.579  78.162 113.731  0.00  0.00     0.119 C 
BRANCH   8   9
ATOM      9  C   LIG d   1      -3.049  77.744 112.324  0.00  0.00     0.028 C 
ATOM     10  C   LIG d   1      -1.912  77.789 111.289  0.00  0.00     0.006 C 
ENDBRANCH   8   9
BRANCH   8  11
ATOM     11  C   LIG d   1      -1.740  79.425 113.520  0.00  0.00     0.028 C 
ATOM     12  C   LIG d   1      -2.582  80.711 113.543  0.00  0.00     0.006 C 
ENDBRANCH   8  11
ENDBRANCH   7   8
ENDBRANCH   1   7
BRANCH   6  13
ATOM     13  N   LIG d   1      -3.839  75.747 116.011  0.00  0.00    -0.311 N 
ATOM     14  C   LIG d   1      -4.529  75.243 114.990  0.00  0.00     0.210 C 
ATOM     15  C   LIG d   1      -6.038  75.502 115.038  0.00  0.00     0.109 C 
ATOM     16  O   LIG d   1      -4.039  74.577 114.065  0.00  0.00    -0.276 OA
ATOM     17  H   LIG d   1      -4.321  76.246 116.734  0.00  0.00     0.149 HD
ENDBRANCH   6  13
BRANCH   5  18
ATOM     18  N   LIG d   1      -2.413  73.910 117.992  0.00  0.00     0.381 N 
ATOM     19  H   LIG d   1      -1.641  73.278 118.067  0.00  0.00    -0.090 HD
ATOM     20  H   LIG d   1      -3.041  73.559 117.291  0.00  0.00    -0.090 HD
ATOM     21  H   LIG d   1      -2.884  73.976 118.868  0.00  0.00    -0.090 HD
ENDBRANCH   5  18
BRANCH   3  22
ATOM     22  C   LIG d   1       1.402  76.789 117.691  0.00  0.00     0.382 C 
ATOM     23  O   LIG d   1       1.745  77.995 117.640  0.00  0.00    -0.241 OA
ATOM     24  O   LIG d   1       2.179  75.951 118.188  0.00  0.00    -0.241 OA
ENDBRANCH   3  22
TORSDOF 7
ENDMDL
MODEL 6
REMARK VINA RESULT:      -4.8     23.014     25.187
REMARK  7 active torsions:
REMARK  status: ('A' for Active; 'I' for Inactive)
REMARK    1  A    between atoms: C_2  and  C_3 
REMARK    2  A    between atoms: C_3  and  O_6 
REMARK    3  A    between atoms: C_3  and  C_4 
REMARK    4  A    between atoms: C_7  and  O_6 
REMARK    5  A    between atoms: C_9  and  C_10 
REMARK    6  A    between atoms: N_15  and  C_14 
REMARK    7  A    between atoms: N_20  and  C_19 
REMARK       I    between atoms: C_22  and  N_20 
ROOT
ATOM      1  C   LIG d   1     -25.527  85.327 112.877  0.00  0.00     0.161 C 
ATOM      2  C   LIG d   1     -24.459  86.208 113.117  0.00  0.00     0.016 C 
ATOM      3  C   LIG d   1     -23.229  85.803 113.684  0.00  0.00     0.038 C 
ATOM      4  C   LIG d   1     -22.925  84.453 113.910  0.00  0.00     0.028 C 
ATOM      5  C   LIG d   1     -24.158  83.588 114.153  0.00  0.00    -0.047 C 
ATOM      6  C   LIG d   1     -25.174  83.831 113.014  0.00  0.00     0.091 C 
ENDROOT
BRANCH   1   7
ATOM      7  O   LIG d   1     -26.095  85.591 111.579  0.00  0.00    -0.368 OA
BRANCH   7   8
ATOM      8  C   LIG d   1     -27.403  86.214 111.570  0.00  0.00     0.119 C 
BRANCH   8   9
ATOM      9  C   LIG d   1     -27.218  87.671 111.103  0.00  0.00     0.028 C 
ATOM     10  C   LIG d   1     -27.239  88.669 112.273  0.00  0.00     0.006 C 
ENDBRANCH   8   9
BRANCH   8  11
ATOM     11  C   LIG d   1     -27.983  86.312 112.984  0.00  0.00     0.028 C 
ATOM     12  C   LIG d   1     -29.248  85.460 113.170  0.00  0.00     0.006 C 
ENDBRANCH   8  11
ENDBRANCH   7   8
ENDBRANCH   1   7
BRANCH   6  13
ATOM     13  N   LIG d   1     -26.444  83.087 113.219  0.00  0.00    -0.311 N 
ATOM     14  C   LIG d   1     -27.107  82.483 112.235  0.00  0.00     0.210 C 
ATOM     15  C   LIG d   1     -28.405  81.789 112.659  0.00  0.00     0.109 C 
ATOM     16  O   LIG d   1     -26.727  82.429 111.055  0.00  0.00    -0.276 OA
ATOM     17  H   LIG d   1     -26.808  83.054 114.151  0.00  0.00     0.149 HD
ENDBRANCH   6  13
BRANCH   5  18
ATOM     18  N   LIG d   1     -23.708  82.185 114.237  0.00  0.00     0.381 N 
ATOM     19  H   LIG d   1     -24.193  81.718 114.976  0.00  0.00    -0.090 HD
ATOM     20  H   LIG d   1     -22.725  82.171 114.445  0.00  0.00    -0.090 HD
ATOM     21  H   LIG d   1     -23.879  81.720 113.372  0.00  0.00    -0.090 HD
ENDBRANCH   5  18
BRANCH   3  22
ATOM     22  C   LIG d   1     -22.301  86.760 114.067  0.00  0.00     0.382 C 
ATOM     23  O   LIG d   1     -22.615  87.638 114.906  0.00  0.00    -0.241 OA
ATOM     24  O   LIG d   1     -21.167  86.783 113.551  0.00  0.00    -0.241 OA
ENDBRANCH   3  22
TORSDOF 7
ENDMDL
MODEL 7
REMARK VINA RESULT:      -4.7      2.943      6.737
REMARK  7 active torsions:
REMARK  status: ('A' for Active; 'I' for Inactive)
REMARK    1  A    between atoms: C_2  and  C_3 
REMARK    2  A    between atoms: C_3  and  O_6 
REMARK    3  A    between atoms: C_3  and  C_4 
REMARK    4  A    between atoms: C_7  and  O_6 
REMARK    5  A    between atoms: C_9  and  C_10 
REMARK    6  A    between atoms: N_15  and  C_14 
REMARK    7  A    between atoms: N_20  and  C_19 
REMARK       I    between atoms: C_22  and  N_20 
ROOT
ATOM      1  C   LIG d   1      -0.900  78.422 115.580  0.00  0.00     0.161 C 
ATOM      2  C   LIG d   1      -0.347  79.014 116.728  0.00  0.00     0.016 C 
ATOM      3  C   LIG d   1       0.013  80.380 116.803  0.00  0.00     0.038 C 
ATOM      4  C   LIG d   1      -0.299  81.286 115.778  0.00  0.00     0.028 C 
ATOM      5  C   LIG d   1      -0.399  80.634 114.403  0.00  0.00    -0.047 C 
ATOM      6  C   LIG d   1      -1.350  79.419 114.491  0.00  0.00     0.091 C 
ENDROOT
BRANCH   1   7
ATOM      7  O   LIG d   1      -1.993  77.561 115.954  0.00  0.00    -0.368 OA
BRANCH   7   8
ATOM      8  C   LIG d   1      -1.629  76.274 116.511  0.00  0.00     0.119 C 
BRANCH   8   9
ATOM      9  C   LIG d   1      -2.035  75.195 115.488  0.00  0.00     0.028 C 
ATOM     10  C   LIG d   1      -0.818  74.486 114.870  0.00  0.00     0.006 C 
ENDBRANCH   8   9
BRANCH   8  11
ATOM     11  C   LIG d   1      -2.441  75.963 117.772  0.00  0.00     0.028 C 
ATOM     12  C   LIG d   1      -2.364  74.483 118.180  0.00  0.00     0.006 C 
ENDBRANCH   8  11
ENDBRANCH   7   8
ENDBRANCH   1   7
BRANCH   6  13
ATOM     13  N   LIG d   1      -1.438  78.674 113.209  0.00  0.00    -0.311 N 
ATOM     14  C   LIG d   1      -2.419  78.850 112.325  0.00  0.00     0.210 C 
ATOM     15  C   LIG d   1      -2.331  77.965 111.077  0.00  0.00     0.109 C 
ATOM     16  O   LIG d   1      -3.336  79.677 112.441  0.00  0.00    -0.276 OA
ATOM     17  H   LIG d   1      -0.718  78.004 113.019  0.00  0.00     0.149 HD
ENDBRANCH   6  13
BRANCH   5  18
ATOM     18  N   LIG d   1      -0.864  81.664 113.454  0.00  0.00     0.381 N 
ATOM     19  H   LIG d   1      -1.836  81.532 113.260  0.00  0.00    -0.090 HD
ATOM     20  H   LIG d   1      -0.354  81.567 112.594  0.00  0.00    -0.090 HD
ATOM     21  H   LIG d   1      -0.714  82.572 113.836  0.00  0.00    -0.090 HD
ENDBRANCH   5  18
BRANCH   3  22
ATOM     22  C   LIG d   1       0.728  80.843 117.896  0.00  0.00     0.382 C 
ATOM     23  O   LIG d   1       1.515  80.076 118.501  0.00  0.00    -0.241 OA
ATOM     24  O   LIG d   1       0.562  82.005 118.313  0.00  0.00    -0.241 OA
ENDBRANCH   3  22
TORSDOF 7
ENDMDL
MODEL 8
REMARK VINA RESULT:      -4.7      9.936     11.232
REMARK  7 active torsions:
REMARK  status: ('A' for Active; 'I' for Inactive)
REMARK    1  A    between atoms: C_2  and  C_3 
REMARK    2  A    between atoms: C_3  and  O_6 
REMARK    3  A    between atoms: C_3  and  C_4 
REMARK    4  A    between atoms: C_7  and  O_6 
REMARK    5  A    between atoms: C_9  and  C_10 
REMARK    6  A    between atoms: N_15  and  C_14 
REMARK    7  A    between atoms: N_20  and  C_19 
REMARK       I    between atoms: C_22  and  N_20 
ROOT
ATOM      1  C   LIG d   1       1.136  86.704 114.580  0.00  0.00     0.161 C 
ATOM      2  C   LIG d   1      -0.143  86.266 114.964  0.00  0.00     0.016 C 
ATOM      3  C   LIG d   1      -0.862  86.822 116.047  0.00  0.00     0.038 C 
ATOM      4  C   LIG d   1      -0.411  87.961 116.730  0.00  0.00     0.028 C 
ATOM      5  C   LIG d   1       1.105  88.123 116.704  0.00  0.00    -0.047 C 
ATOM      6  C   LIG d   1       1.596  88.019 115.242  0.00  0.00     0.091 C 
ENDROOT
BRANCH   1   7
ATOM      7  O   LIG d   1       1.203  86.815 113.144  0.00  0.00    -0.368 OA
BRANCH   7   8
ATOM      8  C   LIG d   1       0.897  85.613 112.396  0.00  0.00     0.119 C 
BRANCH   8   9
ATOM      9  C   LIG d   1       2.235  84.942 112.030  0.00  0.00     0.028 C 
ATOM     10  C   LIG d   1       3.370  85.963 111.840  0.00  0.00     0.006 C 
ENDBRANCH   8   9
BRANCH   8  11
ATOM     11  C   LIG d   1       0.229  85.944 111.058  0.00  0.00     0.028 C 
ATOM     12  C   LIG d   1      -1.211  86.453 111.221  0.00  0.00     0.006 C 
ENDBRANCH   8  11
ENDBRANCH   7   8
ENDBRANCH   1   7
BRANCH   6  13
ATOM     13  N   LIG d   1       3.077  88.082 115.136  0.00  0.00    -0.311 N 
ATOM     14  C   LIG d   1       3.716  88.812 114.223  0.00  0.00     0.210 C 
ATOM     15  C   LIG d   1       5.244  88.720 114.275  0.00  0.00     0.109 C 
ATOM     16  O   LIG d   1       3.163  89.552 113.395  0.00  0.00    -0.276 OA
ATOM     17  H   LIG d   1       3.605  87.537 115.788  0.00  0.00     0.149 HD
ENDBRANCH   6  13
BRANCH   5  18
ATOM     18  N   LIG d   1       1.426  89.419 117.331  0.00  0.00     0.381 N 
ATOM     19  H   LIG d   1       0.765  90.110 117.037  0.00  0.00    -0.090 HD
ATOM     20  H   LIG d   1       2.340  89.708 117.031  0.00  0.00    -0.090 HD
ATOM     21  H   LIG d   1       1.407  89.332 118.324  0.00  0.00    -0.090 HD
ENDBRANCH   5  18
BRANCH   3  22
ATOM     22  C   LIG d   1      -2.027  86.211 116.483  0.00  0.00     0.382 C 
ATOM     23  O   LIG d   1      -2.085  85.721 117.637  0.00  0.00    -0.241 OA
ATOM     24  O   LIG d   1      -3.007  86.103 115.722  0.00  0.00    -0.241 OA
ENDBRANCH   3  22
TORSDOF 7
ENDMDL
MODEL 9
REMARK VINA RESULT:      -4.7      5.438      8.903
REMARK  7 active torsions:
REMARK  status: ('A' for Active; 'I' for Inactive)
REMARK    1  A    between atoms: C_2  and  C_3 
REMARK    2  A    between atoms: C_3  and  O_6 
REMARK    3  A    between atoms: C_3  and  C_4 
REMARK    4  A    between atoms: C_7  and  O_6 
REMARK    5  A    between atoms: C_9  and  C_10 
REMARK    6  A    between atoms: N_15  and  C_14 
REMARK    7  A    between atoms: N_20  and  C_19 
REMARK       I    between atoms: C_22  and  N_20 
ROOT
ATOM      1  C   LIG d   1      -0.525  83.644 114.822  0.00  0.00     0.161 C 
ATOM      2  C   LIG d   1       0.124  84.873 114.621  0.00  0.00     0.016 C 
ATOM      3  C   LIG d   1       0.351  85.434 113.343  0.00  0.00     0.038 C 
ATOM      4  C   LIG d   1      -0.194  84.871 112.179  0.00  0.00     0.028 C 
ATOM      5  C   LIG d   1      -0.423  83.367 112.283  0.00  0.00    -0.047 C 
ATOM      6  C   LIG d   1      -1.224  83.070 113.572  0.00  0.00     0.091 C 
ENDROOT
BRANCH   1   7
ATOM      7  O   LIG d   1      -1.461  83.758 115.912  0.00  0.00    -0.368 OA
BRANCH   7   8
ATOM      8  C   LIG d   1      -0.933  84.285 117.153  0.00  0.00     0.119 C 
BRANCH   8   9
ATOM      9  C   LIG d   1      -0.622  83.087 118.070  0.00  0.00     0.028 C 
ATOM     10  C   LIG d   1       0.876  82.739 118.095  0.00  0.00     0.006 C 
ENDBRANCH   8   9
BRANCH   8  11
ATOM     11  C   LIG d   1      -1.986  85.107 117.902  0.00  0.00     0.028 C 
ATOM     12  C   LIG d   1      -1.719  86.619 117.837  0.00  0.00     0.006 C 
ENDBRANCH   8  11
ENDBRANCH   7   8
ENDBRANCH   1   7
BRANCH   6  13
ATOM     13  N   LIG d   1      -1.419  81.613 113.794  0.00  0.00    -0.311 N 
ATOM     14  C   LIG d   1      -2.487  80.942 113.366  0.00  0.00     0.210 C 
ATOM     15  C   LIG d   1      -2.499  79.452 113.719  0.00  0.00     0.109 C 
ATOM     16  O   LIG d   1      -3.410  81.434 112.699  0.00  0.00    -0.276 OA
ATOM     17  H   LIG d   1      -0.703  81.129 114.300  0.00  0.00     0.149 HD
ENDBRANCH   6  13
BRANCH   5  18
ATOM     18  N   LIG d   1      -1.120  82.936 111.057  0.00  0.00     0.381 N 
ATOM     19  H   LIG d   1      -0.533  82.317 110.534  0.00  0.00    -0.090 HD
ATOM     20  H   LIG d   1      -1.311  83.744 110.490  0.00  0.00    -0.090 HD
ATOM     21  H   LIG d   1      -1.973  82.477 111.292  0.00  0.00    -0.090 HD
ENDBRANCH   5  18
BRANCH   3  22
ATOM     22  C   LIG d   1       1.164  86.549 113.216  0.00  0.00     0.382 C 
ATOM     23  O   LIG d   1       1.329  87.320 114.193  0.00  0.00    -0.241 OA
ATOM     24  O   LIG d   1       1.700  86.820 112.125  0.00  0.00    -0.241 OA
ENDBRANCH   3  22
TORSDOF 7
ENDMDL
