MODEL 1
REMARK VINA RESULT:      -5.3      0.000      0.000
REMARK  7 active torsions:
REMARK  status: ('A' for Active; 'I' for Inactive)
REMARK    1  A    between atoms: C_2  and  C_3 
REMARK    2  A    between atoms: C_3  and  O_6 
REMARK    3  A    between atoms: C_3  and  C_4 
REMARK    4  A    between atoms: C_7  and  O_6 
REMARK    5  A    between atoms: C_9  and  C_10 
REMARK    6  A    between atoms: N_15  and  C_14 
REMARK    7  A    between atoms: N_20  and  C_19 
REMARK       I    between atoms: C_22  and  N_20 
ROOT
ATOM      1  C   LIG d   1       1.769  87.156 115.168  0.00  0.00     0.161 C 
ATOM      2  C   LIG d   1       1.607  87.985 116.291  0.00  0.00     0.016 C 
ATOM      3  C   LIG d   1       2.238  89.243 116.427  0.00  0.00     0.038 C 
ATOM      4  C   LIG d   1       2.959  89.828 115.376  0.00  0.00     0.028 C 
ATOM      5  C   LIG d   1       3.567  88.809 114.417  0.00  0.00    -0.047 C 
ATOM      6  C   LIG d   1       2.463  87.826 113.964  0.00  0.00     0.091 C 
ENDROOT
BRANCH   1   7
ATOM      7  O   LIG d   1       0.494  86.613 114.773  0.00  0.00    -0.368 OA
BRANCH   7   8
ATOM      8  C   LIG d   1       0.277  85.212 115.072  0.00  0.00     0.119 C 
BRANCH   8   9
ATOM      9  C   LIG d   1      -0.163  84.523 113.766  0.00  0.00     0.028 C 
ATOM     10  C   LIG d   1      -0.505  85.531 112.656  0.00  0.00     0.006 C 
ENDBRANCH   8   9
BRANCH   8  11
ATOM     11  C   LIG d   1      -0.893  85.024 116.043  0.00  0.00     0.028 C 
ATOM     12  C   LIG d   1      -0.435  84.849 117.500  0.00  0.00     0.006 C 
ENDBRANCH   8  11
ENDBRANCH   7   8
ENDBRANCH   1   7
BRANCH   6  13
ATOM     13  N   LIG d   1       2.990  86.746 113.090  0.00  0.00    -0.311 N 
ATOM     14  C   LIG d   1       2.860  86.746 111.764  0.00  0.00     0.210 C 
ATOM     15  C   LIG d   1       3.458  85.527 111.056  0.00  0.00     0.109 C 
ATOM     16  O   LIG d   1       2.334  87.656 111.106  0.00  0.00    -0.276 OA
ATOM     17  H   LIG d   1       3.459  85.984 113.539  0.00  0.00     0.149 HD
ENDBRANCH   6  13
BRANCH   5  18
ATOM     18  N   LIG d   1       4.171  89.556 113.298  0.00  0.00     0.381 N 
ATOM     19  H   LIG d   1       5.064  89.165 113.072  0.00  0.00    -0.090 HD
ATOM     20  H   LIG d   1       4.307  90.511 113.580  0.00  0.00    -0.090 HD
ATOM     21  H   LIG d   1       3.573  89.519 112.501  0.00  0.00    -0.090 HD
ENDBRANCH   5  18
BRANCH   3  22
ATOM     22  C   LIG d   1       2.183  89.911 117.640  0.00  0.00     0.382 C 
ATOM     23  O   LIG d   1       2.267  91.163 117.671  0.00  0.00    -0.241 OA
ATOM     24  O   LIG d   1       2.095  89.276 118.708  0.00  0.00    -0.241 OA
ENDBRANCH   3  22
TORSDOF 7
ENDMDL
MODEL 2
REMARK VINA RESULT:      -5.3      3.081      4.257
REMARK  7 active torsions:
REMARK  status: ('A' for Active; 'I' for Inactive)
REMARK    1  A    between atoms: C_2  and  C_3 
REMARK    2  A    between atoms: C_3  and  O_6 
REMARK    3  A    between atoms: C_3  and  C_4 
REMARK    4  A    between atoms: C_7  and  O_6 
REMARK    5  A    between atoms: C_9  and  C_10 
REMARK    6  A    between atoms: N_15  and  C_14 
REMARK    7  A    between atoms: N_20  and  C_19 
REMARK       I    between atoms: C_22  and  N_20 
ROOT
ATOM      1  C   LIG d   1       1.858  86.047 113.743  0.00  0.00     0.161 C 
ATOM      2  C   LIG d   1       2.543  87.260 113.563  0.00  0.00     0.016 C 
ATOM      3  C   LIG d   1       3.606  87.425 112.645  0.00  0.00     0.038 C 
ATOM      4  C   LIG d   1       3.958  86.421 111.731  0.00  0.00     0.028 C 
ATOM      5  C   LIG d   1       3.631  85.014 112.220  0.00  0.00    -0.047 C 
ATOM      6  C   LIG d   1       2.154  84.973 112.677  0.00  0.00     0.091 C 
ENDROOT
BRANCH   1   7
ATOM      7  O   LIG d   1       0.440  86.294 113.825  0.00  0.00    -0.368 OA
BRANCH   7   8
ATOM      8  C   LIG d   1      -0.134  86.276 115.155  0.00  0.00     0.119 C 
BRANCH   8   9
ATOM      9  C   LIG d   1       0.778  85.406 116.042  0.00  0.00     0.028 C 
ATOM     10  C   LIG d   1       0.980  86.006 117.443  0.00  0.00     0.006 C 
ENDBRANCH   8   9
BRANCH   8  11
ATOM     11  C   LIG d   1      -1.496  85.576 115.165  0.00  0.00     0.028 C 
ATOM     12  C   LIG d   1      -1.378  84.044 115.219  0.00  0.00     0.006 C 
ENDBRANCH   8  11
ENDBRANCH   7   8
ENDBRANCH   1   7
BRANCH   6  13
ATOM     13  N   LIG d   1       1.775  83.654 113.249  0.00  0.00    -0.311 N 
ATOM     14  C   LIG d   1       1.189  82.689 112.541  0.00  0.00     0.210 C 
ATOM     15  C   LIG d   1       0.864  81.417 113.329  0.00  0.00     0.109 C 
ATOM     16  O   LIG d   1       0.938  82.755 111.329  0.00  0.00    -0.276 OA
ATOM     17  H   LIG d   1       1.971  83.505 114.219  0.00  0.00     0.149 HD
ENDBRANCH   6  13
BRANCH   5  18
ATOM     18  N   LIG d   1       3.921  84.079 111.117  0.00  0.00     0.381 N 
ATOM     19  H   LIG d   1       3.359  84.309 110.322  0.00  0.00    -0.090 HD
ATOM     20  H   LIG d   1       3.688  83.147 111.410  0.00  0.00    -0.090 HD
ATOM     21  H   LIG d   1       4.887  84.127 110.875  0.00  0.00    -0.090 HD
ENDBRANCH   5  18
BRANCH   3  22
ATOM     22  C   LIG d   1       4.355  88.591 112.663  0.00  0.00     0.382 C 
ATOM     23  O   LIG d   1       5.563  88.566 112.323  0.00  0.00    -0.241 OA
ATOM     24  O   LIG d   1       3.851  89.660 113.058  0.00  0.00    -0.241 OA
ENDBRANCH   3  22
TORSDOF 7
ENDMDL
MODEL 3
REMARK VINA RESULT:      -5.2     14.263     16.250
REMARK  7 active torsions:
REMARK  status: ('A' for Active; 'I' for Inactive)
REMARK    1  A    between atoms: C_2  and  C_3 
REMARK    2  A    between atoms: C_3  and  O_6 
REMARK    3  A    between atoms: C_3  and  C_4 
REMARK    4  A    between atoms: C_7  and  O_6 
REMARK    5  A    between atoms: C_9  and  C_10 
REMARK    6  A    between atoms: N_15  and  C_14 
REMARK    7  A    between atoms: N_20  and  C_19 
REMARK       I    between atoms: C_22  and  N_20 
ROOT
ATOM      1  C   LIG d   1      -7.630  74.870 118.808  0.00  0.00     0.161 C 
ATOM      2  C   LIG d   1      -8.832  75.591 118.716  0.00  0.00     0.016 C 
ATOM      3  C   LIG d   1      -8.997  76.725 117.888  0.00  0.00     0.038 C 
ATOM      4  C   LIG d   1      -8.010  77.127 116.975  0.00  0.00     0.028 C 
ATOM      5  C   LIG d   1      -6.598  76.734 117.397  0.00  0.00    -0.047 C 
ATOM      6  C   LIG d   1      -6.578  75.226 117.737  0.00  0.00     0.091 C 
ENDROOT
BRANCH   1   7
ATOM      7  O   LIG d   1      -7.907  73.455 118.788  0.00  0.00    -0.368 OA
BRANCH   7   8
ATOM      8  C   LIG d   1      -8.227  72.887 117.494  0.00  0.00     0.119 C 
BRANCH   8   9
ATOM      9  C   LIG d   1      -9.594  72.187 117.623  0.00  0.00     0.028 C 
ATOM     10  C   LIG d   1      -9.459  70.693 117.964  0.00  0.00     0.006 C 
ENDBRANCH   8   9
BRANCH   8  11
ATOM     11  C   LIG d   1      -7.239  71.781 117.111  0.00  0.00     0.028 C 
ATOM     12  C   LIG d   1      -6.951  71.737 115.602  0.00  0.00     0.006 C 
ENDBRANCH   8  11
ENDBRANCH   7   8
ENDBRANCH   1   7
BRANCH   6  13
ATOM     13  N   LIG d   1      -5.254  74.776 118.240  0.00  0.00    -0.311 N 
ATOM     14  C   LIG d   1      -4.292  74.302 117.451  0.00  0.00     0.210 C 
ATOM     15  C   LIG d   1      -3.012  73.875 118.176  0.00  0.00     0.109 C 
ATOM     16  O   LIG d   1      -4.366  74.223 116.215  0.00  0.00    -0.276 OA
ATOM     17  H   LIG d   1      -5.097  74.835 119.228  0.00  0.00     0.149 HD
ENDBRANCH   6  13
BRANCH   5  18
ATOM     18  N   LIG d   1      -5.687  77.090 116.293  0.00  0.00     0.381 N 
ATOM     19  H   LIG d   1      -5.139  77.887 116.550  0.00  0.00    -0.090 HD
ATOM     20  H   LIG d   1      -6.234  77.330 115.485  0.00  0.00    -0.090 HD
ATOM     21  H   LIG d   1      -5.090  76.321 116.082  0.00  0.00    -0.090 HD
ENDBRANCH   5  18
BRANCH   3  22
ATOM     22  C   LIG d   1     -10.145  77.495 117.997  0.00  0.00     0.382 C 
ATOM     23  O   LIG d   1     -11.265  76.938 118.098  0.00  0.00    -0.241 OA
ATOM     24  O   LIG d   1     -10.080  78.738 117.950  0.00  0.00    -0.241 OA
ENDBRANCH   3  22
TORSDOF 7
ENDMDL
MODEL 4
REMARK VINA RESULT:      -5.0      1.409      2.117
REMARK  7 active torsions:
REMARK  status: ('A' for Active; 'I' for Inactive)
REMARK    1  A    between atoms: C_2  and  C_3 
REMARK    2  A    between atoms: C_3  and  O_6 
REMARK    3  A    between atoms: C_3  and  C_4 
REMARK    4  A    between atoms: C_7  and  O_6 
REMARK    5  A    between atoms: C_9  and  C_10 
REMARK    6  A    between atoms: N_15  and  C_14 
REMARK    7  A    between atoms: N_20  and  C_19 
REMARK       I    between atoms: C_22  and  N_20 
ROOT
ATOM      1  C   LIG d   1       2.690  87.431 114.586  0.00  0.00     0.161 C 
ATOM      2  C   LIG d   1       2.608  88.492 115.502  0.00  0.00     0.016 C 
ATOM      3  C   LIG d   1       3.479  89.606 115.483  0.00  0.00     0.038 C 
ATOM      4  C   LIG d   1       4.401  89.808 114.446  0.00  0.00     0.028 C 
ATOM      5  C   LIG d   1       4.861  88.514 113.783  0.00  0.00    -0.047 C 
ATOM      6  C   LIG d   1       3.618  87.688 113.380  0.00  0.00     0.091 C 
ENDROOT
BRANCH   1   7
ATOM      7  O   LIG d   1       1.369  87.072 114.134  0.00  0.00    -0.368 OA
BRANCH   7   8
ATOM      8  C   LIG d   1       0.694  86.040 114.894  0.00  0.00     0.119 C 
BRANCH   8   9
ATOM      9  C   LIG d   1       1.573  84.775 114.839  0.00  0.00     0.028 C 
ATOM     10  C   LIG d   1       1.126  83.706 115.850  0.00  0.00     0.006 C 
ENDBRANCH   8   9
BRANCH   8  11
ATOM     11  C   LIG d   1      -0.631  85.641 114.237  0.00  0.00     0.028 C 
ATOM     12  C   LIG d   1      -0.528  85.529 112.708  0.00  0.00     0.006 C 
ENDBRANCH   8  11
ENDBRANCH   7   8
ENDBRANCH   1   7
BRANCH   6  13
ATOM     13  N   LIG d   1       3.978  86.368 112.800  0.00  0.00    -0.311 N 
ATOM     14  C   LIG d   1       3.386  85.853 111.724  0.00  0.00     0.210 C 
ATOM     15  C   LIG d   1       3.895  84.470 111.305  0.00  0.00     0.109 C 
ATOM     16  O   LIG d   1       2.509  86.424 111.059  0.00  0.00    -0.276 OA
ATOM     17  H   LIG d   1       4.702  85.850 113.260  0.00  0.00     0.149 HD
ENDBRANCH   6  13
BRANCH   5  18
ATOM     18  N   LIG d   1       5.710  88.879 112.634  0.00  0.00     0.381 N 
ATOM     19  H   LIG d   1       5.138  89.192 111.875  0.00  0.00    -0.090 HD
ATOM     20  H   LIG d   1       6.216  88.065 112.332  0.00  0.00    -0.090 HD
ATOM     21  H   LIG d   1       6.348  89.597 112.896  0.00  0.00    -0.090 HD
ENDBRANCH   5  18
BRANCH   3  22
ATOM     22  C   LIG d   1       3.458  90.512 116.533  0.00  0.00     0.382 C 
ATOM     23  O   LIG d   1       3.806  90.148 117.682  0.00  0.00    -0.241 OA
ATOM     24  O   LIG d   1       3.055  91.677 116.354  0.00  0.00    -0.241 OA
ENDBRANCH   3  22
TORSDOF 7
ENDMDL
MODEL 5
REMARK VINA RESULT:      -4.8      3.669      4.958
REMARK  7 active torsions:
REMARK  status: ('A' for Active; 'I' for Inactive)
REMARK    1  A    between atoms: C_2  and  C_3 
REMARK    2  A    between atoms: C_3  and  O_6 
REMARK    3  A    between atoms: C_3  and  C_4 
REMARK    4  A    between atoms: C_7  and  O_6 
REMARK    5  A    between atoms: C_9  and  C_10 
REMARK    6  A    between atoms: N_15  and  C_14 
REMARK    7  A    between atoms: N_20  and  C_19 
REMARK       I    between atoms: C_22  and  N_20 
ROOT
ATOM      1  C   LIG d   1       4.622  87.182 115.769  0.00  0.00     0.161 C 
ATOM      2  C   LIG d   1       3.589  88.125 115.642  0.00  0.00     0.016 C 
ATOM      3  C   LIG d   1       3.705  89.469 116.066  0.00  0.00     0.038 C 
ATOM      4  C   LIG d   1       4.924  90.003 116.511  0.00  0.00     0.028 C 
ATOM      5  C   LIG d   1       5.851  88.962 117.129  0.00  0.00    -0.047 C 
ATOM      6  C   LIG d   1       5.995  87.775 116.150  0.00  0.00     0.091 C 
ENDROOT
BRANCH   1   7
ATOM      7  O   LIG d   1       4.729  86.408 114.558  0.00  0.00    -0.368 OA
BRANCH   7   8
ATOM      8  C   LIG d   1       3.781  86.729 113.510  0.00  0.00     0.119 C 
BRANCH   8   9
ATOM      9  C   LIG d   1       3.057  85.425 113.126  0.00  0.00     0.028 C 
ATOM     10  C   LIG d   1       3.823  84.619 112.064  0.00  0.00     0.006 C 
ENDBRANCH   8   9
BRANCH   8  11
ATOM     11  C   LIG d   1       4.495  87.188 112.235  0.00  0.00     0.028 C 
ATOM     12  C   LIG d   1       5.479  88.342 112.485  0.00  0.00     0.006 C 
ENDBRANCH   8  11
ENDBRANCH   7   8
ENDBRANCH   1   7
BRANCH   6  13
ATOM     13  N   LIG d   1       6.820  86.673 116.713  0.00  0.00    -0.311 N 
ATOM     14  C   LIG d   1       8.131  86.562 116.509  0.00  0.00     0.210 C 
ATOM     15  C   LIG d   1       8.785  85.341 117.163  0.00  0.00     0.109 C 
ATOM     16  O   LIG d   1       8.820  87.375 115.875  0.00  0.00    -0.276 OA
ATOM     17  H   LIG d   1       6.346  85.986 117.266  0.00  0.00     0.149 HD
ENDBRANCH   6  13
BRANCH   5  18
ATOM     18  N   LIG d   1       7.135  89.628 117.423  0.00  0.00     0.381 N 
ATOM     19  H   LIG d   1       7.329  90.314 116.721  0.00  0.00    -0.090 HD
ATOM     20  H   LIG d   1       7.868  88.942 117.405  0.00  0.00    -0.090 HD
ATOM     21  H   LIG d   1       7.097  90.061 118.319  0.00  0.00    -0.090 HD
ENDBRANCH   5  18
BRANCH   3  22
ATOM     22  C   LIG d   1       2.583  90.284 116.084  0.00  0.00     0.382 C 
ATOM     23  O   LIG d   1       1.449  89.793 115.865  0.00  0.00    -0.241 OA
ATOM     24  O   LIG d   1       2.695  91.510 116.273  0.00  0.00    -0.241 OA
ENDBRANCH   3  22
TORSDOF 7
ENDMDL
MODEL 6
REMARK VINA RESULT:      -4.8      2.916      4.374
REMARK  7 active torsions:
REMARK  status: ('A' for Active; 'I' for Inactive)
REMARK    1  A    between atoms: C_2  and  C_3 
REMARK    2  A    between atoms: C_3  and  O_6 
REMARK    3  A    between atoms: C_3  and  C_4 
REMARK    4  A    between atoms: C_7  and  O_6 
REMARK    5  A    between atoms: C_9  and  C_10 
REMARK    6  A    between atoms: N_15  and  C_14 
REMARK    7  A    between atoms: N_20  and  C_19 
REMARK       I    between atoms: C_22  and  N_20 
ROOT
ATOM      1  C   LIG d   1       2.880  85.319 113.831  0.00  0.00     0.161 C 
ATOM      2  C   LIG d   1       3.659  86.485 113.751  0.00  0.00     0.016 C 
ATOM      3  C   LIG d   1       3.387  87.543 112.854  0.00  0.00     0.038 C 
ATOM      4  C   LIG d   1       2.221  87.572 112.074  0.00  0.00     0.028 C 
ATOM      5  C   LIG d   1       1.672  86.186 111.753  0.00  0.00    -0.047 C 
ATOM      6  C   LIG d   1       1.541  85.382 113.066  0.00  0.00     0.091 C 
ENDROOT
BRANCH   1   7
ATOM      7  O   LIG d   1       2.653  84.976 115.212  0.00  0.00    -0.368 OA
BRANCH   7   8
ATOM      8  C   LIG d   1       1.778  85.862 115.953  0.00  0.00     0.119 C 
BRANCH   8   9
ATOM      9  C   LIG d   1       2.636  86.578 117.014  0.00  0.00     0.028 C 
ATOM     10  C   LIG d   1       1.807  87.044 118.222  0.00  0.00     0.006 C 
ENDBRANCH   8   9
BRANCH   8  11
ATOM     11  C   LIG d   1       0.729  85.075 116.744  0.00  0.00     0.028 C 
ATOM     12  C   LIG d   1      -0.687  85.222 116.165  0.00  0.00     0.006 C 
ENDBRANCH   8  11
ENDBRANCH   7   8
ENDBRANCH   1   7
BRANCH   6  13
ATOM     13  N   LIG d   1       1.090  83.985 112.833  0.00  0.00    -0.311 N 
ATOM     14  C   LIG d   1      -0.192  83.627 112.789  0.00  0.00     0.210 C 
ATOM     15  C   LIG d   1      -0.438  82.132 112.557  0.00  0.00     0.109 C 
ATOM     16  O   LIG d   1      -1.149  84.409 112.887  0.00  0.00    -0.276 OA
ATOM     17  H   LIG d   1       1.801  83.291 112.712  0.00  0.00     0.149 HD
ENDBRANCH   6  13
BRANCH   5  18
ATOM     18  N   LIG d   1       0.385  86.367 111.055  0.00  0.00     0.381 N 
ATOM     19  H   LIG d   1      -0.371  86.214 111.693  0.00  0.00    -0.090 HD
ATOM     20  H   LIG d   1       0.317  85.690 110.316  0.00  0.00    -0.090 HD
ATOM     21  H   LIG d   1       0.328  87.288 110.677  0.00  0.00    -0.090 HD
ENDBRANCH   5  18
BRANCH   3  22
ATOM     22  C   LIG d   1       4.307  88.568 112.700  0.00  0.00     0.382 C 
ATOM     23  O   LIG d   1       3.990  89.745 112.998  0.00  0.00    -0.241 OA
ATOM     24  O   LIG d   1       5.436  88.338 112.227  0.00  0.00    -0.241 OA
ENDBRANCH   3  22
TORSDOF 7
ENDMDL
MODEL 7
REMARK VINA RESULT:      -4.7     28.144     29.787
REMARK  7 active torsions:
REMARK  status: ('A' for Active; 'I' for Inactive)
REMARK    1  A    between atoms: C_2  and  C_3 
REMARK    2  A    between atoms: C_3  and  O_6 
REMARK    3  A    between atoms: C_3  and  C_4 
REMARK    4  A    between atoms: C_7  and  O_6 
REMARK    5  A    between atoms: C_9  and  C_10 
REMARK    6  A    between atoms: N_15  and  C_14 
REMARK    7  A    between atoms: N_20  and  C_19 
REMARK       I    between atoms: C_22  and  N_20 
ROOT
ATOM      1  C   LIG d   1       1.357  58.622 118.534  0.00  0.00     0.161 C 
ATOM      2  C   LIG d   1       2.475  59.465 118.643  0.00  0.00     0.016 C 
ATOM      3  C   LIG d   1       3.805  59.022 118.460  0.00  0.00     0.038 C 
ATOM      4  C   LIG d   1       4.099  57.728 118.003  0.00  0.00     0.028 C 
ATOM      5  C   LIG d   1       3.033  56.701 118.368  0.00  0.00    -0.047 C 
ATOM      6  C   LIG d   1       1.651  57.234 117.928  0.00  0.00     0.091 C 
ENDROOT
BRANCH   1   7
ATOM      7  O   LIG d   1       0.316  59.285 117.789  0.00  0.00    -0.368 OA
BRANCH   7   8
ATOM      8  C   LIG d   1      -1.044  58.960 118.167  0.00  0.00     0.119 C 
BRANCH   8   9
ATOM      9  C   LIG d   1      -1.826  58.664 116.873  0.00  0.00     0.028 C 
ATOM     10  C   LIG d   1      -0.916  58.618 115.634  0.00  0.00     0.006 C 
ENDBRANCH   8   9
BRANCH   8  11
ATOM     11  C   LIG d   1      -1.749  60.164 118.800  0.00  0.00     0.028 C 
ATOM     12  C   LIG d   1      -3.168  59.834 119.288  0.00  0.00     0.006 C 
ENDBRANCH   8  11
ENDBRANCH   7   8
ENDBRANCH   1   7
BRANCH   6  13
ATOM     13  N   LIG d   1       0.541  56.327 118.322  0.00  0.00    -0.311 N 
ATOM     14  C   LIG d   1       0.013  55.416 117.507  0.00  0.00     0.210 C 
ATOM     15  C   LIG d   1      -1.135  54.599 118.107  0.00  0.00     0.109 C 
ATOM     16  O   LIG d   1       0.408  55.186 116.354  0.00  0.00    -0.276 OA
ATOM     17  H   LIG d   1       0.181  56.425 119.252  0.00  0.00     0.149 HD
ENDBRANCH   6  13
BRANCH   5  18
ATOM     18  N   LIG d   1       3.397  55.429 117.714  0.00  0.00     0.381 N 
ATOM     19  H   LIG d   1       4.375  55.254 117.835  0.00  0.00    -0.090 HD
ATOM     20  H   LIG d   1       3.210  55.505 116.729  0.00  0.00    -0.090 HD
ATOM     21  H   LIG d   1       2.868  54.681 118.104  0.00  0.00    -0.090 HD
ENDBRANCH   5  18
BRANCH   3  22
ATOM     22  C   LIG d   1       4.860  59.865 118.773  0.00  0.00     0.382 C 
ATOM     23  O   LIG d   1       4.797  61.083 118.479  0.00  0.00    -0.241 OA
ATOM     24  O   LIG d   1       5.893  59.415 119.305  0.00  0.00    -0.241 OA
ENDBRANCH   3  22
TORSDOF 7
ENDMDL
MODEL 8
REMARK VINA RESULT:      -4.7     13.149     16.320
REMARK  7 active torsions:
REMARK  status: ('A' for Active; 'I' for Inactive)
REMARK    1  A    between atoms: C_2  and  C_3 
REMARK    2  A    between atoms: C_3  and  O_6 
REMARK    3  A    between atoms: C_3  and  C_4 
REMARK    4  A    between atoms: C_7  and  O_6 
REMARK    5  A    between atoms: C_9  and  C_10 
REMARK    6  A    between atoms: N_15  and  C_14 
REMARK    7  A    between atoms: N_20  and  C_19 
REMARK       I    between atoms: C_22  and  N_20 
ROOT
ATOM      1  C   LIG d   1      -8.019  75.268 117.920  0.00  0.00     0.161 C 
ATOM      2  C   LIG d   1      -8.511  73.953 117.870  0.00  0.00     0.016 C 
ATOM      3  C   LIG d   1      -7.784  72.871 117.322  0.00  0.00     0.038 C 
ATOM      4  C   LIG d   1      -6.447  73.003 116.921  0.00  0.00     0.028 C 
ATOM      5  C   LIG d   1      -6.081  74.419 116.487  0.00  0.00    -0.047 C 
ATOM      6  C   LIG d   1      -6.518  75.410 117.589  0.00  0.00     0.091 C 
ENDROOT
BRANCH   1   7
ATOM      7  O   LIG d   1      -8.305  75.848 119.208  0.00  0.00    -0.368 OA
BRANCH   7   8
ATOM      8  C   LIG d   1      -9.239  76.955 119.215  0.00  0.00     0.119 C 
BRANCH   8   9
ATOM      9  C   LIG d   1      -9.952  76.969 117.849  0.00  0.00     0.028 C 
ATOM     10  C   LIG d   1     -11.373  76.386 117.923  0.00  0.00     0.006 C 
ENDBRANCH   8   9
BRANCH   8  11
ATOM     11  C   LIG d   1      -8.509  78.299 119.305  0.00  0.00     0.028 C 
ATOM     12  C   LIG d   1      -8.879  79.255 118.160  0.00  0.00     0.006 C 
ENDBRANCH   8  11
ENDBRANCH   7   8
ENDBRANCH   1   7
BRANCH   6  13
ATOM     13  N   LIG d   1      -6.274  76.826 117.208  0.00  0.00    -0.311 N 
ATOM     14  C   LIG d   1      -5.198  77.512 117.588  0.00  0.00     0.210 C 
ATOM     15  C   LIG d   1      -5.152  78.964 117.101  0.00  0.00     0.109 C 
ATOM     16  O   LIG d   1      -4.262  77.047 118.255  0.00  0.00    -0.276 OA
ATOM     17  H   LIG d   1      -6.969  77.272 116.641  0.00  0.00     0.149 HD
ENDBRANCH   6  13
BRANCH   5  18
ATOM     18  N   LIG d   1      -4.629  74.445 116.228  0.00  0.00     0.381 N 
ATOM     19  H   LIG d   1      -4.165  73.804 116.840  0.00  0.00    -0.090 HD
ATOM     20  H   LIG d   1      -4.282  75.369 116.417  0.00  0.00    -0.090 HD
ATOM     21  H   LIG d   1      -4.448  74.201 115.279  0.00  0.00    -0.090 HD
ENDBRANCH   5  18
BRANCH   3  22
ATOM     22  C   LIG d   1      -8.411  71.648 117.133  0.00  0.00     0.382 C 
ATOM     23  O   LIG d   1      -8.457  71.137 115.988  0.00  0.00    -0.241 OA
ATOM     24  O   LIG d   1      -8.969  71.071 118.085  0.00  0.00    -0.241 OA
ENDBRANCH   3  22
TORSDOF 7
ENDMDL
MODEL 9
REMARK VINA RESULT:      -4.7      3.726      6.351
REMARK  7 active torsions:
REMARK  status: ('A' for Active; 'I' for Inactive)
REMARK    1  A    between atoms: C_2  and  C_3 
REMARK    2  A    between atoms: C_3  and  O_6 
REMARK    3  A    between atoms: C_3  and  C_4 
REMARK    4  A    between atoms: C_7  and  O_6 
REMARK    5  A    between atoms: C_9  and  C_10 
REMARK    6  A    between atoms: N_15  and  C_14 
REMARK    7  A    between atoms: N_20  and  C_19 
REMARK       I    between atoms: C_22  and  N_20 
ROOT
ATOM      1  C   LIG d   1       0.178  84.402 113.407  0.00  0.00     0.161 C 
ATOM      2  C   LIG d   1      -0.847  83.450 113.538  0.00  0.00     0.016 C 
ATOM      3  C   LIG d   1      -0.821  82.187 112.902  0.00  0.00     0.038 C 
ATOM      4  C   LIG d   1       0.309  81.728 112.210  0.00  0.00     0.028 C 
ATOM      5  C   LIG d   1       1.161  82.852 111.630  0.00  0.00    -0.047 C 
ATOM      6  C   LIG d   1       1.469  83.876 112.746  0.00  0.00     0.091 C 
ENDROOT
BRANCH   1   7
ATOM      7  O   LIG d   1       0.474  84.981 114.694  0.00  0.00    -0.368 OA
BRANCH   7   8
ATOM      8  C   LIG d   1       0.225  84.137 115.845  0.00  0.00     0.119 C 
BRANCH   8   9
ATOM      9  C   LIG d   1      -0.377  85.026 116.950  0.00  0.00     0.028 C 
ATOM     10  C   LIG d   1      -0.995  84.204 118.093  0.00  0.00     0.006 C 
ENDBRANCH   8   9
BRANCH   8  11
ATOM     11  C   LIG d   1       1.532  83.593 116.429  0.00  0.00     0.028 C 
ATOM     12  C   LIG d   1       1.777  82.118 116.073  0.00  0.00     0.006 C 
ENDBRANCH   8  11
ENDBRANCH   7   8
ENDBRANCH   1   7
BRANCH   6  13
ATOM     13  N   LIG d   1       2.228  85.051 112.244  0.00  0.00    -0.311 N 
ATOM     14  C   LIG d   1       3.558  85.109 112.221  0.00  0.00     0.210 C 
ATOM     15  C   LIG d   1       4.139  86.421 111.683  0.00  0.00     0.109 C 
ATOM     16  O   LIG d   1       4.313  84.187 112.565  0.00  0.00    -0.276 OA
ATOM     17  H   LIG d   1       1.695  85.833 111.916  0.00  0.00     0.149 HD
ENDBRANCH   6  13
BRANCH   5  18
ATOM     18  N   LIG d   1       2.375  82.241 111.056  0.00  0.00     0.381 N 
ATOM     19  H   LIG d   1       2.920  81.824 111.783  0.00  0.00    -0.090 HD
ATOM     20  H   LIG d   1       2.926  82.959 110.620  0.00  0.00    -0.090 HD
ATOM     21  H   LIG d   1       2.123  81.551 110.382  0.00  0.00    -0.090 HD
ENDBRANCH   5  18
BRANCH   3  22
ATOM     22  C   LIG d   1      -1.952  81.384 112.923  0.00  0.00     0.382 C 
ATOM     23  O   LIG d   1      -3.073  81.873 112.645  0.00  0.00    -0.241 OA
ATOM     24  O   LIG d   1      -1.871  80.188 113.260  0.00  0.00    -0.241 OA
ENDBRANCH   3  22
TORSDOF 7
ENDMDL
