MODEL 1
REMARK VINA RESULT:      -5.6      0.000      0.000
REMARK  7 active torsions:
REMARK  status: ('A' for Active; 'I' for Inactive)
REMARK    1  A    between atoms: C_2  and  C_3 
REMARK    2  A    between atoms: C_3  and  O_6 
REMARK    3  A    between atoms: C_3  and  C_4 
REMARK    4  A    between atoms: C_7  and  O_6 
REMARK    5  A    between atoms: C_9  and  C_10 
REMARK    6  A    between atoms: N_15  and  C_14 
REMARK    7  A    between atoms: N_20  and  C_19 
REMARK       I    between atoms: C_22  and  N_20 
ROOT
ATOM      1  C   LIG d   1      -7.525  75.398 117.020  0.00  0.00     0.161 C 
ATOM      2  C   LIG d   1      -6.473  75.901 116.238  0.00  0.00     0.016 C 
ATOM      3  C   LIG d   1      -5.662  75.090 115.411  0.00  0.00     0.038 C 
ATOM      4  C   LIG d   1      -5.947  73.734 115.193  0.00  0.00     0.028 C 
ATOM      5  C   LIG d   1      -6.690  73.078 116.352  0.00  0.00    -0.047 C 
ATOM      6  C   LIG d   1      -7.922  73.940 116.711  0.00  0.00     0.091 C 
ENDROOT
BRANCH   1   7
ATOM      7  O   LIG d   1      -8.673  76.264 116.910  0.00  0.00    -0.368 OA
BRANCH   7   8
ATOM      8  C   LIG d   1      -8.989  77.056 118.082  0.00  0.00     0.119 C 
BRANCH   8   9
ATOM      9  C   LIG d   1     -10.515  76.990 118.286  0.00  0.00     0.028 C 
ATOM     10  C   LIG d   1     -11.076  78.270 118.929  0.00  0.00     0.006 C 
ENDBRANCH   8   9
BRANCH   8  11
ATOM     11  C   LIG d   1      -8.673  78.537 117.855  0.00  0.00     0.028 C 
ATOM     12  C   LIG d   1      -7.247  78.915 118.285  0.00  0.00     0.006 C 
ENDBRANCH   8  11
ENDBRANCH   7   8
ENDBRANCH   1   7
BRANCH   6  13
ATOM     13  N   LIG d   1      -8.658  73.414 117.890  0.00  0.00    -0.311 N 
ATOM     14  C   LIG d   1      -9.987  73.355 117.958  0.00  0.00     0.210 C 
ATOM     15  C   LIG d   1     -10.543  72.797 119.272  0.00  0.00     0.109 C 
ATOM     16  O   LIG d   1     -10.757  73.681 117.042  0.00  0.00    -0.276 OA
ATOM     17  H   LIG d   1      -8.110  73.098 118.666  0.00  0.00     0.149 HD
ENDBRANCH   6  13
BRANCH   5  18
ATOM     18  N   LIG d   1      -7.044  71.708 115.936  0.00  0.00     0.381 N 
ATOM     19  H   LIG d   1      -7.909  71.437 116.361  0.00  0.00    -0.090 HD
ATOM     20  H   LIG d   1      -6.328  71.077 116.250  0.00  0.00    -0.090 HD
ATOM     21  H   LIG d   1      -7.125  71.663 114.944  0.00  0.00    -0.090 HD
ENDBRANCH   5  18
BRANCH   3  22
ATOM     22  C   LIG d   1      -4.527  75.627 114.823  0.00  0.00     0.382 C 
ATOM     23  O   LIG d   1      -3.432  75.020 114.903  0.00  0.00    -0.241 OA
ATOM     24  O   LIG d   1      -4.574  76.733 114.251  0.00  0.00    -0.241 OA
ENDBRANCH   3  22
TORSDOF 7
ENDMDL
MODEL 2
REMARK VINA RESULT:      -5.4     13.477     16.000
REMARK  7 active torsions:
REMARK  status: ('A' for Active; 'I' for Inactive)
REMARK    1  A    between atoms: C_2  and  C_3 
REMARK    2  A    between atoms: C_3  and  O_6 
REMARK    3  A    between atoms: C_3  and  C_4 
REMARK    4  A    between atoms: C_7  and  O_6 
REMARK    5  A    between atoms: C_9  and  C_10 
REMARK    6  A    between atoms: N_15  and  C_14 
REMARK    7  A    between atoms: N_20  and  C_19 
REMARK       I    between atoms: C_22  and  N_20 
ROOT
ATOM      1  C   LIG d   1       4.072  85.098 113.138  0.00  0.00     0.161 C 
ATOM      2  C   LIG d   1       4.616  86.379 113.333  0.00  0.00     0.016 C 
ATOM      3  C   LIG d   1       4.031  87.560 112.821  0.00  0.00     0.038 C 
ATOM      4  C   LIG d   1       2.773  87.555 112.202  0.00  0.00     0.028 C 
ATOM      5  C   LIG d   1       2.428  86.226 111.539  0.00  0.00    -0.047 C 
ATOM      6  C   LIG d   1       2.641  85.086 112.561  0.00  0.00     0.091 C 
ENDROOT
BRANCH   1   7
ATOM      7  O   LIG d   1       4.121  84.353 114.370  0.00  0.00    -0.368 OA
BRANCH   7   8
ATOM      8  C   LIG d   1       3.948  85.120 115.587  0.00  0.00     0.119 C 
BRANCH   8   9
ATOM      9  C   LIG d   1       4.903  84.533 116.645  0.00  0.00     0.028 C 
ATOM     10  C   LIG d   1       6.256  85.263 116.684  0.00  0.00     0.006 C 
ENDBRANCH   8   9
BRANCH   8  11
ATOM     11  C   LIG d   1       2.542  84.939 116.165  0.00  0.00     0.028 C 
ATOM     12  C   LIG d   1       1.664  86.190 116.002  0.00  0.00     0.006 C 
ENDBRANCH   8  11
ENDBRANCH   7   8
ENDBRANCH   1   7
BRANCH   6  13
ATOM     13  N   LIG d   1       2.407  83.743 111.968  0.00  0.00    -0.311 N 
ATOM     14  C   LIG d   1       1.262  83.074 112.098  0.00  0.00     0.210 C 
ATOM     15  C   LIG d   1       1.238  81.697 111.426  0.00  0.00     0.109 C 
ATOM     16  O   LIG d   1       0.254  83.503 112.678  0.00  0.00    -0.276 OA
ATOM     17  H   LIG d   1       3.162  83.333 111.454  0.00  0.00     0.149 HD
ENDBRANCH   6  13
BRANCH   5  18
ATOM     18  N   LIG d   1       1.037  86.317 111.055  0.00  0.00     0.381 N 
ATOM     19  H   LIG d   1       0.708  85.407 110.800  0.00  0.00    -0.090 HD
ATOM     20  H   LIG d   1       1.015  86.901 110.238  0.00  0.00    -0.090 HD
ATOM     21  H   LIG d   1       0.454  86.703 111.764  0.00  0.00    -0.090 HD
ENDBRANCH   5  18
BRANCH   3  22
ATOM     22  C   LIG d   1       4.727  88.757 112.890  0.00  0.00     0.382 C 
ATOM     23  O   LIG d   1       4.134  89.808 113.233  0.00  0.00    -0.241 OA
ATOM     24  O   LIG d   1       5.930  88.808 112.571  0.00  0.00    -0.241 OA
ENDBRANCH   3  22
TORSDOF 7
ENDMDL
MODEL 3
REMARK VINA RESULT:      -5.4      2.378      6.325
REMARK  7 active torsions:
REMARK  status: ('A' for Active; 'I' for Inactive)
REMARK    1  A    between atoms: C_2  and  C_3 
REMARK    2  A    between atoms: C_3  and  O_6 
REMARK    3  A    between atoms: C_3  and  C_4 
REMARK    4  A    between atoms: C_7  and  O_6 
REMARK    5  A    between atoms: C_9  and  C_10 
REMARK    6  A    between atoms: N_15  and  C_14 
REMARK    7  A    between atoms: N_20  and  C_19 
REMARK       I    between atoms: C_22  and  N_20 
ROOT
ATOM      1  C   LIG d   1      -8.473  75.035 117.455  0.00  0.00     0.161 C 
ATOM      2  C   LIG d   1      -9.864  74.842 117.420  0.00  0.00     0.016 C 
ATOM      3  C   LIG d   1     -10.799  75.847 117.758  0.00  0.00     0.038 C 
ATOM      4  C   LIG d   1     -10.405  77.170 118.012  0.00  0.00     0.028 C 
ATOM      5  C   LIG d   1      -8.984  77.286 118.551  0.00  0.00    -0.047 C 
ATOM      6  C   LIG d   1      -8.029  76.503 117.622  0.00  0.00     0.091 C 
ENDROOT
BRANCH   1   7
ATOM      7  O   LIG d   1      -7.869  74.459 116.280  0.00  0.00    -0.368 OA
BRANCH   7   8
ATOM      8  C   LIG d   1      -6.760  73.556 116.511  0.00  0.00     0.119 C 
BRANCH   8   9
ATOM      9  C   LIG d   1      -5.595  74.016 115.613  0.00  0.00     0.028 C 
ATOM     10  C   LIG d   1      -6.012  75.123 114.631  0.00  0.00     0.006 C 
ENDBRANCH   8   9
BRANCH   8  11
ATOM     11  C   LIG d   1      -7.092  72.135 116.048  0.00  0.00     0.028 C 
ATOM     12  C   LIG d   1      -8.178  71.467 116.907  0.00  0.00     0.006 C 
ENDBRANCH   8  11
ENDBRANCH   7   8
ENDBRANCH   1   7
BRANCH   6  13
ATOM     13  N   LIG d   1      -6.630  76.496 118.124  0.00  0.00    -0.311 N 
ATOM     14  C   LIG d   1      -5.701  77.360 117.719  0.00  0.00     0.210 C 
ATOM     15  C   LIG d   1      -4.317  77.164 118.347  0.00  0.00     0.109 C 
ATOM     16  O   LIG d   1      -5.899  78.290 116.923  0.00  0.00    -0.276 OA
ATOM     17  H   LIG d   1      -6.390  75.793 118.796  0.00  0.00     0.149 HD
ENDBRANCH   6  13
BRANCH   5  18
ATOM     18  N   LIG d   1      -8.657  78.722 118.640  0.00  0.00     0.381 N 
ATOM     19  H   LIG d   1      -9.100  79.217 117.891  0.00  0.00    -0.090 HD
ATOM     20  H   LIG d   1      -7.663  78.835 118.549  0.00  0.00    -0.090 HD
ATOM     21  H   LIG d   1      -8.962  79.088 119.515  0.00  0.00    -0.090 HD
ENDBRANCH   5  18
BRANCH   3  22
ATOM     22  C   LIG d   1     -12.141  75.523 117.885  0.00  0.00     0.382 C 
ATOM     23  O   LIG d   1     -12.491  74.321 117.960  0.00  0.00    -0.241 OA
ATOM     24  O   LIG d   1     -13.009  76.416 117.879  0.00  0.00    -0.241 OA
ENDBRANCH   3  22
TORSDOF 7
ENDMDL
MODEL 4
REMARK VINA RESULT:      -5.2      2.660      6.223
REMARK  7 active torsions:
REMARK  status: ('A' for Active; 'I' for Inactive)
REMARK    1  A    between atoms: C_2  and  C_3 
REMARK    2  A    between atoms: C_3  and  O_6 
REMARK    3  A    between atoms: C_3  and  C_4 
REMARK    4  A    between atoms: C_7  and  O_6 
REMARK    5  A    between atoms: C_9  and  C_10 
REMARK    6  A    between atoms: N_15  and  C_14 
REMARK    7  A    between atoms: N_20  and  C_19 
REMARK       I    between atoms: C_22  and  N_20 
ROOT
ATOM      1  C   LIG d   1      -8.189  75.917 118.331  0.00  0.00     0.161 C 
ATOM      2  C   LIG d   1      -9.199  74.958 118.148  0.00  0.00     0.016 C 
ATOM      3  C   LIG d   1     -10.575  75.278 118.096  0.00  0.00     0.038 C 
ATOM      4  C   LIG d   1     -11.028  76.605 118.071  0.00  0.00     0.028 C 
ATOM      5  C   LIG d   1     -10.080  77.581 118.761  0.00  0.00    -0.047 C 
ATOM      6  C   LIG d   1      -8.655  77.381 118.195  0.00  0.00     0.091 C 
ENDROOT
BRANCH   1   7
ATOM      7  O   LIG d   1      -7.096  75.653 117.430  0.00  0.00    -0.368 OA
BRANCH   7   8
ATOM      8  C   LIG d   1      -7.431  74.940 116.214  0.00  0.00     0.119 C 
BRANCH   8   9
ATOM      9  C   LIG d   1      -6.390  73.818 116.033  0.00  0.00     0.028 C 
ATOM     10  C   LIG d   1      -7.002  72.417 116.201  0.00  0.00     0.006 C 
ENDBRANCH   8   9
BRANCH   8  11
ATOM     11  C   LIG d   1      -7.278  75.837 114.982  0.00  0.00     0.028 C 
ATOM     12  C   LIG d   1      -5.914  75.674 114.291  0.00  0.00     0.006 C 
ENDBRANCH   8  11
ENDBRANCH   7   8
ENDBRANCH   1   7
BRANCH   6  13
ATOM     13  N   LIG d   1      -7.650  78.239 118.876  0.00  0.00    -0.311 N 
ATOM     14  C   LIG d   1      -7.345  79.471 118.473  0.00  0.00     0.210 C 
ATOM     15  C   LIG d   1      -6.266  80.174 119.304  0.00  0.00     0.109 C 
ATOM     16  O   LIG d   1      -7.887  80.061 117.527  0.00  0.00    -0.276 OA
ATOM     17  H   LIG d   1      -7.183  77.850 119.672  0.00  0.00     0.149 HD
ENDBRANCH   6  13
BRANCH   5  18
ATOM     18  N   LIG d   1     -10.604  78.942 118.541  0.00  0.00     0.381 N 
ATOM     19  H   LIG d   1      -9.900  79.617 118.768  0.00  0.00    -0.090 HD
ATOM     20  H   LIG d   1     -11.390  79.090 119.149  0.00  0.00    -0.090 HD
ATOM     21  H   LIG d   1     -10.884  79.050 117.592  0.00  0.00    -0.090 HD
ENDBRANCH   5  18
BRANCH   3  22
ATOM     22  C   LIG d   1     -11.518  74.261 118.107  0.00  0.00     0.382 C 
ATOM     23  O   LIG d   1     -11.183  73.099 118.439  0.00  0.00    -0.241 OA
ATOM     24  O   LIG d   1     -12.690  74.482 117.747  0.00  0.00    -0.241 OA
ENDBRANCH   3  22
TORSDOF 7
ENDMDL
MODEL 5
REMARK VINA RESULT:      -5.1      2.166      5.101
REMARK  7 active torsions:
REMARK  status: ('A' for Active; 'I' for Inactive)
REMARK    1  A    between atoms: C_2  and  C_3 
REMARK    2  A    between atoms: C_3  and  O_6 
REMARK    3  A    between atoms: C_3  and  C_4 
REMARK    4  A    between atoms: C_7  and  O_6 
REMARK    5  A    between atoms: C_9  and  C_10 
REMARK    6  A    between atoms: N_15  and  C_14 
REMARK    7  A    between atoms: N_20  and  C_19 
REMARK       I    between atoms: C_22  and  N_20 
ROOT
ATOM      1  C   LIG d   1      -7.871  76.101 117.332  0.00  0.00     0.161 C 
ATOM      2  C   LIG d   1      -8.179  77.451 117.575  0.00  0.00     0.016 C 
ATOM      3  C   LIG d   1      -9.428  77.887 118.074  0.00  0.00     0.038 C 
ATOM      4  C   LIG d   1     -10.408  76.984 118.510  0.00  0.00     0.028 C 
ATOM      5  C   LIG d   1     -10.336  75.628 117.815  0.00  0.00    -0.047 C 
ATOM      6  C   LIG d   1      -8.888  75.093 117.907  0.00  0.00     0.091 C 
ENDROOT
BRANCH   1   7
ATOM      7  O   LIG d   1      -6.546  75.808 117.817  0.00  0.00    -0.368 OA
BRANCH   7   8
ATOM      8  C   LIG d   1      -5.485  75.844 116.832  0.00  0.00     0.119 C 
BRANCH   8   9
ATOM      9  C   LIG d   1      -5.348  74.425 116.246  0.00  0.00     0.028 C 
ATOM     10  C   LIG d   1      -5.746  74.361 114.762  0.00  0.00     0.006 C 
ENDBRANCH   8   9
BRANCH   8  11
ATOM     11  C   LIG d   1      -4.131  76.146 117.481  0.00  0.00     0.028 C 
ATOM     12  C   LIG d   1      -3.158  74.959 117.413  0.00  0.00     0.006 C 
ENDBRANCH   8  11
ENDBRANCH   7   8
ENDBRANCH   1   7
BRANCH   6  13
ATOM     13  N   LIG d   1      -8.711  73.810 117.179  0.00  0.00    -0.311 N 
ATOM     14  C   LIG d   1      -8.850  72.616 117.752  0.00  0.00     0.210 C 
ATOM     15  C   LIG d   1      -8.603  71.421 116.826  0.00  0.00     0.109 C 
ATOM     16  O   LIG d   1      -9.186  72.433 118.932  0.00  0.00    -0.276 OA
ATOM     17  H   LIG d   1      -8.468  73.866 116.209  0.00  0.00     0.149 HD
ENDBRANCH   6  13
BRANCH   5  18
ATOM     18  N   LIG d   1     -11.322  74.742 118.462  0.00  0.00     0.381 N 
ATOM     19  H   LIG d   1     -11.477  75.039 119.405  0.00  0.00    -0.090 HD
ATOM     20  H   LIG d   1     -10.955  73.807 118.481  0.00  0.00    -0.090 HD
ATOM     21  H   LIG d   1     -12.180  74.760 117.955  0.00  0.00    -0.090 HD
ENDBRANCH   5  18
BRANCH   3  22
ATOM     22  C   LIG d   1      -9.721  79.242 118.103  0.00  0.00     0.382 C 
ATOM     23  O   LIG d   1     -10.885  79.626 118.369  0.00  0.00    -0.241 OA
ATOM     24  O   LIG d   1      -8.846  80.084 117.823  0.00  0.00    -0.241 OA
ENDBRANCH   3  22
TORSDOF 7
ENDMDL
MODEL 6
REMARK VINA RESULT:      -5.0     13.652     16.007
REMARK  7 active torsions:
REMARK  status: ('A' for Active; 'I' for Inactive)
REMARK    1  A    between atoms: C_2  and  C_3 
REMARK    2  A    between atoms: C_3  and  O_6 
REMARK    3  A    between atoms: C_3  and  C_4 
REMARK    4  A    between atoms: C_7  and  O_6 
REMARK    5  A    between atoms: C_9  and  C_10 
REMARK    6  A    between atoms: N_15  and  C_14 
REMARK    7  A    between atoms: N_20  and  C_19 
REMARK       I    between atoms: C_22  and  N_20 
ROOT
ATOM      1  C   LIG d   1       2.488  86.412 114.508  0.00  0.00     0.161 C 
ATOM      2  C   LIG d   1       3.038  87.453 113.743  0.00  0.00     0.016 C 
ATOM      3  C   LIG d   1       4.406  87.808 113.779  0.00  0.00     0.038 C 
ATOM      4  C   LIG d   1       5.352  87.041 114.476  0.00  0.00     0.028 C 
ATOM      5  C   LIG d   1       4.764  86.286 115.663  0.00  0.00    -0.047 C 
ATOM      6  C   LIG d   1       3.524  85.493 115.189  0.00  0.00     0.091 C 
ENDROOT
BRANCH   1   7
ATOM      7  O   LIG d   1       1.585  85.634 113.698  0.00  0.00    -0.368 OA
BRANCH   7   8
ATOM      8  C   LIG d   1       1.753  85.751 112.264  0.00  0.00     0.119 C 
BRANCH   8   9
ATOM      9  C   LIG d   1       0.349  85.875 111.641  0.00  0.00     0.028 C 
ATOM     10  C   LIG d   1      -0.726  85.153 112.470  0.00  0.00     0.006 C 
ENDBRANCH   8   9
BRANCH   8  11
ATOM     11  C   LIG d   1       2.350  84.474 111.666  0.00  0.00     0.028 C 
ATOM     12  C   LIG d   1       3.840  84.618 111.318  0.00  0.00     0.006 C 
ENDBRANCH   8  11
ENDBRANCH   7   8
ENDBRANCH   1   7
BRANCH   6  13
ATOM     13  N   LIG d   1       2.839  84.792 116.306  0.00  0.00    -0.311 N 
ATOM     14  C   LIG d   1       2.902  83.475 116.493  0.00  0.00     0.210 C 
ATOM     15  C   LIG d   1       2.105  82.954 117.693  0.00  0.00     0.109 C 
ATOM     16  O   LIG d   1       3.567  82.693 115.798  0.00  0.00    -0.276 OA
ATOM     17  H   LIG d   1       2.302  85.355 116.936  0.00  0.00     0.149 HD
ENDBRANCH   6  13
BRANCH   5  18
ATOM     18  N   LIG d   1       5.827  85.422 116.212  0.00  0.00     0.381 N 
ATOM     19  H   LIG d   1       6.724  85.792 115.968  0.00  0.00    -0.090 HD
ATOM     20  H   LIG d   1       5.743  84.506 115.808  0.00  0.00    -0.090 HD
ATOM     21  H   LIG d   1       5.742  85.366 117.203  0.00  0.00    -0.090 HD
ENDBRANCH   5  18
BRANCH   3  22
ATOM     22  C   LIG d   1       4.833  88.965 113.146  0.00  0.00     0.382 C 
ATOM     23  O   LIG d   1       4.098  89.981 113.134  0.00  0.00    -0.241 OA
ATOM     24  O   LIG d   1       5.926  88.991 112.548  0.00  0.00    -0.241 OA
ENDBRANCH   3  22
TORSDOF 7
ENDMDL
MODEL 7
REMARK VINA RESULT:      -5.0     12.250     14.729
REMARK  7 active torsions:
REMARK  status: ('A' for Active; 'I' for Inactive)
REMARK    1  A    between atoms: C_2  and  C_3 
REMARK    2  A    between atoms: C_3  and  O_6 
REMARK    3  A    between atoms: C_3  and  C_4 
REMARK    4  A    between atoms: C_7  and  O_6 
REMARK    5  A    between atoms: C_9  and  C_10 
REMARK    6  A    between atoms: N_15  and  C_14 
REMARK    7  A    between atoms: N_20  and  C_19 
REMARK       I    between atoms: C_22  and  N_20 
ROOT
ATOM      1  C   LIG d   1     -17.512  64.858 116.489  0.00  0.00     0.161 C 
ATOM      2  C   LIG d   1     -16.430  64.336 117.218  0.00  0.00     0.016 C 
ATOM      3  C   LIG d   1     -16.049  62.975 117.179  0.00  0.00     0.038 C 
ATOM      4  C   LIG d   1     -16.636  62.067 116.285  0.00  0.00     0.028 C 
ATOM      5  C   LIG d   1     -18.065  62.434 115.899  0.00  0.00    -0.047 C 
ATOM      6  C   LIG d   1     -18.094  63.905 115.424  0.00  0.00     0.091 C 
ENDROOT
BRANCH   1   7
ATOM      7  O   LIG d   1     -17.136  66.113 115.887  0.00  0.00    -0.368 OA
BRANCH   7   8
ATOM      8  C   LIG d   1     -15.734  66.265 115.553  0.00  0.00     0.119 C 
BRANCH   8   9
ATOM      9  C   LIG d   1     -15.295  67.664 116.025  0.00  0.00     0.028 C 
ATOM     10  C   LIG d   1     -16.431  68.432 116.721  0.00  0.00     0.006 C 
ENDBRANCH   8   9
BRANCH   8  11
ATOM     11  C   LIG d   1     -15.519  66.262 114.037  0.00  0.00     0.028 C 
ATOM     12  C   LIG d   1     -15.189  67.656 113.479  0.00  0.00     0.006 C 
ENDBRANCH   8  11
ENDBRANCH   7   8
ENDBRANCH   1   7
BRANCH   6  13
ATOM     13  N   LIG d   1     -19.469  64.372 115.107  0.00  0.00    -0.311 N 
ATOM     14  C   LIG d   1     -19.826  64.843 113.913  0.00  0.00     0.210 C 
ATOM     15  C   LIG d   1     -21.287  65.289 113.805  0.00  0.00     0.109 C 
ATOM     16  O   LIG d   1     -19.079  64.904 112.925  0.00  0.00    -0.276 OA
ATOM     17  H   LIG d   1     -20.146  64.328 115.842  0.00  0.00     0.149 HD
ENDBRANCH   6  13
BRANCH   5  18
ATOM     18  N   LIG d   1     -18.505  61.483 114.861  0.00  0.00     0.381 N 
ATOM     19  H   LIG d   1     -18.471  61.922 113.962  0.00  0.00    -0.090 HD
ATOM     20  H   LIG d   1     -19.456  61.216 115.046  0.00  0.00    -0.090 HD
ATOM     21  H   LIG d   1     -17.919  60.677 114.866  0.00  0.00    -0.090 HD
ENDBRANCH   5  18
BRANCH   3  22
ATOM     22  C   LIG d   1     -15.098  62.502 118.069  0.00  0.00     0.382 C 
ATOM     23  O   LIG d   1     -13.991  63.083 118.172  0.00  0.00    -0.241 OA
ATOM     24  O   LIG d   1     -15.315  61.474 118.739  0.00  0.00    -0.241 OA
ENDBRANCH   3  22
TORSDOF 7
ENDMDL
MODEL 8
REMARK VINA RESULT:      -4.9      2.741      6.033
REMARK  7 active torsions:
REMARK  status: ('A' for Active; 'I' for Inactive)
REMARK    1  A    between atoms: C_2  and  C_3 
REMARK    2  A    between atoms: C_3  and  O_6 
REMARK    3  A    between atoms: C_3  and  C_4 
REMARK    4  A    between atoms: C_7  and  O_6 
REMARK    5  A    between atoms: C_9  and  C_10 
REMARK    6  A    between atoms: N_15  and  C_14 
REMARK    7  A    between atoms: N_20  and  C_19 
REMARK       I    between atoms: C_22  and  N_20 
ROOT
ATOM      1  C   LIG d   1      -8.459  76.773 117.960  0.00  0.00     0.161 C 
ATOM      2  C   LIG d   1      -9.460  77.693 118.315  0.00  0.00     0.016 C 
ATOM      3  C   LIG d   1      -9.247  79.089 118.377  0.00  0.00     0.038 C 
ATOM      4  C   LIG d   1      -8.052  79.678 117.937  0.00  0.00     0.028 C 
ATOM      5  C   LIG d   1      -6.845  78.753 118.048  0.00  0.00    -0.047 C 
ATOM      6  C   LIG d   1      -7.181  77.405 117.369  0.00  0.00     0.091 C 
ENDROOT
BRANCH   1   7
ATOM      7  O   LIG d   1      -8.997  75.791 117.052  0.00  0.00    -0.368 OA
BRANCH   7   8
ATOM      8  C   LIG d   1      -9.910  74.825 117.628  0.00  0.00     0.119 C 
BRANCH   8   9
ATOM      9  C   LIG d   1      -9.290  73.428 117.430  0.00  0.00     0.028 C 
ATOM     10  C   LIG d   1      -9.597  72.478 118.600  0.00  0.00     0.006 C 
ENDBRANCH   8   9
BRANCH   8  11
ATOM     11  C   LIG d   1     -11.238  74.791 116.867  0.00  0.00     0.028 C 
ATOM     12  C   LIG d   1     -12.460  74.805 117.800  0.00  0.00     0.006 C 
ENDBRANCH   8  11
ENDBRANCH   7   8
ENDBRANCH   1   7
BRANCH   6  13
ATOM     13  N   LIG d   1      -6.083  76.413 117.507  0.00  0.00    -0.311 N 
ATOM     14  C   LIG d   1      -5.132  76.239 116.590  0.00  0.00     0.210 C 
ATOM     15  C   LIG d   1      -4.108  75.149 116.920  0.00  0.00     0.109 C 
ATOM     16  O   LIG d   1      -5.021  76.907 115.551  0.00  0.00    -0.276 OA
ATOM     17  H   LIG d   1      -6.079  75.849 118.335  0.00  0.00     0.149 HD
ENDBRANCH   6  13
BRANCH   5  18
ATOM     18  N   LIG d   1      -5.697  79.442 117.429  0.00  0.00     0.381 N 
ATOM     19  H   LIG d   1      -4.961  79.544 118.100  0.00  0.00    -0.090 HD
ATOM     20  H   LIG d   1      -5.987  80.359 117.138  0.00  0.00    -0.090 HD
ATOM     21  H   LIG d   1      -5.371  78.923 116.644  0.00  0.00    -0.090 HD
ENDBRANCH   5  18
BRANCH   3  22
ATOM     22  C   LIG d   1     -10.224  79.909 118.920  0.00  0.00     0.382 C 
ATOM     23  O   LIG d   1     -11.329  79.425 119.265  0.00  0.00    -0.241 OA
ATOM     24  O   LIG d   1     -10.031  81.135 119.029  0.00  0.00    -0.241 OA
ENDBRANCH   3  22
TORSDOF 7
ENDMDL
MODEL 9
REMARK VINA RESULT:      -4.8     15.709     17.878
REMARK  7 active torsions:
REMARK  status: ('A' for Active; 'I' for Inactive)
REMARK    1  A    between atoms: C_2  and  C_3 
REMARK    2  A    between atoms: C_3  and  O_6 
REMARK    3  A    between atoms: C_3  and  C_4 
REMARK    4  A    between atoms: C_7  and  O_6 
REMARK    5  A    between atoms: C_9  and  C_10 
REMARK    6  A    between atoms: N_15  and  C_14 
REMARK    7  A    between atoms: N_20  and  C_19 
REMARK       I    between atoms: C_22  and  N_20 
ROOT
ATOM      1  C   LIG d   1       3.473  88.036 115.026  0.00  0.00     0.161 C 
ATOM      2  C   LIG d   1       2.762  87.287 114.073  0.00  0.00     0.016 C 
ATOM      3  C   LIG d   1       3.204  87.100 112.743  0.00  0.00     0.038 C 
ATOM      4  C   LIG d   1       4.470  87.526 112.316  0.00  0.00     0.028 C 
ATOM      5  C   LIG d   1       5.003  88.722 113.098  0.00  0.00    -0.047 C 
ATOM      6  C   LIG d   1       4.909  88.415 114.610  0.00  0.00     0.091 C 
ENDROOT
BRANCH   1   7
ATOM      7  O   LIG d   1       3.484  87.337 116.286  0.00  0.00    -0.368 OA
BRANCH   7   8
ATOM      8  C   LIG d   1       2.707  87.936 117.353  0.00  0.00     0.119 C 
BRANCH   8   9
ATOM      9  C   LIG d   1       1.481  87.035 117.595  0.00  0.00     0.028 C 
ATOM     10  C   LIG d   1       0.163  87.718 117.194  0.00  0.00     0.006 C 
ENDBRANCH   8   9
BRANCH   8  11
ATOM     11  C   LIG d   1       2.137  89.294 116.933  0.00  0.00     0.028 C 
ATOM     12  C   LIG d   1       2.721  90.462 117.743  0.00  0.00     0.006 C 
ENDBRANCH   8  11
ENDBRANCH   7   8
ENDBRANCH   1   7
BRANCH   6  13
ATOM     13  N   LIG d   1       5.332  89.566 115.450  0.00  0.00    -0.311 N 
ATOM     14  C   LIG d   1       6.298  89.491 116.363  0.00  0.00     0.210 C 
ATOM     15  C   LIG d   1       6.562  90.789 117.133  0.00  0.00     0.109 C 
ATOM     16  O   LIG d   1       6.983  88.482 116.587  0.00  0.00    -0.276 OA
ATOM     17  H   LIG d   1       4.850  90.432 115.312  0.00  0.00     0.149 HD
ENDBRANCH   6  13
BRANCH   5  18
ATOM     18  N   LIG d   1       6.383  88.973 112.643  0.00  0.00     0.381 N 
ATOM     19  H   LIG d   1       6.820  88.109 112.392  0.00  0.00    -0.090 HD
ATOM     20  H   LIG d   1       6.905  89.382 113.398  0.00  0.00    -0.090 HD
ATOM     21  H   LIG d   1       6.378  89.590 111.861  0.00  0.00    -0.090 HD
ENDBRANCH   5  18
BRANCH   3  22
ATOM     22  C   LIG d   1       2.358  86.515 111.813  0.00  0.00     0.382 C 
ATOM     23  O   LIG d   1       1.152  86.857 111.761  0.00  0.00    -0.241 OA
ATOM     24  O   LIG d   1       2.774  85.618 111.056  0.00  0.00    -0.241 OA
ENDBRANCH   3  22
TORSDOF 7
ENDMDL
