MODEL 1
REMARK VINA RESULT:      -5.6      0.000      0.000
REMARK  7 active torsions:
REMARK  status: ('A' for Active; 'I' for Inactive)
REMARK    1  A    between atoms: C_2  and  C_3 
REMARK    2  A    between atoms: C_3  and  O_6 
REMARK    3  A    between atoms: C_3  and  C_4 
REMARK    4  A    between atoms: C_7  and  O_6 
REMARK    5  A    between atoms: C_9  and  C_10 
REMARK    6  A    between atoms: N_15  and  C_14 
REMARK    7  A    between atoms: N_20  and  C_19 
REMARK       I    between atoms: C_22  and  N_20 
ROOT
ATOM      1  C   LIG d   1      -6.861  75.822 118.510  0.00  0.00     0.161 C 
ATOM      2  C   LIG d   1      -7.969  76.684 118.475  0.00  0.00     0.016 C 
ATOM      3  C   LIG d   1      -7.983  77.905 117.763  0.00  0.00     0.038 C 
ATOM      4  C   LIG d   1      -6.933  78.278 116.910  0.00  0.00     0.028 C 
ATOM      5  C   LIG d   1      -5.587  77.684 117.310  0.00  0.00    -0.047 C 
ATOM      6  C   LIG d   1      -5.747  76.158 117.496  0.00  0.00     0.091 C 
ENDROOT
BRANCH   1   7
ATOM      7  O   LIG d   1      -7.296  74.458 118.343  0.00  0.00    -0.368 OA
BRANCH   7   8
ATOM      8  C   LIG d   1      -7.845  74.119 117.046  0.00  0.00     0.119 C 
BRANCH   8   9
ATOM      9  C   LIG d   1      -9.141  73.319 117.286  0.00  0.00     0.028 C 
ATOM     10  C   LIG d   1     -10.399  74.103 116.875  0.00  0.00     0.006 C 
ENDBRANCH   8   9
BRANCH   8  11
ATOM     11  C   LIG d   1      -6.919  73.170 116.279  0.00  0.00     0.028 C 
ATOM     12  C   LIG d   1      -7.456  71.731 116.221  0.00  0.00     0.006 C 
ENDBRANCH   8  11
ENDBRANCH   7   8
ENDBRANCH   1   7
BRANCH   6  13
ATOM     13  N   LIG d   1      -4.497  75.510 117.970  0.00  0.00    -0.311 N 
ATOM     14  C   LIG d   1      -3.570  75.017 117.150  0.00  0.00     0.210 C 
ATOM     15  C   LIG d   1      -2.367  74.373 117.847  0.00  0.00     0.109 C 
ATOM     16  O   LIG d   1      -3.615  75.080 115.912  0.00  0.00    -0.276 OA
ATOM     17  H   LIG d   1      -4.364  75.444 118.960  0.00  0.00     0.149 HD
ENDBRANCH   6  13
BRANCH   5  18
ATOM     18  N   LIG d   1      -4.613  78.039 116.261  0.00  0.00     0.381 N 
ATOM     19  H   LIG d   1      -3.922  78.659 116.636  0.00  0.00    -0.090 HD
ATOM     20  H   LIG d   1      -5.094  78.516 115.519  0.00  0.00    -0.090 HD
ATOM     21  H   LIG d   1      -4.176  77.216 115.909  0.00  0.00    -0.090 HD
ENDBRANCH   5  18
BRANCH   3  22
ATOM     22  C   LIG d   1      -9.038  78.788 117.933  0.00  0.00     0.382 C 
ATOM     23  O   LIG d   1     -10.182  78.352 118.208  0.00  0.00    -0.241 OA
ATOM     24  O   LIG d   1      -8.871  80.012 117.771  0.00  0.00    -0.241 OA
ENDBRANCH   3  22
TORSDOF 7
ENDMDL
MODEL 2
REMARK VINA RESULT:      -5.6      2.683      5.686
REMARK  7 active torsions:
REMARK  status: ('A' for Active; 'I' for Inactive)
REMARK    1  A    between atoms: C_2  and  C_3 
REMARK    2  A    between atoms: C_3  and  O_6 
REMARK    3  A    between atoms: C_3  and  C_4 
REMARK    4  A    between atoms: C_7  and  O_6 
REMARK    5  A    between atoms: C_9  and  C_10 
REMARK    6  A    between atoms: N_15  and  C_14 
REMARK    7  A    between atoms: N_20  and  C_19 
REMARK       I    between atoms: C_22  and  N_20 
ROOT
ATOM      1  C   LIG d   1      -4.060  74.667 116.792  0.00  0.00     0.161 C 
ATOM      2  C   LIG d   1      -3.217  74.220 117.824  0.00  0.00     0.016 C 
ATOM      3  C   LIG d   1      -1.809  74.339 117.785  0.00  0.00     0.038 C 
ATOM      4  C   LIG d   1      -1.153  75.055 116.772  0.00  0.00     0.028 C 
ATOM      5  C   LIG d   1      -1.923  75.085 115.456  0.00  0.00    -0.047 C 
ATOM      6  C   LIG d   1      -3.371  75.550 115.731  0.00  0.00     0.091 C 
ENDROOT
BRANCH   1   7
ATOM      7  O   LIG d   1      -5.197  75.353 117.353  0.00  0.00    -0.368 OA
BRANCH   7   8
ATOM      8  C   LIG d   1      -6.359  74.536 117.635  0.00  0.00     0.119 C 
BRANCH   8   9
ATOM      9  C   LIG d   1      -6.860  73.964 116.295  0.00  0.00     0.028 C 
ATOM     10  C   LIG d   1      -7.278  72.488 116.405  0.00  0.00     0.006 C 
ENDBRANCH   8   9
BRANCH   8  11
ATOM     11  C   LIG d   1      -7.517  75.381 118.174  0.00  0.00     0.028 C 
ATOM     12  C   LIG d   1      -8.203  76.217 117.082  0.00  0.00     0.006 C 
ENDBRANCH   8  11
ENDBRANCH   7   8
ENDBRANCH   1   7
BRANCH   6  13
ATOM     13  N   LIG d   1      -4.216  75.527 114.509  0.00  0.00    -0.311 N 
ATOM     14  C   LIG d   1      -5.129  76.456 114.231  0.00  0.00     0.210 C 
ATOM     15  C   LIG d   1      -5.905  76.231 112.929  0.00  0.00     0.109 C 
ATOM     16  O   LIG d   1      -5.348  77.461 114.923  0.00  0.00    -0.276 OA
ATOM     17  H   LIG d   1      -4.082  74.762 113.876  0.00  0.00     0.149 HD
ENDBRANCH   6  13
BRANCH   5  18
ATOM     18  N   LIG d   1      -1.194  75.976 114.534  0.00  0.00     0.381 N 
ATOM     19  H   LIG d   1      -1.844  76.544 114.027  0.00  0.00    -0.090 HD
ATOM     20  H   LIG d   1      -0.685  75.416 113.874  0.00  0.00    -0.090 HD
ATOM     21  H   LIG d   1      -0.565  76.555 115.045  0.00  0.00    -0.090 HD
ENDBRANCH   5  18
BRANCH   3  22
ATOM     22  C   LIG d   1      -1.039  73.704 118.747  0.00  0.00     0.382 C 
ATOM     23  O   LIG d   1       0.064  74.193 119.090  0.00  0.00    -0.241 OA
ATOM     24  O   LIG d   1      -1.412  72.624 119.243  0.00  0.00    -0.241 OA
ENDBRANCH   3  22
TORSDOF 7
ENDMDL
MODEL 3
REMARK VINA RESULT:      -5.5      2.250      3.094
REMARK  7 active torsions:
REMARK  status: ('A' for Active; 'I' for Inactive)
REMARK    1  A    between atoms: C_2  and  C_3 
REMARK    2  A    between atoms: C_3  and  O_6 
REMARK    3  A    between atoms: C_3  and  C_4 
REMARK    4  A    between atoms: C_7  and  O_6 
REMARK    5  A    between atoms: C_9  and  C_10 
REMARK    6  A    between atoms: N_15  and  C_14 
REMARK    7  A    between atoms: N_20  and  C_19 
REMARK       I    between atoms: C_22  and  N_20 
ROOT
ATOM      1  C   LIG d   1      -6.790  77.678 117.136  0.00  0.00     0.161 C 
ATOM      2  C   LIG d   1      -8.083  78.037 117.552  0.00  0.00     0.016 C 
ATOM      3  C   LIG d   1      -8.480  79.372 117.791  0.00  0.00     0.038 C 
ATOM      4  C   LIG d   1      -7.650  80.460 117.482  0.00  0.00     0.028 C 
ATOM      5  C   LIG d   1      -6.164  80.122 117.538  0.00  0.00    -0.047 C 
ATOM      6  C   LIG d   1      -5.904  78.858 116.686  0.00  0.00     0.091 C 
ENDROOT
BRANCH   1   7
ATOM      7  O   LIG d   1      -6.871  76.686 116.092  0.00  0.00    -0.368 OA
BRANCH   7   8
ATOM      8  C   LIG d   1      -6.235  75.415 116.371  0.00  0.00     0.119 C 
BRANCH   8   9
ATOM      9  C   LIG d   1      -5.690  74.868 115.037  0.00  0.00     0.028 C 
ATOM     10  C   LIG d   1      -5.624  75.947 113.943  0.00  0.00     0.006 C 
ENDBRANCH   8   9
BRANCH   8  11
ATOM     11  C   LIG d   1      -7.252  74.375 116.850  0.00  0.00     0.028 C 
ATOM     12  C   LIG d   1      -7.017  72.985 116.238  0.00  0.00     0.006 C 
ENDBRANCH   8  11
ENDBRANCH   7   8
ENDBRANCH   1   7
BRANCH   6  13
ATOM     13  N   LIG d   1      -4.489  78.410 116.754  0.00  0.00    -0.311 N 
ATOM     14  C   LIG d   1      -3.567  78.754 115.857  0.00  0.00     0.210 C 
ATOM     15  C   LIG d   1      -2.174  78.166 116.103  0.00  0.00     0.109 C 
ATOM     16  O   LIG d   1      -3.763  79.517 114.899  0.00  0.00    -0.276 OA
ATOM     17  H   LIG d   1      -4.236  77.813 117.517  0.00  0.00     0.149 HD
ENDBRANCH   6  13
BRANCH   5  18
ATOM     18  N   LIG d   1      -5.420  81.303 117.061  0.00  0.00     0.381 N 
ATOM     19  H   LIG d   1      -6.014  82.108 117.079  0.00  0.00    -0.090 HD
ATOM     20  H   LIG d   1      -5.133  81.145 116.111  0.00  0.00    -0.090 HD
ATOM     21  H   LIG d   1      -4.621  81.458 117.636  0.00  0.00    -0.090 HD
ENDBRANCH   5  18
BRANCH   3  22
ATOM     22  C   LIG d   1      -9.708  79.629 118.383  0.00  0.00     0.382 C 
ATOM     23  O   LIG d   1      -9.989  80.790 118.765  0.00  0.00    -0.241 OA
ATOM     24  O   LIG d   1     -10.519  78.704 118.581  0.00  0.00    -0.241 OA
ENDBRANCH   3  22
TORSDOF 7
ENDMDL
MODEL 4
REMARK VINA RESULT:      -5.3      3.103      5.399
REMARK  7 active torsions:
REMARK  status: ('A' for Active; 'I' for Inactive)
REMARK    1  A    between atoms: C_2  and  C_3 
REMARK    2  A    between atoms: C_3  and  O_6 
REMARK    3  A    between atoms: C_3  and  C_4 
REMARK    4  A    between atoms: C_7  and  O_6 
REMARK    5  A    between atoms: C_9  and  C_10 
REMARK    6  A    between atoms: N_15  and  C_14 
REMARK    7  A    between atoms: N_20  and  C_19 
REMARK       I    between atoms: C_22  and  N_20 
ROOT
ATOM      1  C   LIG d   1      -4.308  76.084 116.996  0.00  0.00     0.161 C 
ATOM      2  C   LIG d   1      -5.181  75.072 117.428  0.00  0.00     0.016 C 
ATOM      3  C   LIG d   1      -6.083  74.403 116.570  0.00  0.00     0.038 C 
ATOM      4  C   LIG d   1      -6.067  74.598 115.181  0.00  0.00     0.028 C 
ATOM      5  C   LIG d   1      -5.554  75.973 114.768  0.00  0.00    -0.047 C 
ATOM      6  C   LIG d   1      -4.198  76.232 115.464  0.00  0.00     0.091 C 
ENDROOT
BRANCH   1   7
ATOM      7  O   LIG d   1      -3.003  75.884 117.574  0.00  0.00    -0.368 OA
BRANCH   7   8
ATOM      8  C   LIG d   1      -2.297  74.690 117.157  0.00  0.00     0.119 C 
BRANCH   8   9
ATOM      9  C   LIG d   1      -1.844  73.951 118.431  0.00  0.00     0.028 C 
ATOM     10  C   LIG d   1      -0.376  74.242 118.788  0.00  0.00     0.006 C 
ENDBRANCH   8   9
BRANCH   8  11
ATOM     11  C   LIG d   1      -1.006  75.039 116.410  0.00  0.00     0.028 C 
ATOM     12  C   LIG d   1      -0.869  74.289 115.075  0.00  0.00     0.006 C 
ENDBRANCH   8  11
ENDBRANCH   7   8
ENDBRANCH   1   7
BRANCH   6  13
ATOM     13  N   LIG d   1      -3.666  77.590 115.180  0.00  0.00    -0.311 N 
ATOM     14  C   LIG d   1      -2.825  77.855 114.182  0.00  0.00     0.210 C 
ATOM     15  C   LIG d   1      -2.383  79.318 114.078  0.00  0.00     0.109 C 
ATOM     16  O   LIG d   1      -2.429  77.023 113.352  0.00  0.00    -0.276 OA
ATOM     17  H   LIG d   1      -3.961  78.331 115.786  0.00  0.00     0.149 HD
ENDBRANCH   6  13
BRANCH   5  18
ATOM     18  N   LIG d   1      -5.460  75.990 113.296  0.00  0.00     0.381 N 
ATOM     19  H   LIG d   1      -4.647  76.500 113.014  0.00  0.00    -0.090 HD
ATOM     20  H   LIG d   1      -6.269  76.456 112.924  0.00  0.00    -0.090 HD
ATOM     21  H   LIG d   1      -5.415  75.058 112.946  0.00  0.00    -0.090 HD
ENDBRANCH   5  18
BRANCH   3  22
ATOM     22  C   LIG d   1      -7.042  73.557 117.105  0.00  0.00     0.382 C 
ATOM     23  O   LIG d   1      -7.520  72.629 116.408  0.00  0.00    -0.241 OA
ATOM     24  O   LIG d   1      -7.468  73.737 118.262  0.00  0.00    -0.241 OA
ENDBRANCH   3  22
TORSDOF 7
ENDMDL
MODEL 5
REMARK VINA RESULT:      -5.2      2.366      4.971
REMARK  7 active torsions:
REMARK  status: ('A' for Active; 'I' for Inactive)
REMARK    1  A    between atoms: C_2  and  C_3 
REMARK    2  A    between atoms: C_3  and  O_6 
REMARK    3  A    between atoms: C_3  and  C_4 
REMARK    4  A    between atoms: C_7  and  O_6 
REMARK    5  A    between atoms: C_9  and  C_10 
REMARK    6  A    between atoms: N_15  and  C_14 
REMARK    7  A    between atoms: N_20  and  C_19 
REMARK       I    between atoms: C_22  and  N_20 
ROOT
ATOM      1  C   LIG d   1      -4.924  75.386 116.281  0.00  0.00     0.161 C 
ATOM      2  C   LIG d   1      -4.549  76.739 116.306  0.00  0.00     0.016 C 
ATOM      3  C   LIG d   1      -5.453  77.792 116.578  0.00  0.00     0.038 C 
ATOM      4  C   LIG d   1      -6.770  77.549 116.997  0.00  0.00     0.028 C 
ATOM      5  C   LIG d   1      -7.329  76.222 116.497  0.00  0.00    -0.047 C 
ATOM      6  C   LIG d   1      -6.331  75.094 116.844  0.00  0.00     0.091 C 
ENDROOT
BRANCH   1   7
ATOM      7  O   LIG d   1      -3.935  74.593 116.967  0.00  0.00    -0.368 OA
BRANCH   7   8
ATOM      8  C   LIG d   1      -2.679  75.253 117.259  0.00  0.00     0.119 C 
BRANCH   8   9
ATOM      9  C   LIG d   1      -1.587  74.561 116.420  0.00  0.00     0.028 C 
ATOM     10  C   LIG d   1      -1.276  75.321 115.119  0.00  0.00     0.006 C 
ENDBRANCH   8   9
BRANCH   8  11
ATOM     11  C   LIG d   1      -2.264  75.042 118.718  0.00  0.00     0.028 C 
ATOM     12  C   LIG d   1      -1.689  73.641 118.977  0.00  0.00     0.006 C 
ENDBRANCH   8  11
ENDBRANCH   7   8
ENDBRANCH   1   7
BRANCH   6  13
ATOM     13  N   LIG d   1      -6.761  73.773 116.316  0.00  0.00    -0.311 N 
ATOM     14  C   LIG d   1      -7.440  72.882 117.036  0.00  0.00     0.210 C 
ATOM     15  C   LIG d   1      -7.767  71.575 116.306  0.00  0.00     0.109 C 
ATOM     16  O   LIG d   1      -7.830  73.062 118.200  0.00  0.00    -0.276 OA
ATOM     17  H   LIG d   1      -6.514  73.557 115.371  0.00  0.00     0.149 HD
ENDBRANCH   6  13
BRANCH   5  18
ATOM     18  N   LIG d   1      -8.653  76.033 117.119  0.00  0.00     0.381 N 
ATOM     19  H   LIG d   1      -8.712  75.119 117.521  0.00  0.00    -0.090 HD
ATOM     20  H   LIG d   1      -9.360  76.111 116.409  0.00  0.00    -0.090 HD
ATOM     21  H   LIG d   1      -8.801  76.724 117.822  0.00  0.00    -0.090 HD
ENDBRANCH   5  18
BRANCH   3  22
ATOM     22  C   LIG d   1      -5.052  79.107 116.394  0.00  0.00     0.382 C 
ATOM     23  O   LIG d   1      -5.522  80.013 117.123  0.00  0.00    -0.241 OA
ATOM     24  O   LIG d   1      -4.260  79.404 115.480  0.00  0.00    -0.241 OA
ENDBRANCH   3  22
TORSDOF 7
ENDMDL
MODEL 6
REMARK VINA RESULT:      -5.2      3.805      5.569
REMARK  7 active torsions:
REMARK  status: ('A' for Active; 'I' for Inactive)
REMARK    1  A    between atoms: C_2  and  C_3 
REMARK    2  A    between atoms: C_3  and  O_6 
REMARK    3  A    between atoms: C_3  and  C_4 
REMARK    4  A    between atoms: C_7  and  O_6 
REMARK    5  A    between atoms: C_9  and  C_10 
REMARK    6  A    between atoms: N_15  and  C_14 
REMARK    7  A    between atoms: N_20  and  C_19 
REMARK       I    between atoms: C_22  and  N_20 
ROOT
ATOM      1  C   LIG d   1      -2.826  77.517 116.056  0.00  0.00     0.161 C 
ATOM      2  C   LIG d   1      -3.078  78.349 114.952  0.00  0.00     0.016 C 
ATOM      3  C   LIG d   1      -2.279  78.358 113.786  0.00  0.00     0.038 C 
ATOM      4  C   LIG d   1      -1.255  77.421 113.582  0.00  0.00     0.028 C 
ATOM      5  C   LIG d   1      -0.645  76.898 114.878  0.00  0.00    -0.047 C 
ATOM      6  C   LIG d   1      -1.781  76.410 115.806  0.00  0.00     0.091 C 
ENDROOT
BRANCH   1   7
ATOM      7  O   LIG d   1      -4.062  76.943 116.526  0.00  0.00    -0.368 OA
BRANCH   7   8
ATOM      8  C   LIG d   1      -4.403  75.640 115.992  0.00  0.00     0.119 C 
BRANCH   8   9
ATOM      9  C   LIG d   1      -5.639  75.819 115.090  0.00  0.00     0.028 C 
ATOM     10  C   LIG d   1      -5.288  75.759 113.594  0.00  0.00     0.006 C 
ENDBRANCH   8   9
BRANCH   8  11
ATOM     11  C   LIG d   1      -4.846  74.682 117.102  0.00  0.00     0.028 C 
ATOM     12  C   LIG d   1      -6.340  74.329 117.023  0.00  0.00     0.006 C 
ENDBRANCH   8  11
ENDBRANCH   7   8
ENDBRANCH   1   7
BRANCH   6  13
ATOM     13  N   LIG d   1      -1.277  75.961 117.130  0.00  0.00    -0.311 N 
ATOM     14  C   LIG d   1      -0.973  74.694 117.407  0.00  0.00     0.210 C 
ATOM     15  C   LIG d   1      -0.490  74.443 118.839  0.00  0.00     0.109 C 
ATOM     16  O   LIG d   1      -1.026  73.760 116.593  0.00  0.00    -0.276 OA
ATOM     17  H   LIG d   1      -1.174  76.659 117.840  0.00  0.00     0.149 HD
ENDBRANCH   6  13
BRANCH   5  18
ATOM     18  N   LIG d   1       0.310  75.831 114.523  0.00  0.00     0.381 N 
ATOM     19  H   LIG d   1       1.244  76.186 114.561  0.00  0.00    -0.090 HD
ATOM     20  H   LIG d   1       0.125  75.530 113.582  0.00  0.00    -0.090 HD
ATOM     21  H   LIG d   1       0.212  75.064 115.150  0.00  0.00    -0.090 HD
ENDBRANCH   5  18
BRANCH   3  22
ATOM     22  C   LIG d   1      -2.475  79.338 112.825  0.00  0.00     0.382 C 
ATOM     23  O   LIG d   1      -1.814  79.313 111.759  0.00  0.00    -0.241 OA
ATOM     24  O   LIG d   1      -3.273  80.273 113.030  0.00  0.00    -0.241 OA
ENDBRANCH   3  22
TORSDOF 7
ENDMDL
MODEL 7
REMARK VINA RESULT:      -5.1      2.288      5.161
REMARK  7 active torsions:
REMARK  status: ('A' for Active; 'I' for Inactive)
REMARK    1  A    between atoms: C_2  and  C_3 
REMARK    2  A    between atoms: C_3  and  O_6 
REMARK    3  A    between atoms: C_3  and  C_4 
REMARK    4  A    between atoms: C_7  and  O_6 
REMARK    5  A    between atoms: C_9  and  C_10 
REMARK    6  A    between atoms: N_15  and  C_14 
REMARK    7  A    between atoms: N_20  and  C_19 
REMARK       I    between atoms: C_22  and  N_20 
ROOT
ATOM      1  C   LIG d   1      -5.160  76.156 117.439  0.00  0.00     0.161 C 
ATOM      2  C   LIG d   1      -5.627  74.852 117.203  0.00  0.00     0.016 C 
ATOM      3  C   LIG d   1      -7.000  74.516 117.150  0.00  0.00     0.038 C 
ATOM      4  C   LIG d   1      -8.005  75.494 117.179  0.00  0.00     0.028 C 
ATOM      5  C   LIG d   1      -7.595  76.761 117.921  0.00  0.00    -0.047 C 
ATOM      6  C   LIG d   1      -6.241  77.254 117.362  0.00  0.00     0.091 C 
ENDROOT
BRANCH   1   7
ATOM      7  O   LIG d   1      -4.075  76.456 116.538  0.00  0.00    -0.368 OA
BRANCH   7   8
ATOM      8  C   LIG d   1      -3.957  75.600 115.376  0.00  0.00     0.119 C 
BRANCH   8   9
ATOM      9  C   LIG d   1      -2.467  75.242 115.215  0.00  0.00     0.028 C 
ATOM     10  C   LIG d   1      -1.825  74.792 116.538  0.00  0.00     0.006 C 
ENDBRANCH   8   9
BRANCH   8  11
ATOM     11  C   LIG d   1      -4.335  76.347 114.093  0.00  0.00     0.028 C 
ATOM     12  C   LIG d   1      -5.737  75.980 113.581  0.00  0.00     0.006 C 
ENDBRANCH   8  11
ENDBRANCH   7   8
ENDBRANCH   1   7
BRANCH   6  13
ATOM     13  N   LIG d   1      -5.726  78.443 118.091  0.00  0.00    -0.311 N 
ATOM     14  C   LIG d   1      -5.935  79.696 117.690  0.00  0.00     0.210 C 
ATOM     15  C   LIG d   1      -5.300  80.773 118.575  0.00  0.00     0.109 C 
ATOM     16  O   LIG d   1      -6.614  80.019 116.703  0.00  0.00    -0.276 OA
ATOM     17  H   LIG d   1      -5.192  78.274 118.920  0.00  0.00     0.149 HD
ENDBRANCH   6  13
BRANCH   5  18
ATOM     18  N   LIG d   1      -8.682  77.745 117.756  0.00  0.00     0.381 N 
ATOM     19  H   LIG d   1      -8.959  78.097 118.650  0.00  0.00    -0.090 HD
ATOM     20  H   LIG d   1      -9.473  77.289 117.337  0.00  0.00    -0.090 HD
ATOM     21  H   LIG d   1      -8.376  78.496 117.176  0.00  0.00    -0.090 HD
ENDBRANCH   5  18
BRANCH   3  22
ATOM     22  C   LIG d   1      -7.379  73.183 117.106  0.00  0.00     0.382 C 
ATOM     23  O   LIG d   1      -7.903  72.647 118.113  0.00  0.00    -0.241 OA
ATOM     24  O   LIG d   1      -7.163  72.497 116.089  0.00  0.00    -0.241 OA
ENDBRANCH   3  22
TORSDOF 7
ENDMDL
MODEL 8
REMARK VINA RESULT:      -5.0      3.342      6.261
REMARK  7 active torsions:
REMARK  status: ('A' for Active; 'I' for Inactive)
REMARK    1  A    between atoms: C_2  and  C_3 
REMARK    2  A    between atoms: C_3  and  O_6 
REMARK    3  A    between atoms: C_3  and  C_4 
REMARK    4  A    between atoms: C_7  and  O_6 
REMARK    5  A    between atoms: C_9  and  C_10 
REMARK    6  A    between atoms: N_15  and  C_14 
REMARK    7  A    between atoms: N_20  and  C_19 
REMARK       I    between atoms: C_22  and  N_20 
ROOT
ATOM      1  C   LIG d   1      -3.500  75.974 114.375  0.00  0.00     0.161 C 
ATOM      2  C   LIG d   1      -2.810  77.152 114.047  0.00  0.00     0.016 C 
ATOM      3  C   LIG d   1      -3.136  78.420 114.581  0.00  0.00     0.038 C 
ATOM      4  C   LIG d   1      -4.086  78.572 115.602  0.00  0.00     0.028 C 
ATOM      5  C   LIG d   1      -5.156  77.486 115.601  0.00  0.00    -0.047 C 
ATOM      6  C   LIG d   1      -4.466  76.102 115.571  0.00  0.00     0.091 C 
ENDROOT
BRANCH   1   7
ATOM      7  O   LIG d   1      -2.561  74.904 114.602  0.00  0.00    -0.368 OA
BRANCH   7   8
ATOM      8  C   LIG d   1      -1.184  75.301 114.819  0.00  0.00     0.119 C 
BRANCH   8   9
ATOM      9  C   LIG d   1      -0.288  74.153 114.315  0.00  0.00     0.028 C 
ATOM     10  C   LIG d   1       0.811  74.644 113.357  0.00  0.00     0.006 C 
ENDBRANCH   8   9
BRANCH   8  11
ATOM     11  C   LIG d   1      -0.871  75.434 116.312  0.00  0.00     0.028 C 
ATOM     12  C   LIG d   1      -1.003  74.104 117.070  0.00  0.00     0.006 C 
ENDBRANCH   8  11
ENDBRANCH   7   8
ENDBRANCH   1   7
BRANCH   6  13
ATOM     13  N   LIG d   1      -5.442  74.984 115.484  0.00  0.00    -0.311 N 
ATOM     14  C   LIG d   1      -5.958  74.377 116.550  0.00  0.00     0.210 C 
ATOM     15  C   LIG d   1      -6.930  73.235 116.237  0.00  0.00     0.109 C 
ATOM     16  O   LIG d   1      -5.728  74.695 117.727  0.00  0.00    -0.276 OA
ATOM     17  H   LIG d   1      -5.708  74.682 114.567  0.00  0.00     0.149 HD
ENDBRANCH   6  13
BRANCH   5  18
ATOM     18  N   LIG d   1      -5.997  77.687 116.796  0.00  0.00     0.381 N 
ATOM     19  H   LIG d   1      -6.776  78.272 116.568  0.00  0.00    -0.090 HD
ATOM     20  H   LIG d   1      -5.452  78.149 117.503  0.00  0.00    -0.090 HD
ATOM     21  H   LIG d   1      -6.320  76.808 117.137  0.00  0.00    -0.090 HD
ENDBRANCH   5  18
BRANCH   3  22
ATOM     22  C   LIG d   1      -2.537  79.559 114.064  0.00  0.00     0.382 C 
ATOM     23  O   LIG d   1      -1.293  79.596 113.906  0.00  0.00    -0.241 OA
ATOM     24  O   LIG d   1      -3.220  80.565 113.795  0.00  0.00    -0.241 OA
ENDBRANCH   3  22
TORSDOF 7
ENDMDL
MODEL 9
REMARK VINA RESULT:      -5.0     15.087     17.364
REMARK  7 active torsions:
REMARK  status: ('A' for Active; 'I' for Inactive)
REMARK    1  A    between atoms: C_2  and  C_3 
REMARK    2  A    between atoms: C_3  and  O_6 
REMARK    3  A    between atoms: C_3  and  C_4 
REMARK    4  A    between atoms: C_7  and  O_6 
REMARK    5  A    between atoms: C_9  and  C_10 
REMARK    6  A    between atoms: N_15  and  C_14 
REMARK    7  A    between atoms: N_20  and  C_19 
REMARK       I    between atoms: C_22  and  N_20 
ROOT
ATOM      1  C   LIG d   1       3.707  89.448 116.125  0.00  0.00     0.161 C 
ATOM      2  C   LIG d   1       4.171  90.609 116.766  0.00  0.00     0.016 C 
ATOM      3  C   LIG d   1       3.317  91.539 117.403  0.00  0.00     0.038 C 
ATOM      4  C   LIG d   1       1.947  91.293 117.572  0.00  0.00     0.028 C 
ATOM      5  C   LIG d   1       1.358  90.380 116.502  0.00  0.00    -0.047 C 
ATOM      6  C   LIG d   1       2.227  89.106 116.396  0.00  0.00     0.091 C 
ENDROOT
BRANCH   1   7
ATOM      7  O   LIG d   1       4.551  88.331 116.468  0.00  0.00    -0.368 OA
BRANCH   7   8
ATOM      8  C   LIG d   1       5.702  88.115 115.615  0.00  0.00     0.119 C 
BRANCH   8   9
ATOM      9  C   LIG d   1       5.238  88.299 114.157  0.00  0.00     0.028 C 
ATOM     10  C   LIG d   1       6.233  89.126 113.324  0.00  0.00     0.006 C 
ENDBRANCH   8   9
BRANCH   8  11
ATOM     11  C   LIG d   1       6.198  86.669 115.703  0.00  0.00     0.028 C 
ATOM     12  C   LIG d   1       5.096  85.641 115.403  0.00  0.00     0.006 C 
ENDBRANCH   8  11
ENDBRANCH   7   8
ENDBRANCH   1   7
BRANCH   6  13
ATOM     13  N   LIG d   1       1.770  88.197 115.313  0.00  0.00    -0.311 N 
ATOM     14  C   LIG d   1       1.581  86.890 115.484  0.00  0.00     0.210 C 
ATOM     15  C   LIG d   1       1.127  86.132 114.232  0.00  0.00     0.109 C 
ATOM     16  O   LIG d   1       1.715  86.291 116.562  0.00  0.00    -0.276 OA
ATOM     17  H   LIG d   1       1.607  88.605 114.413  0.00  0.00     0.149 HD
ENDBRANCH   6  13
BRANCH   5  18
ATOM     18  N   LIG d   1      -0.040  90.097 116.877  0.00  0.00     0.381 N 
ATOM     19  H   LIG d   1      -0.632  90.839 116.562  0.00  0.00    -0.090 HD
ATOM     20  H   LIG d   1      -0.104  90.045 117.878  0.00  0.00    -0.090 HD
ATOM     21  H   LIG d   1      -0.333  89.234 116.473  0.00  0.00    -0.090 HD
ENDBRANCH   5  18
BRANCH   3  22
ATOM     22  C   LIG d   1       3.828  92.751 117.842  0.00  0.00     0.382 C 
ATOM     23  O   LIG d   1       4.079  93.662 117.017  0.00  0.00    -0.241 OA
ATOM     24  O   LIG d   1       4.083  92.929 119.049  0.00  0.00    -0.241 OA
ENDBRANCH   3  22
TORSDOF 7
ENDMDL
