MODEL 1
REMARK VINA RESULT:      -5.5      0.000      0.000
REMARK  7 active torsions:
REMARK  status: ('A' for Active; 'I' for Inactive)
REMARK    1  A    between atoms: C_2  and  C_3 
REMARK    2  A    between atoms: C_3  and  O_6 
REMARK    3  A    between atoms: C_3  and  C_4 
REMARK    4  A    between atoms: C_7  and  O_6 
REMARK    5  A    between atoms: C_9  and  C_10 
REMARK    6  A    between atoms: N_15  and  C_14 
REMARK    7  A    between atoms: N_20  and  C_19 
REMARK       I    between atoms: C_22  and  N_20 
ROOT
ATOM      1  C   LIG d   1      -3.037  74.704 115.544  0.00  0.00     0.161 C 
ATOM      2  C   LIG d   1      -2.630  73.958 116.663  0.00  0.00     0.016 C 
ATOM      3  C   LIG d   1      -1.298  73.927 117.135  0.00  0.00     0.038 C 
ATOM      4  C   LIG d   1      -0.304  74.765 116.606  0.00  0.00     0.028 C 
ATOM      5  C   LIG d   1      -0.553  75.158 115.154  0.00  0.00    -0.047 C 
ATOM      6  C   LIG d   1      -1.991  75.711 115.023  0.00  0.00     0.091 C 
ENDROOT
BRANCH   1   7
ATOM      7  O   LIG d   1      -4.280  75.376 115.831  0.00  0.00    -0.368 OA
BRANCH   7   8
ATOM      8  C   LIG d   1      -5.474  74.770 115.279  0.00  0.00     0.119 C 
BRANCH   8   9
ATOM      9  C   LIG d   1      -6.494  75.898 115.031  0.00  0.00     0.028 C 
ATOM     10  C   LIG d   1      -7.620  75.911 116.079  0.00  0.00     0.006 C 
ENDBRANCH   8   9
BRANCH   8  11
ATOM     11  C   LIG d   1      -6.142  73.834 116.291  0.00  0.00     0.028 C 
ATOM     12  C   LIG d   1      -6.008  72.351 115.911  0.00  0.00     0.006 C 
ENDBRANCH   8  11
ENDBRANCH   7   8
ENDBRANCH   1   7
BRANCH   6  13
ATOM     13  N   LIG d   1      -2.345  76.041 113.617  0.00  0.00    -0.311 N 
ATOM     14  C   LIG d   1      -2.873  77.206 113.249  0.00  0.00     0.210 C 
ATOM     15  C   LIG d   1      -3.182  77.332 111.754  0.00  0.00     0.109 C 
ATOM     16  O   LIG d   1      -3.086  78.160 114.013  0.00  0.00    -0.276 OA
ATOM     17  H   LIG d   1      -2.177  75.335 112.927  0.00  0.00     0.149 HD
ENDBRANCH   6  13
BRANCH   5  18
ATOM     18  N   LIG d   1       0.481  76.140 114.774  0.00  0.00     0.381 N 
ATOM     19  H   LIG d   1       0.597  76.810 115.508  0.00  0.00    -0.090 HD
ATOM     20  H   LIG d   1       0.180  76.625 113.948  0.00  0.00    -0.090 HD
ATOM     21  H   LIG d   1       1.345  75.675 114.600  0.00  0.00    -0.090 HD
ENDBRANCH   5  18
BRANCH   3  22
ATOM     22  C   LIG d   1      -0.939  73.021 118.121  0.00  0.00     0.382 C 
ATOM     23  O   LIG d   1      -1.314  73.201 119.304  0.00  0.00    -0.241 OA
ATOM     24  O   LIG d   1      -0.208  72.050 117.850  0.00  0.00    -0.241 OA
ENDBRANCH   3  22
TORSDOF 7
ENDMDL
MODEL 2
REMARK VINA RESULT:      -5.5      1.827      4.876
REMARK  7 active torsions:
REMARK  status: ('A' for Active; 'I' for Inactive)
REMARK    1  A    between atoms: C_2  and  C_3 
REMARK    2  A    between atoms: C_3  and  O_6 
REMARK    3  A    between atoms: C_3  and  C_4 
REMARK    4  A    between atoms: C_7  and  O_6 
REMARK    5  A    between atoms: C_9  and  C_10 
REMARK    6  A    between atoms: N_15  and  C_14 
REMARK    7  A    between atoms: N_20  and  C_19 
REMARK       I    between atoms: C_22  and  N_20 
ROOT
ATOM      1  C   LIG d   1      -2.180  75.628 114.960  0.00  0.00     0.161 C 
ATOM      2  C   LIG d   1      -2.716  76.232 113.810  0.00  0.00     0.016 C 
ATOM      3  C   LIG d   1      -1.969  76.462 112.632  0.00  0.00     0.038 C 
ATOM      4  C   LIG d   1      -0.667  75.964 112.470  0.00  0.00     0.028 C 
ATOM      5  C   LIG d   1       0.084  75.792 113.786  0.00  0.00    -0.047 C 
ATOM      6  C   LIG d   1      -0.794  74.977 114.762  0.00  0.00     0.091 C 
ENDROOT
BRANCH   1   7
ATOM      7  O   LIG d   1      -3.114  74.666 115.487  0.00  0.00    -0.368 OA
BRANCH   7   8
ATOM      8  C   LIG d   1      -4.512  74.909 115.194  0.00  0.00     0.119 C 
BRANCH   8   9
ATOM      9  C   LIG d   1      -5.187  75.363 116.503  0.00  0.00     0.028 C 
ATOM     10  C   LIG d   1      -6.122  76.566 116.294  0.00  0.00     0.006 C 
ENDBRANCH   8   9
BRANCH   8  11
ATOM     11  C   LIG d   1      -5.231  73.616 114.796  0.00  0.00     0.028 C 
ATOM     12  C   LIG d   1      -5.799  72.853 116.003  0.00  0.00     0.006 C 
ENDBRANCH   8  11
ENDBRANCH   7   8
ENDBRANCH   1   7
BRANCH   6  13
ATOM     13  N   LIG d   1      -0.169  74.835 116.103  0.00  0.00    -0.311 N 
ATOM     14  C   LIG d   1       0.140  73.659 116.647  0.00  0.00     0.210 C 
ATOM     15  C   LIG d   1       0.759  73.737 118.046  0.00  0.00     0.109 C 
ATOM     16  O   LIG d   1      -0.010  72.561 116.090  0.00  0.00    -0.276 OA
ATOM     17  H   LIG d   1       0.016  75.678 116.612  0.00  0.00     0.149 HD
ENDBRANCH   6  13
BRANCH   5  18
ATOM     18  N   LIG d   1       1.371  75.138 113.482  0.00  0.00     0.381 N 
ATOM     19  H   LIG d   1       1.493  74.341 114.074  0.00  0.00    -0.090 HD
ATOM     20  H   LIG d   1       2.116  75.786 113.667  0.00  0.00    -0.090 HD
ATOM     21  H   LIG d   1       1.394  74.858 112.526  0.00  0.00    -0.090 HD
ENDBRANCH   5  18
BRANCH   3  22
ATOM     22  C   LIG d   1      -2.510  77.234 111.615  0.00  0.00     0.382 C 
ATOM     23  O   LIG d   1      -1.958  78.311 111.284  0.00  0.00    -0.241 OA
ATOM     24  O   LIG d   1      -3.568  76.889 111.055  0.00  0.00    -0.241 OA
ENDBRANCH   3  22
TORSDOF 7
ENDMDL
MODEL 3
REMARK VINA RESULT:      -5.4      3.785      6.680
REMARK  7 active torsions:
REMARK  status: ('A' for Active; 'I' for Inactive)
REMARK    1  A    between atoms: C_2  and  C_3 
REMARK    2  A    between atoms: C_3  and  O_6 
REMARK    3  A    between atoms: C_3  and  C_4 
REMARK    4  A    between atoms: C_7  and  O_6 
REMARK    5  A    between atoms: C_9  and  C_10 
REMARK    6  A    between atoms: N_15  and  C_14 
REMARK    7  A    between atoms: N_20  and  C_19 
REMARK       I    between atoms: C_22  and  N_20 
ROOT
ATOM      1  C   LIG d   1      -7.526  75.353 117.974  0.00  0.00     0.161 C 
ATOM      2  C   LIG d   1      -8.789  75.934 118.179  0.00  0.00     0.016 C 
ATOM      3  C   LIG d   1      -9.005  77.331 118.215  0.00  0.00     0.038 C 
ATOM      4  C   LIG d   1      -7.991  78.247 117.897  0.00  0.00     0.028 C 
ATOM      5  C   LIG d   1      -6.588  77.721 118.180  0.00  0.00    -0.047 C 
ATOM      6  C   LIG d   1      -6.429  76.335 117.514  0.00  0.00     0.091 C 
ENDROOT
BRANCH   1   7
ATOM      7  O   LIG d   1      -7.639  74.256 117.046  0.00  0.00    -0.368 OA
BRANCH   7   8
ATOM      8  C   LIG d   1      -7.419  72.933 117.593  0.00  0.00     0.119 C 
BRANCH   8   9
ATOM      9  C   LIG d   1      -6.776  72.075 116.486  0.00  0.00     0.028 C 
ATOM     10  C   LIG d   1      -5.692  72.839 115.707  0.00  0.00     0.006 C 
ENDBRANCH   8   9
BRANCH   8  11
ATOM     11  C   LIG d   1      -8.744  72.240 117.924  0.00  0.00     0.028 C 
ATOM     12  C   LIG d   1      -8.939  70.925 117.152  0.00  0.00     0.006 C 
ENDBRANCH   8  11
ENDBRANCH   7   8
ENDBRANCH   1   7
BRANCH   6  13
ATOM     13  N   LIG d   1      -5.113  75.711 117.813  0.00  0.00    -0.311 N 
ATOM     14  C   LIG d   1      -4.046  75.839 117.027  0.00  0.00     0.210 C 
ATOM     15  C   LIG d   1      -2.795  75.098 117.509  0.00  0.00     0.109 C 
ATOM     16  O   LIG d   1      -4.007  76.522 115.993  0.00  0.00    -0.276 OA
ATOM     17  H   LIG d   1      -5.047  75.164 118.649  0.00  0.00     0.149 HD
ENDBRANCH   6  13
BRANCH   5  18
ATOM     18  N   LIG d   1      -5.627  78.719 117.674  0.00  0.00     0.381 N 
ATOM     19  H   LIG d   1      -5.902  79.021 116.761  0.00  0.00    -0.090 HD
ATOM     20  H   LIG d   1      -4.721  78.292 117.606  0.00  0.00    -0.090 HD
ATOM     21  H   LIG d   1      -5.589  79.499 118.293  0.00  0.00    -0.090 HD
ENDBRANCH   5  18
BRANCH   3  22
ATOM     22  C   LIG d   1     -10.238  77.825 118.613  0.00  0.00     0.382 C 
ATOM     23  O   LIG d   1     -11.214  77.047 118.739  0.00  0.00    -0.241 OA
ATOM     24  O   LIG d   1     -10.398  79.046 118.804  0.00  0.00    -0.241 OA
ENDBRANCH   3  22
TORSDOF 7
ENDMDL
MODEL 4
REMARK VINA RESULT:      -5.4      2.571      6.415
REMARK  7 active torsions:
REMARK  status: ('A' for Active; 'I' for Inactive)
REMARK    1  A    between atoms: C_2  and  C_3 
REMARK    2  A    between atoms: C_3  and  O_6 
REMARK    3  A    between atoms: C_3  and  C_4 
REMARK    4  A    between atoms: C_7  and  O_6 
REMARK    5  A    between atoms: C_9  and  C_10 
REMARK    6  A    between atoms: N_15  and  C_14 
REMARK    7  A    between atoms: N_20  and  C_19 
REMARK       I    between atoms: C_22  and  N_20 
ROOT
ATOM      1  C   LIG d   1      -3.099  76.987 113.247  0.00  0.00     0.161 C 
ATOM      2  C   LIG d   1      -2.628  78.224 112.777  0.00  0.00     0.016 C 
ATOM      3  C   LIG d   1      -2.429  79.349 113.611  0.00  0.00     0.038 C 
ATOM      4  C   LIG d   1      -2.545  79.266 115.007  0.00  0.00     0.028 C 
ATOM      5  C   LIG d   1      -3.505  78.176 115.472  0.00  0.00    -0.047 C 
ATOM      6  C   LIG d   1      -3.124  76.845 114.783  0.00  0.00     0.091 C 
ENDROOT
BRANCH   1   7
ATOM      7  O   LIG d   1      -2.332  75.917 112.658  0.00  0.00    -0.368 OA
BRANCH   7   8
ATOM      8  C   LIG d   1      -0.894  76.088 112.659  0.00  0.00     0.119 C 
BRANCH   8   9
ATOM      9  C   LIG d   1      -0.366  75.584 111.302  0.00  0.00     0.028 C 
ATOM     10  C   LIG d   1       1.005  74.898 111.424  0.00  0.00     0.006 C 
ENDBRANCH   8   9
BRANCH   8  11
ATOM     11  C   LIG d   1      -0.228  75.196 113.711  0.00  0.00     0.028 C 
ATOM     12  C   LIG d   1       0.272  75.984 114.932  0.00  0.00     0.006 C 
ENDBRANCH   8  11
ENDBRANCH   7   8
ENDBRANCH   1   7
BRANCH   6  13
ATOM     13  N   LIG d   1      -4.065  75.744 115.118  0.00  0.00    -0.311 N 
ATOM     14  C   LIG d   1      -3.706  74.651 115.789  0.00  0.00     0.210 C 
ATOM     15  C   LIG d   1      -4.826  73.631 116.010  0.00  0.00     0.109 C 
ATOM     16  O   LIG d   1      -2.573  74.445 116.249  0.00  0.00    -0.276 OA
ATOM     17  H   LIG d   1      -5.012  75.844 114.809  0.00  0.00     0.149 HD
ENDBRANCH   6  13
BRANCH   5  18
ATOM     18  N   LIG d   1      -3.425  78.109 116.943  0.00  0.00     0.381 N 
ATOM     19  H   LIG d   1      -2.511  77.809 117.219  0.00  0.00    -0.090 HD
ATOM     20  H   LIG d   1      -4.092  77.435 117.275  0.00  0.00    -0.090 HD
ATOM     21  H   LIG d   1      -3.621  79.003 117.336  0.00  0.00    -0.090 HD
ENDBRANCH   5  18
BRANCH   3  22
ATOM     22  C   LIG d   1      -2.149  80.583 113.046  0.00  0.00     0.382 C 
ATOM     23  O   LIG d   1      -3.086  81.358 112.736  0.00  0.00    -0.241 OA
ATOM     24  O   LIG d   1      -0.974  80.913 112.800  0.00  0.00    -0.241 OA
ENDBRANCH   3  22
TORSDOF 7
ENDMDL
MODEL 5
REMARK VINA RESULT:      -5.3     10.436     13.045
REMARK  7 active torsions:
REMARK  status: ('A' for Active; 'I' for Inactive)
REMARK    1  A    between atoms: C_2  and  C_3 
REMARK    2  A    between atoms: C_3  and  O_6 
REMARK    3  A    between atoms: C_3  and  C_4 
REMARK    4  A    between atoms: C_7  and  O_6 
REMARK    5  A    between atoms: C_9  and  C_10 
REMARK    6  A    between atoms: N_15  and  C_14 
REMARK    7  A    between atoms: N_20  and  C_19 
REMARK       I    between atoms: C_22  and  N_20 
ROOT
ATOM      1  C   LIG d   1       2.176  85.733 114.809  0.00  0.00     0.161 C 
ATOM      2  C   LIG d   1       2.783  86.975 114.558  0.00  0.00     0.016 C 
ATOM      3  C   LIG d   1       4.084  87.308 115.000  0.00  0.00     0.038 C 
ATOM      4  C   LIG d   1       4.930  86.361 115.597  0.00  0.00     0.028 C 
ATOM      5  C   LIG d   1       4.178  85.249 116.320  0.00  0.00    -0.047 C 
ATOM      6  C   LIG d   1       3.125  84.649 115.361  0.00  0.00     0.091 C 
ENDROOT
BRANCH   1   7
ATOM      7  O   LIG d   1       1.517  85.262 113.616  0.00  0.00    -0.368 OA
BRANCH   7   8
ATOM      8  C   LIG d   1       1.787  86.006 112.403  0.00  0.00     0.119 C 
BRANCH   8   9
ATOM      9  C   LIG d   1       0.429  86.360 111.765  0.00  0.00     0.028 C 
ATOM     10  C   LIG d   1      -0.722  85.507 112.324  0.00  0.00     0.006 C 
ENDBRANCH   8   9
BRANCH   8  11
ATOM     11  C   LIG d   1       2.508  85.139 111.367  0.00  0.00     0.028 C 
ATOM     12  C   LIG d   1       4.030  85.103 111.576  0.00  0.00     0.006 C 
ENDBRANCH   8  11
ENDBRANCH   7   8
ENDBRANCH   1   7
BRANCH   6  13
ATOM     13  N   LIG d   1       2.288  83.610 116.016  0.00  0.00    -0.311 N 
ATOM     14  C   LIG d   1       2.608  82.318 116.039  0.00  0.00     0.210 C 
ATOM     15  C   LIG d   1       1.596  81.413 116.750  0.00  0.00     0.109 C 
ATOM     16  O   LIG d   1       3.649  81.838 115.565  0.00  0.00    -0.276 OA
ATOM     17  H   LIG d   1       1.440  83.916 116.452  0.00  0.00     0.149 HD
ENDBRANCH   6  13
BRANCH   5  18
ATOM     18  N   LIG d   1       5.175  84.261 116.775  0.00  0.00     0.381 N 
ATOM     19  H   LIG d   1       5.385  84.412 117.741  0.00  0.00    -0.090 HD
ATOM     20  H   LIG d   1       6.020  84.383 116.245  0.00  0.00    -0.090 HD
ATOM     21  H   LIG d   1       4.824  83.337 116.645  0.00  0.00    -0.090 HD
ENDBRANCH   5  18
BRANCH   3  22
ATOM     22  C   LIG d   1       4.536  88.614 114.883  0.00  0.00     0.382 C 
ATOM     23  O   LIG d   1       4.598  89.350 115.897  0.00  0.00    -0.241 OA
ATOM     24  O   LIG d   1       4.842  89.078 113.768  0.00  0.00    -0.241 OA
ENDBRANCH   3  22
TORSDOF 7
ENDMDL
MODEL 6
REMARK VINA RESULT:      -5.1      2.093      5.018
REMARK  7 active torsions:
REMARK  status: ('A' for Active; 'I' for Inactive)
REMARK    1  A    between atoms: C_2  and  C_3 
REMARK    2  A    between atoms: C_3  and  O_6 
REMARK    3  A    between atoms: C_3  and  C_4 
REMARK    4  A    between atoms: C_7  and  O_6 
REMARK    5  A    between atoms: C_9  and  C_10 
REMARK    6  A    between atoms: N_15  and  C_14 
REMARK    7  A    between atoms: N_20  and  C_19 
REMARK       I    between atoms: C_22  and  N_20 
ROOT
ATOM      1  C   LIG d   1      -2.296  76.940 115.462  0.00  0.00     0.161 C 
ATOM      2  C   LIG d   1      -2.633  78.071 114.700  0.00  0.00     0.016 C 
ATOM      3  C   LIG d   1      -2.000  78.405 113.481  0.00  0.00     0.038 C 
ATOM      4  C   LIG d   1      -1.084  77.543 112.861  0.00  0.00     0.028 C 
ATOM      5  C   LIG d   1      -0.344  76.639 113.841  0.00  0.00    -0.047 C 
ATOM      6  C   LIG d   1      -1.376  75.928 114.746  0.00  0.00     0.091 C 
ENDROOT
BRANCH   1   7
ATOM      7  O   LIG d   1      -3.495  76.286 115.924  0.00  0.00    -0.368 OA
BRANCH   7   8
ATOM      8  C   LIG d   1      -3.996  75.211 115.093  0.00  0.00     0.119 C 
BRANCH   8   9
ATOM      9  C   LIG d   1      -5.423  75.593 114.652  0.00  0.00     0.028 C 
ATOM     10  C   LIG d   1      -5.485  76.028 113.178  0.00  0.00     0.006 C 
ENDBRANCH   8   9
BRANCH   8  11
ATOM     11  C   LIG d   1      -4.152  73.914 115.893  0.00  0.00     0.028 C 
ATOM     12  C   LIG d   1      -5.598  73.393 115.907  0.00  0.00     0.006 C 
ENDBRANCH   8  11
ENDBRANCH   7   8
ENDBRANCH   1   7
BRANCH   6  13
ATOM     13  N   LIG d   1      -0.733  75.088 115.789  0.00  0.00    -0.311 N 
ATOM     14  C   LIG d   1      -0.385  73.817 115.596  0.00  0.00     0.210 C 
ATOM     15  C   LIG d   1       0.247  73.128 116.809  0.00  0.00     0.109 C 
ATOM     16  O   LIG d   1      -0.510  73.205 114.524  0.00  0.00    -0.276 OA
ATOM     17  H   LIG d   1      -0.566  75.515 116.679  0.00  0.00     0.149 HD
ENDBRANCH   6  13
BRANCH   5  18
ATOM     18  N   LIG d   1       0.475  75.700 113.050  0.00  0.00     0.381 N 
ATOM     19  H   LIG d   1       1.379  76.095 112.886  0.00  0.00    -0.090 HD
ATOM     20  H   LIG d   1       0.030  75.549 112.162  0.00  0.00    -0.090 HD
ATOM     21  H   LIG d   1       0.565  74.834 113.535  0.00  0.00    -0.090 HD
ENDBRANCH   5  18
BRANCH   3  22
ATOM     22  C   LIG d   1      -2.253  79.633 112.889  0.00  0.00     0.382 C 
ATOM     23  O   LIG d   1      -1.473  80.080 112.014  0.00  0.00    -0.241 OA
ATOM     24  O   LIG d   1      -3.226  80.321 113.252  0.00  0.00    -0.241 OA
ENDBRANCH   3  22
TORSDOF 7
ENDMDL
MODEL 7
REMARK VINA RESULT:      -5.0      2.585      5.597
REMARK  7 active torsions:
REMARK  status: ('A' for Active; 'I' for Inactive)
REMARK    1  A    between atoms: C_2  and  C_3 
REMARK    2  A    between atoms: C_3  and  O_6 
REMARK    3  A    between atoms: C_3  and  C_4 
REMARK    4  A    between atoms: C_7  and  O_6 
REMARK    5  A    between atoms: C_9  and  C_10 
REMARK    6  A    between atoms: N_15  and  C_14 
REMARK    7  A    between atoms: N_20  and  C_19 
REMARK       I    between atoms: C_22  and  N_20 
ROOT
ATOM      1  C   LIG d   1      -2.552  77.337 113.631  0.00  0.00     0.161 C 
ATOM      2  C   LIG d   1      -2.827  78.704 113.467  0.00  0.00     0.016 C 
ATOM      3  C   LIG d   1      -2.117  79.540 112.575  0.00  0.00     0.038 C 
ATOM      4  C   LIG d   1      -1.176  79.028 111.670  0.00  0.00     0.028 C 
ATOM      5  C   LIG d   1      -0.509  77.744 112.151  0.00  0.00    -0.047 C 
ATOM      6  C   LIG d   1      -1.604  76.737 112.572  0.00  0.00     0.091 C 
ENDROOT
BRANCH   1   7
ATOM      7  O   LIG d   1      -3.785  76.592 113.679  0.00  0.00    -0.368 OA
BRANCH   7   8
ATOM      8  C   LIG d   1      -3.965  75.731 114.830  0.00  0.00     0.119 C 
BRANCH   8   9
ATOM      9  C   LIG d   1      -5.336  75.043 114.683  0.00  0.00     0.028 C 
ATOM     10  C   LIG d   1      -5.273  73.537 114.989  0.00  0.00     0.006 C 
ENDBRANCH   8   9
BRANCH   8  11
ATOM     11  C   LIG d   1      -4.055  76.543 116.125  0.00  0.00     0.028 C 
ATOM     12  C   LIG d   1      -3.068  76.061 117.200  0.00  0.00     0.006 C 
ENDBRANCH   8  11
ENDBRANCH   7   8
ENDBRANCH   1   7
BRANCH   6  13
ATOM     13  N   LIG d   1      -1.035  75.484 113.135  0.00  0.00    -0.311 N 
ATOM     14  C   LIG d   1      -0.306  75.445 114.248  0.00  0.00     0.210 C 
ATOM     15  C   LIG d   1       0.200  74.054 114.642  0.00  0.00     0.109 C 
ATOM     16  O   LIG d   1      -0.056  76.427 114.964  0.00  0.00    -0.276 OA
ATOM     17  H   LIG d   1      -1.216  74.636 112.634  0.00  0.00     0.149 HD
ENDBRANCH   6  13
BRANCH   5  18
ATOM     18  N   LIG d   1       0.344  77.247 111.055  0.00  0.00     0.381 N 
ATOM     19  H   LIG d   1       0.830  76.424 111.351  0.00  0.00    -0.090 HD
ATOM     20  H   LIG d   1       1.024  77.950 110.827  0.00  0.00    -0.090 HD
ATOM     21  H   LIG d   1      -0.214  77.042 110.255  0.00  0.00    -0.090 HD
ENDBRANCH   5  18
BRANCH   3  22
ATOM     22  C   LIG d   1      -2.317  80.912 112.612  0.00  0.00     0.382 C 
ATOM     23  O   LIG d   1      -3.466  81.372 112.817  0.00  0.00    -0.241 OA
ATOM     24  O   LIG d   1      -1.372  81.694 112.397  0.00  0.00    -0.241 OA
ENDBRANCH   3  22
TORSDOF 7
ENDMDL
MODEL 8
REMARK VINA RESULT:      -5.0      3.120      6.726
REMARK  7 active torsions:
REMARK  status: ('A' for Active; 'I' for Inactive)
REMARK    1  A    between atoms: C_2  and  C_3 
REMARK    2  A    between atoms: C_3  and  O_6 
REMARK    3  A    between atoms: C_3  and  C_4 
REMARK    4  A    between atoms: C_7  and  O_6 
REMARK    5  A    between atoms: C_9  and  C_10 
REMARK    6  A    between atoms: N_15  and  C_14 
REMARK    7  A    between atoms: N_20  and  C_19 
REMARK       I    between atoms: C_22  and  N_20 
ROOT
ATOM      1  C   LIG d   1      -1.514  77.286 114.002  0.00  0.00     0.161 C 
ATOM      2  C   LIG d   1      -1.574  78.489 113.279  0.00  0.00     0.016 C 
ATOM      3  C   LIG d   1      -2.162  79.671 113.784  0.00  0.00     0.038 C 
ATOM      4  C   LIG d   1      -2.598  79.773 115.114  0.00  0.00     0.028 C 
ATOM      5  C   LIG d   1      -3.016  78.437 115.719  0.00  0.00    -0.047 C 
ATOM      6  C   LIG d   1      -1.884  77.409 115.495  0.00  0.00     0.091 C 
ENDROOT
BRANCH   1   7
ATOM      7  O   LIG d   1      -0.208  76.694 113.857  0.00  0.00    -0.368 OA
BRANCH   7   8
ATOM      8  C   LIG d   1      -0.164  75.396 113.215  0.00  0.00     0.119 C 
BRANCH   8   9
ATOM      9  C   LIG d   1       0.712  74.477 114.088  0.00  0.00     0.028 C 
ATOM     10  C   LIG d   1      -0.100  73.356 114.758  0.00  0.00     0.006 C 
ENDBRANCH   8   9
BRANCH   8  11
ATOM     11  C   LIG d   1       0.548  75.467 111.861  0.00  0.00     0.028 C 
ATOM     12  C   LIG d   1       1.958  74.856 111.896  0.00  0.00     0.006 C 
ENDBRANCH   8  11
ENDBRANCH   7   8
ENDBRANCH   1   7
BRANCH   6  13
ATOM     13  N   LIG d   1      -2.246  76.052 115.982  0.00  0.00    -0.311 N 
ATOM     14  C   LIG d   1      -1.941  75.605 117.199  0.00  0.00     0.210 C 
ATOM     15  C   LIG d   1      -2.390  74.170 117.491  0.00  0.00     0.109 C 
ATOM     16  O   LIG d   1      -1.371  76.271 118.075  0.00  0.00    -0.276 OA
ATOM     17  H   LIG d   1      -2.738  75.456 115.346  0.00  0.00     0.149 HD
ENDBRANCH   6  13
BRANCH   5  18
ATOM     18  N   LIG d   1      -3.314  78.667 117.145  0.00  0.00     0.381 N 
ATOM     19  H   LIG d   1      -4.111  79.267 117.232  0.00  0.00    -0.090 HD
ATOM     20  H   LIG d   1      -2.528  79.124 117.572  0.00  0.00    -0.090 HD
ATOM     21  H   LIG d   1      -3.492  77.799 117.600  0.00  0.00    -0.090 HD
ENDBRANCH   5  18
BRANCH   3  22
ATOM     22  C   LIG d   1      -2.356  80.757 112.943  0.00  0.00     0.382 C 
ATOM     23  O   LIG d   1      -3.512  81.206 112.755  0.00  0.00    -0.241 OA
ATOM     24  O   LIG d   1      -1.394  81.264 112.335  0.00  0.00    -0.241 OA
ENDBRANCH   3  22
TORSDOF 7
ENDMDL
MODEL 9
REMARK VINA RESULT:      -4.9      2.494      5.094
REMARK  7 active torsions:
REMARK  status: ('A' for Active; 'I' for Inactive)
REMARK    1  A    between atoms: C_2  and  C_3 
REMARK    2  A    between atoms: C_3  and  O_6 
REMARK    3  A    between atoms: C_3  and  C_4 
REMARK    4  A    between atoms: C_7  and  O_6 
REMARK    5  A    between atoms: C_9  and  C_10 
REMARK    6  A    between atoms: N_15  and  C_14 
REMARK    7  A    between atoms: N_20  and  C_19 
REMARK       I    between atoms: C_22  and  N_20 
ROOT
ATOM      1  C   LIG d   1      -1.313  76.131 114.009  0.00  0.00     0.161 C 
ATOM      2  C   LIG d   1      -2.599  75.903 114.528  0.00  0.00     0.016 C 
ATOM      3  C   LIG d   1      -2.880  74.926 115.510  0.00  0.00     0.038 C 
ATOM      4  C   LIG d   1      -1.861  74.207 116.153  0.00  0.00     0.028 C 
ATOM      5  C   LIG d   1      -0.604  74.046 115.305  0.00  0.00    -0.047 C 
ATOM      6  C   LIG d   1      -0.172  75.434 114.779  0.00  0.00     0.091 C 
ENDROOT
BRANCH   1   7
ATOM      7  O   LIG d   1      -1.066  77.548 113.921  0.00  0.00    -0.368 OA
BRANCH   7   8
ATOM      8  C   LIG d   1      -2.161  78.357 113.424  0.00  0.00     0.119 C 
BRANCH   8   9
ATOM      9  C   LIG d   1      -2.038  78.410 111.889  0.00  0.00     0.028 C 
ATOM     10  C   LIG d   1      -0.579  78.309 111.413  0.00  0.00     0.006 C 
ENDBRANCH   8   9
BRANCH   8  11
ATOM     11  C   LIG d   1      -2.037  79.810 113.891  0.00  0.00     0.028 C 
ATOM     12  C   LIG d   1      -2.745  80.800 112.953  0.00  0.00     0.006 C 
ENDBRANCH   8  11
ENDBRANCH   7   8
ENDBRANCH   1   7
BRANCH   6  13
ATOM     13  N   LIG d   1       1.001  75.355 113.870  0.00  0.00    -0.311 N 
ATOM     14  C   LIG d   1       0.997  74.675 112.725  0.00  0.00     0.210 C 
ATOM     15  C   LIG d   1       2.318  74.708 111.949  0.00  0.00     0.109 C 
ATOM     16  O   LIG d   1       0.016  74.075 112.262  0.00  0.00    -0.276 OA
ATOM     17  H   LIG d   1       1.830  75.840 114.153  0.00  0.00     0.149 HD
ENDBRANCH   6  13
BRANCH   5  18
ATOM     18  N   LIG d   1       0.422  73.401 116.146  0.00  0.00     0.381 N 
ATOM     19  H   LIG d   1       1.334  73.640 115.810  0.00  0.00    -0.090 HD
ATOM     20  H   LIG d   1       0.314  72.404 116.083  0.00  0.00    -0.090 HD
ATOM     21  H   LIG d   1       0.321  73.695 117.092  0.00  0.00    -0.090 HD
ENDBRANCH   5  18
BRANCH   3  22
ATOM     22  C   LIG d   1      -4.196  74.630 115.829  0.00  0.00     0.382 C 
ATOM     23  O   LIG d   1      -4.815  75.340 116.658  0.00  0.00    -0.241 OA
ATOM     24  O   LIG d   1      -4.759  73.637 115.330  0.00  0.00    -0.241 OA
ENDBRANCH   3  22
TORSDOF 7
ENDMDL
