MODEL 1
REMARK VINA RESULT:      -5.7      0.000      0.000
REMARK  7 active torsions:
REMARK  status: ('A' for Active; 'I' for Inactive)
REMARK    1  A    between atoms: C_2  and  C_3 
REMARK    2  A    between atoms: C_3  and  O_6 
REMARK    3  A    between atoms: C_3  and  C_4 
REMARK    4  A    between atoms: C_7  and  O_6 
REMARK    5  A    between atoms: C_9  and  C_10 
REMARK    6  A    between atoms: N_15  and  C_14 
REMARK    7  A    between atoms: N_20  and  C_19 
REMARK       I    between atoms: C_22  and  N_20 
ROOT
ATOM      1  C   LIG d   1      -2.305  77.626 115.975  0.00  0.00     0.161 C 
ATOM      2  C   LIG d   1      -2.746  78.402 114.891  0.00  0.00     0.016 C 
ATOM      3  C   LIG d   1      -2.073  78.457 113.648  0.00  0.00     0.038 C 
ATOM      4  C   LIG d   1      -0.989  77.616 113.355  0.00  0.00     0.028 C 
ATOM      5  C   LIG d   1      -0.204  77.187 114.589  0.00  0.00    -0.047 C 
ATOM      6  C   LIG d   1      -1.188  76.617 115.636  0.00  0.00     0.091 C 
ENDROOT
BRANCH   1   7
ATOM      7  O   LIG d   1      -3.425  76.949 116.579  0.00  0.00    -0.368 OA
BRANCH   7   8
ATOM      8  C   LIG d   1      -4.596  76.782 115.742  0.00  0.00     0.119 C 
BRANCH   8   9
ATOM      9  C   LIG d   1      -5.832  77.101 116.606  0.00  0.00     0.028 C 
ATOM     10  C   LIG d   1      -5.803  78.533 117.165  0.00  0.00     0.006 C 
ENDBRANCH   8   9
BRANCH   8  11
ATOM     11  C   LIG d   1      -4.769  75.323 115.310  0.00  0.00     0.028 C 
ATOM     12  C   LIG d   1      -6.244  74.919 115.151  0.00  0.00     0.006 C 
ENDBRANCH   8  11
ENDBRANCH   7   8
ENDBRANCH   1   7
BRANCH   6  13
ATOM     13  N   LIG d   1      -0.512  76.250 116.908  0.00  0.00    -0.311 N 
ATOM     14  C   LIG d   1      -0.600  75.043 117.464  0.00  0.00     0.210 C 
ATOM     15  C   LIG d   1       0.157  74.882 118.785  0.00  0.00     0.109 C 
ATOM     16  O   LIG d   1      -1.208  74.080 116.971  0.00  0.00    -0.276 OA
ATOM     17  H   LIG d   1       0.028  76.962 117.360  0.00  0.00     0.149 HD
ENDBRANCH   6  13
BRANCH   5  18
ATOM     18  N   LIG d   1       0.809  76.207 114.154  0.00  0.00     0.381 N 
ATOM     19  H   LIG d   1       0.557  75.294 114.477  0.00  0.00    -0.090 HD
ATOM     20  H   LIG d   1       1.694  76.452 114.560  0.00  0.00    -0.090 HD
ATOM     21  H   LIG d   1       0.879  76.207 113.160  0.00  0.00    -0.090 HD
ENDBRANCH   5  18
BRANCH   3  22
ATOM     22  C   LIG d   1      -2.460  79.390 112.698  0.00  0.00     0.382 C 
ATOM     23  O   LIG d   1      -1.973  79.347 111.543  0.00  0.00    -0.241 OA
ATOM     24  O   LIG d   1      -3.256  80.301 112.995  0.00  0.00    -0.241 OA
ENDBRANCH   3  22
TORSDOF 7
ENDMDL
MODEL 2
REMARK VINA RESULT:      -5.3      7.664     10.295
REMARK  7 active torsions:
REMARK  status: ('A' for Active; 'I' for Inactive)
REMARK    1  A    between atoms: C_2  and  C_3 
REMARK    2  A    between atoms: C_3  and  O_6 
REMARK    3  A    between atoms: C_3  and  C_4 
REMARK    4  A    between atoms: C_7  and  O_6 
REMARK    5  A    between atoms: C_9  and  C_10 
REMARK    6  A    between atoms: N_15  and  C_14 
REMARK    7  A    between atoms: N_20  and  C_19 
REMARK       I    between atoms: C_22  and  N_20 
ROOT
ATOM      1  C   LIG d   1       2.225  84.396 113.754  0.00  0.00     0.161 C 
ATOM      2  C   LIG d   1       1.354  83.413 113.255  0.00  0.00     0.016 C 
ATOM      3  C   LIG d   1       0.409  83.657 112.232  0.00  0.00     0.038 C 
ATOM      4  C   LIG d   1       0.375  84.870 111.529  0.00  0.00     0.028 C 
ATOM      5  C   LIG d   1       0.893  86.054 112.338  0.00  0.00    -0.047 C 
ATOM      6  C   LIG d   1       2.278  85.695 112.922  0.00  0.00     0.091 C 
ENDROOT
BRANCH   1   7
ATOM      7  O   LIG d   1       3.548  83.845 113.907  0.00  0.00    -0.368 OA
BRANCH   7   8
ATOM      8  C   LIG d   1       3.700  82.447 113.557  0.00  0.00     0.119 C 
BRANCH   8   9
ATOM      9  C   LIG d   1       4.283  81.723 114.786  0.00  0.00     0.028 C 
ATOM     10  C   LIG d   1       3.242  81.531 115.902  0.00  0.00     0.006 C 
ENDBRANCH   8   9
BRANCH   8  11
ATOM     11  C   LIG d   1       4.739  82.261 112.447  0.00  0.00     0.028 C 
ATOM     12  C   LIG d   1       4.194  82.619 111.055  0.00  0.00     0.006 C 
ENDBRANCH   8  11
ENDBRANCH   7   8
ENDBRANCH   1   7
BRANCH   6  13
ATOM     13  N   LIG d   1       2.819  86.767 113.797  0.00  0.00    -0.311 N 
ATOM     14  C   LIG d   1       3.635  87.726 113.363  0.00  0.00     0.210 C 
ATOM     15  C   LIG d   1       4.092  88.721 114.434  0.00  0.00     0.109 C 
ATOM     16  O   LIG d   1       3.997  87.866 112.185  0.00  0.00    -0.276 OA
ATOM     17  H   LIG d   1       2.551  86.748 114.762  0.00  0.00     0.149 HD
ENDBRANCH   6  13
BRANCH   5  18
ATOM     18  N   LIG d   1       0.930  87.224 111.441  0.00  0.00     0.381 N 
ATOM     19  H   LIG d   1       1.505  87.025 110.647  0.00  0.00    -0.090 HD
ATOM     20  H   LIG d   1       1.334  88.000 111.935  0.00  0.00    -0.090 HD
ATOM     21  H   LIG d   1       0.008  87.455 111.142  0.00  0.00    -0.090 HD
ENDBRANCH   5  18
BRANCH   3  22
ATOM     22  C   LIG d   1      -0.541  82.693 111.931  0.00  0.00     0.382 C 
ATOM     23  O   LIG d   1      -1.624  82.662 112.563  0.00  0.00    -0.241 OA
ATOM     24  O   LIG d   1      -0.311  81.828 111.065  0.00  0.00    -0.241 OA
ENDBRANCH   3  22
TORSDOF 7
ENDMDL
MODEL 3
REMARK VINA RESULT:      -5.2     22.167     24.639
REMARK  7 active torsions:
REMARK  status: ('A' for Active; 'I' for Inactive)
REMARK    1  A    between atoms: C_2  and  C_3 
REMARK    2  A    between atoms: C_3  and  O_6 
REMARK    3  A    between atoms: C_3  and  C_4 
REMARK    4  A    between atoms: C_7  and  O_6 
REMARK    5  A    between atoms: C_9  and  C_10 
REMARK    6  A    between atoms: N_15  and  C_14 
REMARK    7  A    between atoms: N_20  and  C_19 
REMARK       I    between atoms: C_22  and  N_20 
ROOT
ATOM      1  C   LIG d   1     -25.653  85.307 113.938  0.00  0.00     0.161 C 
ATOM      2  C   LIG d   1     -24.667  86.308 113.948  0.00  0.00     0.016 C 
ATOM      3  C   LIG d   1     -23.346  86.104 113.488  0.00  0.00     0.038 C 
ATOM      4  C   LIG d   1     -22.960  84.919 112.843  0.00  0.00     0.028 C 
ATOM      5  C   LIG d   1     -23.779  83.704 113.267  0.00  0.00    -0.047 C 
ATOM      6  C   LIG d   1     -25.282  84.042 113.137  0.00  0.00     0.091 C 
ENDROOT
BRANCH   1   7
ATOM      7  O   LIG d   1     -26.899  85.853 113.465  0.00  0.00    -0.368 OA
BRANCH   7   8
ATOM      8  C   LIG d   1     -26.805  86.807 112.378  0.00  0.00     0.119 C 
BRANCH   8   9
ATOM      9  C   LIG d   1     -27.556  88.080 112.812  0.00  0.00     0.028 C 
ATOM     10  C   LIG d   1     -27.215  89.293 111.930  0.00  0.00     0.006 C 
ENDBRANCH   8   9
BRANCH   8  11
ATOM     11  C   LIG d   1     -27.543  86.306 111.132  0.00  0.00     0.028 C 
ATOM     12  C   LIG d   1     -28.592  85.230 111.453  0.00  0.00     0.006 C 
ENDBRANCH   8  11
ENDBRANCH   7   8
ENDBRANCH   1   7
BRANCH   6  13
ATOM     13  N   LIG d   1     -26.155  82.937 113.612  0.00  0.00    -0.311 N 
ATOM     14  C   LIG d   1     -26.590  81.956 112.823  0.00  0.00     0.210 C 
ATOM     15  C   LIG d   1     -27.495  80.928 113.509  0.00  0.00     0.109 C 
ATOM     16  O   LIG d   1     -26.286  81.821 111.628  0.00  0.00    -0.276 OA
ATOM     17  H   LIG d   1     -26.424  82.951 114.576  0.00  0.00     0.149 HD
ENDBRANCH   6  13
BRANCH   5  18
ATOM     18  N   LIG d   1     -23.366  82.570 112.420  0.00  0.00     0.381 N 
ATOM     19  H   LIG d   1     -22.530  82.805 111.922  0.00  0.00    -0.090 HD
ATOM     20  H   LIG d   1     -24.090  82.384 111.749  0.00  0.00    -0.090 HD
ATOM     21  H   LIG d   1     -23.209  81.763 112.983  0.00  0.00    -0.090 HD
ENDBRANCH   5  18
BRANCH   3  22
ATOM     22  C   LIG d   1     -22.383  87.077 113.707  0.00  0.00     0.382 C 
ATOM     23  O   LIG d   1     -22.579  87.969 114.568  0.00  0.00    -0.241 OA
ATOM     24  O   LIG d   1     -21.341  87.100 113.025  0.00  0.00    -0.241 OA
ENDBRANCH   3  22
TORSDOF 7
ENDMDL
MODEL 4
REMARK VINA RESULT:      -5.2      8.578     11.013
REMARK  7 active torsions:
REMARK  status: ('A' for Active; 'I' for Inactive)
REMARK    1  A    between atoms: C_2  and  C_3 
REMARK    2  A    between atoms: C_3  and  O_6 
REMARK    3  A    between atoms: C_3  and  C_4 
REMARK    4  A    between atoms: C_7  and  O_6 
REMARK    5  A    between atoms: C_9  and  C_10 
REMARK    6  A    between atoms: N_15  and  C_14 
REMARK    7  A    between atoms: N_20  and  C_19 
REMARK       I    between atoms: C_22  and  N_20 
ROOT
ATOM      1  C   LIG d   1       3.156  85.134 112.857  0.00  0.00     0.161 C 
ATOM      2  C   LIG d   1       3.923  86.277 113.136  0.00  0.00     0.016 C 
ATOM      3  C   LIG d   1       3.484  87.594 112.870  0.00  0.00     0.038 C 
ATOM      4  C   LIG d   1       2.176  87.867 112.443  0.00  0.00     0.028 C 
ATOM      5  C   LIG d   1       1.539  86.717 111.669  0.00  0.00    -0.047 C 
ATOM      6  C   LIG d   1       1.683  85.418 112.494  0.00  0.00     0.091 C 
ENDROOT
BRANCH   1   7
ATOM      7  O   LIG d   1       3.231  84.213 113.962  0.00  0.00    -0.368 OA
BRANCH   7   8
ATOM      8  C   LIG d   1       3.580  82.846 113.631  0.00  0.00     0.119 C 
BRANCH   8   9
ATOM      9  C   LIG d   1       4.017  82.151 114.934  0.00  0.00     0.028 C 
ATOM     10  C   LIG d   1       4.511  83.149 115.995  0.00  0.00     0.006 C 
ENDBRANCH   8   9
BRANCH   8  11
ATOM     11  C   LIG d   1       4.803  82.791 112.711  0.00  0.00     0.028 C 
ATOM     12  C   LIG d   1       4.484  82.200 111.329  0.00  0.00     0.006 C 
ENDBRANCH   8  11
ENDBRANCH   7   8
ENDBRANCH   1   7
BRANCH   6  13
ATOM     13  N   LIG d   1       1.161  84.228 111.772  0.00  0.00    -0.311 N 
ATOM     14  C   LIG d   1      -0.098  83.804 111.872  0.00  0.00     0.210 C 
ATOM     15  C   LIG d   1      -0.423  82.546 111.060  0.00  0.00     0.109 C 
ATOM     16  O   LIG d   1      -0.984  84.368 112.531  0.00  0.00    -0.276 OA
ATOM     17  H   LIG d   1       1.805  83.728 111.190  0.00  0.00     0.149 HD
ENDBRANCH   6  13
BRANCH   5  18
ATOM     18  N   LIG d   1       0.134  87.082 111.405  0.00  0.00     0.381 N 
ATOM     19  H   LIG d   1      -0.433  86.257 111.391  0.00  0.00    -0.090 HD
ATOM     20  H   LIG d   1       0.076  87.520 110.503  0.00  0.00    -0.090 HD
ATOM     21  H   LIG d   1      -0.194  87.707 112.108  0.00  0.00    -0.090 HD
ENDBRANCH   5  18
BRANCH   3  22
ATOM     22  C   LIG d   1       4.370  88.653 112.993  0.00  0.00     0.382 C 
ATOM     23  O   LIG d   1       5.371  88.724 112.240  0.00  0.00    -0.241 OA
ATOM     24  O   LIG d   1       4.207  89.514 113.878  0.00  0.00    -0.241 OA
ENDBRANCH   3  22
TORSDOF 7
ENDMDL
MODEL 5
REMARK VINA RESULT:      -5.0      9.122     11.130
REMARK  7 active torsions:
REMARK  status: ('A' for Active; 'I' for Inactive)
REMARK    1  A    between atoms: C_2  and  C_3 
REMARK    2  A    between atoms: C_3  and  O_6 
REMARK    3  A    between atoms: C_3  and  C_4 
REMARK    4  A    between atoms: C_7  and  O_6 
REMARK    5  A    between atoms: C_9  and  C_10 
REMARK    6  A    between atoms: N_15  and  C_14 
REMARK    7  A    between atoms: N_20  and  C_19 
REMARK       I    between atoms: C_22  and  N_20 
ROOT
ATOM      1  C   LIG d   1       2.489  85.606 114.376  0.00  0.00     0.161 C 
ATOM      2  C   LIG d   1       3.366  86.685 114.574  0.00  0.00     0.016 C 
ATOM      3  C   LIG d   1       3.468  87.778 113.683  0.00  0.00     0.038 C 
ATOM      4  C   LIG d   1       2.584  87.942 112.606  0.00  0.00     0.028 C 
ATOM      5  C   LIG d   1       2.018  86.627 112.082  0.00  0.00    -0.047 C 
ATOM      6  C   LIG d   1       1.438  85.821 113.267  0.00  0.00     0.091 C 
ENDROOT
BRANCH   1   7
ATOM      7  O   LIG d   1       1.842  85.268 115.620  0.00  0.00    -0.368 OA
BRANCH   7   8
ATOM      8  C   LIG d   1       1.688  86.349 116.572  0.00  0.00     0.119 C 
BRANCH   8   9
ATOM      9  C   LIG d   1       2.039  85.792 117.965  0.00  0.00     0.028 C 
ATOM     10  C   LIG d   1       3.387  85.050 117.978  0.00  0.00     0.006 C 
ENDBRANCH   8   9
BRANCH   8  11
ATOM     11  C   LIG d   1       0.228  86.801 116.672  0.00  0.00     0.028 C 
ATOM     12  C   LIG d   1      -0.320  86.731 118.106  0.00  0.00     0.006 C 
ENDBRANCH   8  11
ENDBRANCH   7   8
ENDBRANCH   1   7
BRANCH   6  13
ATOM     13  N   LIG d   1       0.940  84.483 112.853  0.00  0.00    -0.311 N 
ATOM     14  C   LIG d   1      -0.309  84.259 112.449  0.00  0.00     0.210 C 
ATOM     15  C   LIG d   1      -0.620  82.803 112.087  0.00  0.00     0.109 C 
ATOM     16  O   LIG d   1      -1.180  85.133 112.325  0.00  0.00    -0.276 OA
ATOM     17  H   LIG d   1       1.590  83.723 112.893  0.00  0.00     0.149 HD
ENDBRANCH   6  13
BRANCH   5  18
ATOM     18  N   LIG d   1       1.010  86.953 111.055  0.00  0.00     0.381 N 
ATOM     19  H   LIG d   1       1.452  87.395 110.274  0.00  0.00    -0.090 HD
ATOM     20  H   LIG d   1       0.344  87.596 111.447  0.00  0.00    -0.090 HD
ATOM     21  H   LIG d   1       0.546  86.123 110.758  0.00  0.00    -0.090 HD
ENDBRANCH   5  18
BRANCH   3  22
ATOM     22  C   LIG d   1       4.489  88.703 113.844  0.00  0.00     0.382 C 
ATOM     23  O   LIG d   1       5.208  88.670 114.871  0.00  0.00    -0.241 OA
ATOM     24  O   LIG d   1       4.671  89.597 112.996  0.00  0.00    -0.241 OA
ENDBRANCH   3  22
TORSDOF 7
ENDMDL
MODEL 6
REMARK VINA RESULT:      -5.0      9.736     11.612
REMARK  7 active torsions:
REMARK  status: ('A' for Active; 'I' for Inactive)
REMARK    1  A    between atoms: C_2  and  C_3 
REMARK    2  A    between atoms: C_3  and  O_6 
REMARK    3  A    between atoms: C_3  and  C_4 
REMARK    4  A    between atoms: C_7  and  O_6 
REMARK    5  A    between atoms: C_9  and  C_10 
REMARK    6  A    between atoms: N_15  and  C_14 
REMARK    7  A    between atoms: N_20  and  C_19 
REMARK       I    between atoms: C_22  and  N_20 
ROOT
ATOM      1  C   LIG d   1       2.967  86.300 114.427  0.00  0.00     0.161 C 
ATOM      2  C   LIG d   1       3.305  87.650 114.234  0.00  0.00     0.016 C 
ATOM      3  C   LIG d   1       4.418  88.269 114.849  0.00  0.00     0.038 C 
ATOM      4  C   LIG d   1       5.362  87.536 115.583  0.00  0.00     0.028 C 
ATOM      5  C   LIG d   1       4.787  86.275 116.220  0.00  0.00    -0.047 C 
ATOM      6  C   LIG d   1       4.048  85.458 115.136  0.00  0.00     0.091 C 
ENDROOT
BRANCH   1   7
ATOM      7  O   LIG d   1       2.612  85.701 113.165  0.00  0.00    -0.368 OA
BRANCH   7   8
ATOM      8  C   LIG d   1       3.003  86.435 111.978  0.00  0.00     0.119 C 
BRANCH   8   9
ATOM      9  C   LIG d   1       1.771  86.510 111.055  0.00  0.00     0.028 C 
ATOM     10  C   LIG d   1       0.448  86.426 111.834  0.00  0.00     0.006 C 
ENDBRANCH   8   9
BRANCH   8  11
ATOM     11  C   LIG d   1       4.064  85.675 111.177  0.00  0.00     0.028 C 
ATOM     12  C   LIG d   1       3.757  84.174 111.055  0.00  0.00     0.006 C 
ENDBRANCH   8  11
ENDBRANCH   7   8
ENDBRANCH   1   7
BRANCH   6  13
ATOM     13  N   LIG d   1       3.384  84.250 115.691  0.00  0.00    -0.311 N 
ATOM     14  C   LIG d   1       3.636  83.013 115.265  0.00  0.00     0.210 C 
ATOM     15  C   LIG d   1       2.827  81.913 115.959  0.00  0.00     0.109 C 
ATOM     16  O   LIG d   1       4.476  82.721 114.401  0.00  0.00    -0.276 OA
ATOM     17  H   LIG d   1       2.711  84.393 116.418  0.00  0.00     0.149 HD
ENDBRANCH   6  13
BRANCH   5  18
ATOM     18  N   LIG d   1       5.906  85.538 116.837  0.00  0.00     0.381 N 
ATOM     19  H   LIG d   1       5.561  84.713 117.287  0.00  0.00    -0.090 HD
ATOM     20  H   LIG d   1       6.334  86.121 117.534  0.00  0.00    -0.090 HD
ATOM     21  H   LIG d   1       6.576  85.291 116.143  0.00  0.00    -0.090 HD
ENDBRANCH   5  18
BRANCH   3  22
ATOM     22  C   LIG d   1       4.573  89.644 114.764  0.00  0.00     0.382 C 
ATOM     23  O   LIG d   1       4.420  90.357 115.785  0.00  0.00    -0.241 OA
ATOM     24  O   LIG d   1       4.822  90.186 113.670  0.00  0.00    -0.241 OA
ENDBRANCH   3  22
TORSDOF 7
ENDMDL
MODEL 7
REMARK VINA RESULT:      -5.0      8.740     10.873
REMARK  7 active torsions:
REMARK  status: ('A' for Active; 'I' for Inactive)
REMARK    1  A    between atoms: C_2  and  C_3 
REMARK    2  A    between atoms: C_3  and  O_6 
REMARK    3  A    between atoms: C_3  and  C_4 
REMARK    4  A    between atoms: C_7  and  O_6 
REMARK    5  A    between atoms: C_9  and  C_10 
REMARK    6  A    between atoms: N_15  and  C_14 
REMARK    7  A    between atoms: N_20  and  C_19 
REMARK       I    between atoms: C_22  and  N_20 
ROOT
ATOM      1  C   LIG d   1       2.986  85.599 114.059  0.00  0.00     0.161 C 
ATOM      2  C   LIG d   1       3.778  86.757 114.139  0.00  0.00     0.016 C 
ATOM      3  C   LIG d   1       3.623  87.866 113.277  0.00  0.00     0.038 C 
ATOM      4  C   LIG d   1       2.559  87.956 112.367  0.00  0.00     0.028 C 
ATOM      5  C   LIG d   1       2.042  86.597 111.905  0.00  0.00    -0.047 C 
ATOM      6  C   LIG d   1       1.749  85.723 113.146  0.00  0.00     0.091 C 
ENDROOT
BRANCH   1   7
ATOM      7  O   LIG d   1       2.593  85.183 115.382  0.00  0.00    -0.368 OA
BRANCH   7   8
ATOM      8  C   LIG d   1       3.454  84.212 116.027  0.00  0.00     0.119 C 
BRANCH   8   9
ATOM      9  C   LIG d   1       3.977  83.259 114.934  0.00  0.00     0.028 C 
ATOM     10  C   LIG d   1       3.230  81.915 114.920  0.00  0.00     0.006 C 
ENDBRANCH   8   9
BRANCH   8  11
ATOM     11  C   LIG d   1       2.665  83.324 116.995  0.00  0.00     0.028 C 
ATOM     12  C   LIG d   1       1.437  84.034 117.587  0.00  0.00     0.006 C 
ENDBRANCH   8  11
ENDBRANCH   7   8
ENDBRANCH   1   7
BRANCH   6  13
ATOM     13  N   LIG d   1       1.318  84.348 112.782  0.00  0.00    -0.311 N 
ATOM     14  C   LIG d   1       0.044  83.999 112.615  0.00  0.00     0.210 C 
ATOM     15  C   LIG d   1      -0.182  82.526 112.261  0.00  0.00     0.109 C 
ATOM     16  O   LIG d   1      -0.919  84.777 112.694  0.00  0.00    -0.276 OA
ATOM     17  H   LIG d   1       2.037  83.661 112.667  0.00  0.00     0.149 HD
ENDBRANCH   6  13
BRANCH   5  18
ATOM     18  N   LIG d   1       0.848  86.835 111.071  0.00  0.00     0.381 N 
ATOM     19  H   LIG d   1       0.988  86.445 110.161  0.00  0.00    -0.090 HD
ATOM     20  H   LIG d   1       0.713  87.826 110.972  0.00  0.00    -0.090 HD
ATOM     21  H   LIG d   1       0.047  86.424 111.497  0.00  0.00    -0.090 HD
ENDBRANCH   5  18
BRANCH   3  22
ATOM     22  C   LIG d   1       4.563  88.885 113.293  0.00  0.00     0.382 C 
ATOM     23  O   LIG d   1       5.468  88.917 112.424  0.00  0.00    -0.241 OA
ATOM     24  O   LIG d   1       4.545  89.748 114.191  0.00  0.00    -0.241 OA
ENDBRANCH   3  22
TORSDOF 7
ENDMDL
MODEL 8
REMARK VINA RESULT:      -4.8      2.246      4.701
REMARK  7 active torsions:
REMARK  status: ('A' for Active; 'I' for Inactive)
REMARK    1  A    between atoms: C_2  and  C_3 
REMARK    2  A    between atoms: C_3  and  O_6 
REMARK    3  A    between atoms: C_3  and  C_4 
REMARK    4  A    between atoms: C_7  and  O_6 
REMARK    5  A    between atoms: C_9  and  C_10 
REMARK    6  A    between atoms: N_15  and  C_14 
REMARK    7  A    between atoms: N_20  and  C_19 
REMARK       I    between atoms: C_22  and  N_20 
ROOT
ATOM      1  C   LIG d   1      -3.229  75.698 115.664  0.00  0.00     0.161 C 
ATOM      2  C   LIG d   1      -4.587  75.806 115.324  0.00  0.00     0.016 C 
ATOM      3  C   LIG d   1      -5.530  76.518 116.100  0.00  0.00     0.038 C 
ATOM      4  C   LIG d   1      -5.145  77.303 117.198  0.00  0.00     0.028 C 
ATOM      5  C   LIG d   1      -3.867  76.816 117.872  0.00  0.00    -0.047 C 
ATOM      6  C   LIG d   1      -2.769  76.639 116.797  0.00  0.00     0.091 C 
ENDROOT
BRANCH   1   7
ATOM      7  O   LIG d   1      -2.414  75.892 114.491  0.00  0.00    -0.368 OA
BRANCH   7   8
ATOM      8  C   LIG d   1      -2.119  77.266 114.140  0.00  0.00     0.119 C 
BRANCH   8   9
ATOM      9  C   LIG d   1      -2.756  77.539 112.764  0.00  0.00     0.028 C 
ATOM     10  C   LIG d   1      -2.355  78.909 112.192  0.00  0.00     0.006 C 
ENDBRANCH   8   9
BRANCH   8  11
ATOM     11  C   LIG d   1      -0.615  77.479 113.939  0.00  0.00     0.028 C 
ATOM     12  C   LIG d   1       0.189  76.172 114.026  0.00  0.00     0.006 C 
ENDBRANCH   8  11
ENDBRANCH   7   8
ENDBRANCH   1   7
BRANCH   6  13
ATOM     13  N   LIG d   1      -1.510  76.085 117.359  0.00  0.00    -0.311 N 
ATOM     14  C   LIG d   1      -0.464  76.838 117.698  0.00  0.00     0.210 C 
ATOM     15  C   LIG d   1       0.741  76.064 118.240  0.00  0.00     0.109 C 
ATOM     16  O   LIG d   1      -0.433  78.076 117.631  0.00  0.00    -0.276 OA
ATOM     17  H   LIG d   1      -1.461  75.092 117.476  0.00  0.00     0.149 HD
ENDBRANCH   6  13
BRANCH   5  18
ATOM     18  N   LIG d   1      -3.507  77.801 118.909  0.00  0.00     0.381 N 
ATOM     19  H   LIG d   1      -4.149  77.737 119.674  0.00  0.00    -0.090 HD
ATOM     20  H   LIG d   1      -3.573  78.724 118.518  0.00  0.00    -0.090 HD
ATOM     21  H   LIG d   1      -2.578  77.634 119.230  0.00  0.00    -0.090 HD
ENDBRANCH   5  18
BRANCH   3  22
ATOM     22  C   LIG d   1      -6.881  76.417 115.804  0.00  0.00     0.382 C 
ATOM     23  O   LIG d   1      -7.257  76.353 114.609  0.00  0.00    -0.241 OA
ATOM     24  O   LIG d   1      -7.730  76.435 116.715  0.00  0.00    -0.241 OA
ENDBRANCH   3  22
TORSDOF 7
ENDMDL
MODEL 9
REMARK VINA RESULT:      -4.8     12.215     14.064
REMARK  7 active torsions:
REMARK  status: ('A' for Active; 'I' for Inactive)
REMARK    1  A    between atoms: C_2  and  C_3 
REMARK    2  A    between atoms: C_3  and  O_6 
REMARK    3  A    between atoms: C_3  and  C_4 
REMARK    4  A    between atoms: C_7  and  O_6 
REMARK    5  A    between atoms: C_9  and  C_10 
REMARK    6  A    between atoms: N_15  and  C_14 
REMARK    7  A    between atoms: N_20  and  C_19 
REMARK       I    between atoms: C_22  and  N_20 
ROOT
ATOM      1  C   LIG d   1      11.804  78.316 115.790  0.00  0.00     0.161 C 
ATOM      2  C   LIG d   1      12.124  79.682 115.718  0.00  0.00     0.016 C 
ATOM      3  C   LIG d   1      12.741  80.278 114.594  0.00  0.00     0.038 C 
ATOM      4  C   LIG d   1      12.945  79.573 113.399  0.00  0.00     0.028 C 
ATOM      5  C   LIG d   1      13.100  78.070 113.601  0.00  0.00    -0.047 C 
ATOM      6  C   LIG d   1      11.918  77.554 114.453  0.00  0.00     0.091 C 
ENDROOT
BRANCH   1   7
ATOM      7  O   LIG d   1      10.487  78.152 116.350  0.00  0.00    -0.368 OA
BRANCH   7   8
ATOM      8  C   LIG d   1       9.492  79.119 115.934  0.00  0.00     0.119 C 
BRANCH   8   9
ATOM      9  C   LIG d   1       8.737  79.579 117.196  0.00  0.00     0.028 C 
ATOM     10  C   LIG d   1       9.124  81.005 117.624  0.00  0.00     0.006 C 
ENDBRANCH   8   9
BRANCH   8  11
ATOM     11  C   LIG d   1       8.429  78.475 115.038  0.00  0.00     0.028 C 
ATOM     12  C   LIG d   1       7.006  78.954 115.365  0.00  0.00     0.006 C 
ENDBRANCH   8  11
ENDBRANCH   7   8
ENDBRANCH   1   7
BRANCH   6  13
ATOM     13  N   LIG d   1      12.036  76.106 114.770  0.00  0.00    -0.311 N 
ATOM     14  C   LIG d   1      11.075  75.220 114.518  0.00  0.00     0.210 C 
ATOM     15  C   LIG d   1      11.394  73.783 114.941  0.00  0.00     0.109 C 
ATOM     16  O   LIG d   1      10.001  75.482 113.955  0.00  0.00    -0.276 OA
ATOM     17  H   LIG d   1      12.888  75.802 115.200  0.00  0.00     0.149 HD
ENDBRANCH   6  13
BRANCH   5  18
ATOM     18  N   LIG d   1      13.168  77.445 112.267  0.00  0.00     0.381 N 
ATOM     19  H   LIG d   1      14.122  77.272 112.022  0.00  0.00    -0.090 HD
ATOM     20  H   LIG d   1      12.778  78.078 111.591  0.00  0.00    -0.090 HD
ATOM     21  H   LIG d   1      12.656  76.590 112.265  0.00  0.00    -0.090 HD
ENDBRANCH   5  18
BRANCH   3  22
ATOM     22  C   LIG d   1      13.198  81.585 114.674  0.00  0.00     0.382 C 
ATOM     23  O   LIG d   1      14.010  82.019 113.821  0.00  0.00    -0.241 OA
ATOM     24  O   LIG d   1      12.844  82.322 115.614  0.00  0.00    -0.241 OA
ENDBRANCH   3  22
TORSDOF 7
ENDMDL
