MODEL 1
REMARK VINA RESULT:      -5.2      0.000      0.000
REMARK  7 active torsions:
REMARK  status: ('A' for Active; 'I' for Inactive)
REMARK    1  A    between atoms: C_2  and  C_3 
REMARK    2  A    between atoms: C_3  and  O_6 
REMARK    3  A    between atoms: C_3  and  C_4 
REMARK    4  A    between atoms: C_7  and  O_6 
REMARK    5  A    between atoms: C_9  and  C_10 
REMARK    6  A    between atoms: N_15  and  C_14 
REMARK    7  A    between atoms: N_20  and  C_19 
REMARK       I    between atoms: C_22  and  N_20 
ROOT
ATOM      1  C   LIG d   1      -3.880  90.839 116.968  0.00  0.00     0.161 C 
ATOM      2  C   LIG d   1      -4.896  90.134 116.302  0.00  0.00     0.016 C 
ATOM      3  C   LIG d   1      -6.168  90.684 116.019  0.00  0.00     0.038 C 
ATOM      4  C   LIG d   1      -6.459  92.036 116.251  0.00  0.00     0.028 C 
ATOM      5  C   LIG d   1      -5.636  92.648 117.380  0.00  0.00    -0.047 C 
ATOM      6  C   LIG d   1      -4.140  92.351 117.129  0.00  0.00     0.091 C 
ENDROOT
BRANCH   1   7
ATOM      7  O   LIG d   1      -2.618  90.615 116.308  0.00  0.00    -0.368 OA
BRANCH   7   8
ATOM      8  C   LIG d   1      -1.643  89.836 117.044  0.00  0.00     0.119 C 
BRANCH   8   9
ATOM      9  C   LIG d   1      -0.244  90.284 116.578  0.00  0.00     0.028 C 
ATOM     10  C   LIG d   1       0.530  91.029 117.678  0.00  0.00     0.006 C 
ENDBRANCH   8   9
BRANCH   8  11
ATOM     11  C   LIG d   1      -1.733  88.349 116.686  0.00  0.00     0.028 C 
ATOM     12  C   LIG d   1      -0.366  87.647 116.714  0.00  0.00     0.006 C 
ENDBRANCH   8  11
ENDBRANCH   7   8
ENDBRANCH   1   7
BRANCH   6  13
ATOM     13  N   LIG d   1      -3.272  92.842 118.231  0.00  0.00    -0.311 N 
ATOM     14  C   LIG d   1      -2.154  93.538 118.029  0.00  0.00     0.210 C 
ATOM     15  C   LIG d   1      -1.398  93.929 119.302  0.00  0.00     0.109 C 
ATOM     16  O   LIG d   1      -1.735  93.896 116.918  0.00  0.00    -0.276 OA
ATOM     17  H   LIG d   1      -3.554  92.623 119.166  0.00  0.00     0.149 HD
ENDBRANCH   6  13
BRANCH   5  18
ATOM     18  N   LIG d   1      -5.940  94.091 117.422  0.00  0.00     0.381 N 
ATOM     19  H   LIG d   1      -5.167  94.610 117.058  0.00  0.00    -0.090 HD
ATOM     20  H   LIG d   1      -6.082  94.365 118.378  0.00  0.00    -0.090 HD
ATOM     21  H   LIG d   1      -6.759  94.282 116.889  0.00  0.00    -0.090 HD
ENDBRANCH   5  18
BRANCH   3  22
ATOM     22  C   LIG d   1      -7.178  89.866 115.535  0.00  0.00     0.382 C 
ATOM     23  O   LIG d   1      -7.359  89.760 114.298  0.00  0.00    -0.241 OA
ATOM     24  O   LIG d   1      -7.938  89.269 116.320  0.00  0.00    -0.241 OA
ENDBRANCH   3  22
TORSDOF 7
ENDMDL
MODEL 2
REMARK VINA RESULT:      -5.2      6.008      8.126
REMARK  7 active torsions:
REMARK  status: ('A' for Active; 'I' for Inactive)
REMARK    1  A    between atoms: C_2  and  C_3 
REMARK    2  A    between atoms: C_3  and  O_6 
REMARK    3  A    between atoms: C_3  and  C_4 
REMARK    4  A    between atoms: C_7  and  O_6 
REMARK    5  A    between atoms: C_9  and  C_10 
REMARK    6  A    between atoms: N_15  and  C_14 
REMARK    7  A    between atoms: N_20  and  C_19 
REMARK       I    between atoms: C_22  and  N_20 
ROOT
ATOM      1  C   LIG d   1       2.351  87.430 114.523  0.00  0.00     0.161 C 
ATOM      2  C   LIG d   1       1.185  87.101 115.234  0.00  0.00     0.016 C 
ATOM      3  C   LIG d   1       0.793  87.750 116.428  0.00  0.00     0.038 C 
ATOM      4  C   LIG d   1       1.466  88.881 116.912  0.00  0.00     0.028 C 
ATOM      5  C   LIG d   1       2.934  88.934 116.504  0.00  0.00    -0.047 C 
ATOM      6  C   LIG d   1       3.038  88.736 114.975  0.00  0.00     0.091 C 
ENDROOT
BRANCH   1   7
ATOM      7  O   LIG d   1       2.064  87.478 113.111  0.00  0.00    -0.368 OA
BRANCH   7   8
ATOM      8  C   LIG d   1       1.659  86.228 112.500  0.00  0.00     0.119 C 
BRANCH   8   9
ATOM      9  C   LIG d   1       2.939  85.498 112.049  0.00  0.00     0.028 C 
ATOM     10  C   LIG d   1       3.951  86.445 111.382  0.00  0.00     0.006 C 
ENDBRANCH   8   9
BRANCH   8  11
ATOM     11  C   LIG d   1       0.857  86.469 111.218  0.00  0.00     0.028 C 
ATOM     12  C   LIG d   1      -0.634  86.128 111.375  0.00  0.00     0.006 C 
ENDBRANCH   8  11
ENDBRANCH   7   8
ENDBRANCH   1   7
BRANCH   6  13
ATOM     13  N   LIG d   1       4.446  88.689 114.503  0.00  0.00    -0.311 N 
ATOM     14  C   LIG d   1       4.910  89.438 113.505  0.00  0.00     0.210 C 
ATOM     15  C   LIG d   1       6.388  89.220 113.165  0.00  0.00     0.109 C 
ATOM     16  O   LIG d   1       4.247  90.286 112.889  0.00  0.00    -0.276 OA
ATOM     17  H   LIG d   1       5.062  88.051 114.968  0.00  0.00     0.149 HD
ENDBRANCH   6  13
BRANCH   5  18
ATOM     18  N   LIG d   1       3.477  90.228 116.958  0.00  0.00     0.381 N 
ATOM     19  H   LIG d   1       3.620  90.830 116.171  0.00  0.00    -0.090 HD
ATOM     20  H   LIG d   1       4.365  90.071 117.400  0.00  0.00    -0.090 HD
ATOM     21  H   LIG d   1       2.848  90.655 117.602  0.00  0.00    -0.090 HD
ENDBRANCH   5  18
BRANCH   3  22
ATOM     22  C   LIG d   1      -0.261  87.241 117.172  0.00  0.00     0.382 C 
ATOM     23  O   LIG d   1      -1.351  87.861 117.219  0.00  0.00    -0.241 OA
ATOM     24  O   LIG d   1      -0.121  86.195 117.832  0.00  0.00    -0.241 OA
ENDBRANCH   3  22
TORSDOF 7
ENDMDL
MODEL 3
REMARK VINA RESULT:      -5.1      9.640     11.269
REMARK  7 active torsions:
REMARK  status: ('A' for Active; 'I' for Inactive)
REMARK    1  A    between atoms: C_2  and  C_3 
REMARK    2  A    between atoms: C_3  and  O_6 
REMARK    3  A    between atoms: C_3  and  C_4 
REMARK    4  A    between atoms: C_7  and  O_6 
REMARK    5  A    between atoms: C_9  and  C_10 
REMARK    6  A    between atoms: N_15  and  C_14 
REMARK    7  A    between atoms: N_20  and  C_19 
REMARK       I    between atoms: C_22  and  N_20 
ROOT
ATOM      1  C   LIG d   1       3.773  85.879 113.010  0.00  0.00     0.161 C 
ATOM      2  C   LIG d   1       4.337  87.102 112.610  0.00  0.00     0.016 C 
ATOM      3  C   LIG d   1       4.912  88.025 113.513  0.00  0.00     0.038 C 
ATOM      4  C   LIG d   1       5.099  87.718 114.869  0.00  0.00     0.028 C 
ATOM      5  C   LIG d   1       4.091  86.708 115.406  0.00  0.00    -0.047 C 
ATOM      6  C   LIG d   1       4.067  85.477 114.471  0.00  0.00     0.091 C 
ENDROOT
BRANCH   1   7
ATOM      7  O   LIG d   1       4.188  84.832 112.110  0.00  0.00    -0.368 OA
BRANCH   7   8
ATOM      8  C   LIG d   1       3.200  84.394 111.144  0.00  0.00     0.119 C 
BRANCH   8   9
ATOM      9  C   LIG d   1       1.816  84.818 111.672  0.00  0.00     0.028 C 
ATOM     10  C   LIG d   1       0.926  83.614 112.020  0.00  0.00     0.006 C 
ENDBRANCH   8   9
BRANCH   8  11
ATOM     11  C   LIG d   1       3.149  82.865 111.055  0.00  0.00     0.028 C 
ATOM     12  C   LIG d   1       4.525  82.210 111.254  0.00  0.00     0.006 C 
ENDBRANCH   8  11
ENDBRANCH   7   8
ENDBRANCH   1   7
BRANCH   6  13
ATOM     13  N   LIG d   1       3.046  84.476 114.876  0.00  0.00    -0.311 N 
ATOM     14  C   LIG d   1       3.292  83.170 114.956  0.00  0.00     0.210 C 
ATOM     15  C   LIG d   1       2.094  82.311 115.374  0.00  0.00     0.109 C 
ATOM     16  O   LIG d   1       4.397  82.644 114.751  0.00  0.00    -0.276 OA
ATOM     17  H   LIG d   1       2.131  84.820 115.090  0.00  0.00     0.149 HD
ENDBRANCH   6  13
BRANCH   5  18
ATOM     18  N   LIG d   1       4.485  86.376 116.788  0.00  0.00     0.381 N 
ATOM     19  H   LIG d   1       3.701  86.487 117.400  0.00  0.00    -0.090 HD
ATOM     20  H   LIG d   1       5.207  87.010 117.082  0.00  0.00    -0.090 HD
ATOM     21  H   LIG d   1       4.819  85.438 116.832  0.00  0.00    -0.090 HD
ENDBRANCH   5  18
BRANCH   3  22
ATOM     22  C   LIG d   1       5.271  89.289 113.069  0.00  0.00     0.382 C 
ATOM     23  O   LIG d   1       6.477  89.556 112.847  0.00  0.00    -0.241 OA
ATOM     24  O   LIG d   1       4.410  90.178 112.929  0.00  0.00    -0.241 OA
ENDBRANCH   3  22
TORSDOF 7
ENDMDL
MODEL 4
REMARK VINA RESULT:      -5.0     26.381     28.941
REMARK  7 active torsions:
REMARK  status: ('A' for Active; 'I' for Inactive)
REMARK    1  A    between atoms: C_2  and  C_3 
REMARK    2  A    between atoms: C_3  and  O_6 
REMARK    3  A    between atoms: C_3  and  C_4 
REMARK    4  A    between atoms: C_7  and  O_6 
REMARK    5  A    between atoms: C_9  and  C_10 
REMARK    6  A    between atoms: N_15  and  C_14 
REMARK    7  A    between atoms: N_20  and  C_19 
REMARK       I    between atoms: C_22  and  N_20 
ROOT
ATOM      1  C   LIG d   1     -16.450  65.674 114.824  0.00  0.00     0.161 C 
ATOM      2  C   LIG d   1     -15.811  66.412 113.815  0.00  0.00     0.016 C 
ATOM      3  C   LIG d   1     -15.118  67.620 114.054  0.00  0.00     0.038 C 
ATOM      4  C   LIG d   1     -14.887  68.098 115.353  0.00  0.00     0.028 C 
ATOM      5  C   LIG d   1     -15.944  67.653 116.358  0.00  0.00    -0.047 C 
ATOM      6  C   LIG d   1     -16.115  66.120 116.263  0.00  0.00     0.091 C 
ENDROOT
BRANCH   1   7
ATOM      7  O   LIG d   1     -16.168  64.270 114.657  0.00  0.00    -0.368 OA
BRANCH   7   8
ATOM      8  C   LIG d   1     -17.290  63.435 114.279  0.00  0.00     0.119 C 
BRANCH   8   9
ATOM      9  C   LIG d   1     -18.531  64.343 114.182  0.00  0.00     0.028 C 
ATOM     10  C   LIG d   1     -19.320  64.122 112.880  0.00  0.00     0.006 C 
ENDBRANCH   8   9
BRANCH   8  11
ATOM     11  C   LIG d   1     -17.619  62.414 115.372  0.00  0.00     0.028 C 
ATOM     12  C   LIG d   1     -18.296  61.149 114.822  0.00  0.00     0.006 C 
ENDBRANCH   8  11
ENDBRANCH   7   8
ENDBRANCH   1   7
BRANCH   6  13
ATOM     13  N   LIG d   1     -17.190  65.613 117.154  0.00  0.00    -0.311 N 
ATOM     14  C   LIG d   1     -16.990  64.690 118.094  0.00  0.00     0.210 C 
ATOM     15  C   LIG d   1     -18.238  64.294 118.888  0.00  0.00     0.109 C 
ATOM     16  O   LIG d   1     -15.890  64.186 118.367  0.00  0.00    -0.276 OA
ATOM     17  H   LIG d   1     -18.108  65.991 117.022  0.00  0.00     0.149 HD
ENDBRANCH   6  13
BRANCH   5  18
ATOM     18  N   LIG d   1     -15.507  68.105 117.693  0.00  0.00     0.381 N 
ATOM     19  H   LIG d   1     -15.854  69.026 117.869  0.00  0.00    -0.090 HD
ATOM     20  H   LIG d   1     -14.503  68.136 117.713  0.00  0.00    -0.090 HD
ATOM     21  H   LIG d   1     -15.841  67.477 118.391  0.00  0.00    -0.090 HD
ENDBRANCH   5  18
BRANCH   3  22
ATOM     22  C   LIG d   1     -14.682  68.386 112.984  0.00  0.00     0.382 C 
ATOM     23  O   LIG d   1     -14.073  69.464 113.191  0.00  0.00    -0.241 OA
ATOM     24  O   LIG d   1     -14.928  68.036 111.814  0.00  0.00    -0.241 OA
ENDBRANCH   3  22
TORSDOF 7
ENDMDL
MODEL 5
REMARK VINA RESULT:      -5.0      9.228     11.024
REMARK  7 active torsions:
REMARK  status: ('A' for Active; 'I' for Inactive)
REMARK    1  A    between atoms: C_2  and  C_3 
REMARK    2  A    between atoms: C_3  and  O_6 
REMARK    3  A    between atoms: C_3  and  C_4 
REMARK    4  A    between atoms: C_7  and  O_6 
REMARK    5  A    between atoms: C_9  and  C_10 
REMARK    6  A    between atoms: N_15  and  C_14 
REMARK    7  A    between atoms: N_20  and  C_19 
REMARK       I    between atoms: C_22  and  N_20 
ROOT
ATOM      1  C   LIG d   1       4.243  86.136 115.341  0.00  0.00     0.161 C 
ATOM      2  C   LIG d   1       3.757  87.036 114.378  0.00  0.00     0.016 C 
ATOM      3  C   LIG d   1       4.460  88.193 113.968  0.00  0.00     0.038 C 
ATOM      4  C   LIG d   1       5.774  88.449 114.387  0.00  0.00     0.028 C 
ATOM      5  C   LIG d   1       6.108  87.837 115.743  0.00  0.00    -0.047 C 
ATOM      6  C   LIG d   1       5.724  86.340 115.727  0.00  0.00     0.091 C 
ENDROOT
BRANCH   1   7
ATOM      7  O   LIG d   1       4.022  84.782 114.900  0.00  0.00    -0.368 OA
BRANCH   7   8
ATOM      8  C   LIG d   1       3.639  84.618 113.512  0.00  0.00     0.119 C 
BRANCH   8   9
ATOM      9  C   LIG d   1       2.423  83.672 113.476  0.00  0.00     0.028 C 
ATOM     10  C   LIG d   1       1.147  84.336 114.021  0.00  0.00     0.006 C 
ENDBRANCH   8   9
BRANCH   8  11
ATOM     11  C   LIG d   1       4.733  83.903 112.713  0.00  0.00     0.028 C 
ATOM     12  C   LIG d   1       4.353  82.461 112.341  0.00  0.00     0.006 C 
ENDBRANCH   8  11
ENDBRANCH   7   8
ENDBRANCH   1   7
BRANCH   6  13
ATOM     13  N   LIG d   1       5.939  85.685 117.043  0.00  0.00    -0.311 N 
ATOM     14  C   LIG d   1       7.053  85.027 117.361  0.00  0.00     0.210 C 
ATOM     15  C   LIG d   1       7.062  84.409 118.763  0.00  0.00     0.109 C 
ATOM     16  O   LIG d   1       8.048  84.924 116.627  0.00  0.00    -0.276 OA
ATOM     17  H   LIG d   1       5.195  85.746 117.710  0.00  0.00     0.149 HD
ENDBRANCH   6  13
BRANCH   5  18
ATOM     18  N   LIG d   1       7.544  88.063 115.993  0.00  0.00     0.381 N 
ATOM     19  H   LIG d   1       7.682  88.978 116.372  0.00  0.00    -0.090 HD
ATOM     20  H   LIG d   1       8.038  88.005 115.120  0.00  0.00    -0.090 HD
ATOM     21  H   LIG d   1       7.892  87.377 116.626  0.00  0.00    -0.090 HD
ENDBRANCH   5  18
BRANCH   3  22
ATOM     22  C   LIG d   1       3.831  89.129 113.161  0.00  0.00     0.382 C 
ATOM     23  O   LIG d   1       2.736  88.852 112.616  0.00  0.00    -0.241 OA
ATOM     24  O   LIG d   1       4.368  90.230 112.935  0.00  0.00    -0.241 OA
ENDBRANCH   3  22
TORSDOF 7
ENDMDL
MODEL 6
REMARK VINA RESULT:      -5.0      6.213      8.285
REMARK  7 active torsions:
REMARK  status: ('A' for Active; 'I' for Inactive)
REMARK    1  A    between atoms: C_2  and  C_3 
REMARK    2  A    between atoms: C_3  and  O_6 
REMARK    3  A    between atoms: C_3  and  C_4 
REMARK    4  A    between atoms: C_7  and  O_6 
REMARK    5  A    between atoms: C_9  and  C_10 
REMARK    6  A    between atoms: N_15  and  C_14 
REMARK    7  A    between atoms: N_20  and  C_19 
REMARK       I    between atoms: C_22  and  N_20 
ROOT
ATOM      1  C   LIG d   1       2.728  86.637 114.910  0.00  0.00     0.161 C 
ATOM      2  C   LIG d   1       1.609  86.311 115.694  0.00  0.00     0.016 C 
ATOM      3  C   LIG d   1       0.906  87.256 116.477  0.00  0.00     0.038 C 
ATOM      4  C   LIG d   1       1.185  88.629 116.409  0.00  0.00     0.028 C 
ATOM      5  C   LIG d   1       2.627  88.936 116.020  0.00  0.00    -0.047 C 
ATOM      6  C   LIG d   1       2.979  88.150 114.737  0.00  0.00     0.091 C 
ENDROOT
BRANCH   1   7
ATOM      7  O   LIG d   1       2.627  85.996 113.623  0.00  0.00    -0.368 OA
BRANCH   7   8
ATOM      8  C   LIG d   1       1.747  86.629 112.663  0.00  0.00     0.119 C 
BRANCH   8   9
ATOM      9  C   LIG d   1       0.539  85.695 112.454  0.00  0.00     0.028 C 
ATOM     10  C   LIG d   1       0.917  84.210 112.585  0.00  0.00     0.006 C 
ENDBRANCH   8   9
BRANCH   8  11
ATOM     11  C   LIG d   1       2.412  86.745 111.288  0.00  0.00     0.028 C 
ATOM     12  C   LIG d   1       3.901  86.363 111.313  0.00  0.00     0.006 C 
ENDBRANCH   8  11
ENDBRANCH   7   8
ENDBRANCH   1   7
BRANCH   6  13
ATOM     13  N   LIG d   1       4.398  88.327 114.335  0.00  0.00    -0.311 N 
ATOM     14  C   LIG d   1       4.810  89.281 113.501  0.00  0.00     0.210 C 
ATOM     15  C   LIG d   1       6.313  89.275 113.203  0.00  0.00     0.109 C 
ATOM     16  O   LIG d   1       4.079  90.151 113.004  0.00  0.00    -0.276 OA
ATOM     17  H   LIG d   1       5.064  87.684 114.715  0.00  0.00     0.149 HD
ENDBRANCH   6  13
BRANCH   5  18
ATOM     18  N   LIG d   1       2.742  90.397 115.853  0.00  0.00     0.381 N 
ATOM     19  H   LIG d   1       3.421  90.605 115.148  0.00  0.00    -0.090 HD
ATOM     20  H   LIG d   1       3.053  90.800 116.719  0.00  0.00    -0.090 HD
ATOM     21  H   LIG d   1       1.859  90.782 115.597  0.00  0.00    -0.090 HD
ENDBRANCH   5  18
BRANCH   3  22
ATOM     22  C   LIG d   1      -0.063  86.824 117.369  0.00  0.00     0.382 C 
ATOM     23  O   LIG d   1       0.014  85.677 117.872  0.00  0.00    -0.241 OA
ATOM     24  O   LIG d   1      -1.038  87.549 117.643  0.00  0.00    -0.241 OA
ENDBRANCH   3  22
TORSDOF 7
ENDMDL
MODEL 7
REMARK VINA RESULT:      -4.9      6.878     10.248
REMARK  7 active torsions:
REMARK  status: ('A' for Active; 'I' for Inactive)
REMARK    1  A    between atoms: C_2  and  C_3 
REMARK    2  A    between atoms: C_3  and  O_6 
REMARK    3  A    between atoms: C_3  and  C_4 
REMARK    4  A    between atoms: C_7  and  O_6 
REMARK    5  A    between atoms: C_9  and  C_10 
REMARK    6  A    between atoms: N_15  and  C_14 
REMARK    7  A    between atoms: N_20  and  C_19 
REMARK       I    between atoms: C_22  and  N_20 
ROOT
ATOM      1  C   LIG d   1       2.483  86.611 114.252  0.00  0.00     0.161 C 
ATOM      2  C   LIG d   1       3.176  87.822 114.086  0.00  0.00     0.016 C 
ATOM      3  C   LIG d   1       4.048  88.077 113.003  0.00  0.00     0.038 C 
ATOM      4  C   LIG d   1       4.171  87.188 111.924  0.00  0.00     0.028 C 
ATOM      5  C   LIG d   1       3.879  85.739 112.298  0.00  0.00    -0.047 C 
ATOM      6  C   LIG d   1       2.518  85.673 113.027  0.00  0.00     0.091 C 
ENDROOT
BRANCH   1   7
ATOM      7  O   LIG d   1       1.120  86.878 114.640  0.00  0.00    -0.368 OA
BRANCH   7   8
ATOM      8  C   LIG d   1       0.887  87.065 116.058  0.00  0.00     0.119 C 
BRANCH   8   9
ATOM      9  C   LIG d   1       0.859  85.669 116.710  0.00  0.00     0.028 C 
ATOM     10  C   LIG d   1       2.067  85.427 117.631  0.00  0.00     0.006 C 
ENDBRANCH   8   9
BRANCH   8  11
ATOM     11  C   LIG d   1      -0.499  87.663 116.320  0.00  0.00     0.028 C 
ATOM     12  C   LIG d   1      -0.918  87.571 117.796  0.00  0.00     0.006 C 
ENDBRANCH   8  11
ENDBRANCH   7   8
ENDBRANCH   1   7
BRANCH   6  13
ATOM     13  N   LIG d   1       2.195  84.302 113.502  0.00  0.00    -0.311 N 
ATOM     14  C   LIG d   1       1.497  83.423 112.784  0.00  0.00     0.210 C 
ATOM     15  C   LIG d   1       1.259  82.073 113.468  0.00  0.00     0.109 C 
ATOM     16  O   LIG d   1       1.081  83.622 111.633  0.00  0.00    -0.276 OA
ATOM     17  H   LIG d   1       2.521  84.046 114.413  0.00  0.00     0.149 HD
ENDBRANCH   6  13
BRANCH   5  18
ATOM     18  N   LIG d   1       3.908  84.944 111.055  0.00  0.00     0.381 N 
ATOM     19  H   LIG d   1       3.640  85.518 110.280  0.00  0.00    -0.090 HD
ATOM     20  H   LIG d   1       3.246  84.192 111.135  0.00  0.00    -0.090 HD
ATOM     21  H   LIG d   1       4.822  84.578 110.906  0.00  0.00    -0.090 HD
ENDBRANCH   5  18
BRANCH   3  22
ATOM     22  C   LIG d   1       4.840  89.215 113.012  0.00  0.00     0.382 C 
ATOM     23  O   LIG d   1       6.080  89.118 112.844  0.00  0.00    -0.241 OA
ATOM     24  O   LIG d   1       4.337  90.333 113.230  0.00  0.00    -0.241 OA
ENDBRANCH   3  22
TORSDOF 7
ENDMDL
MODEL 8
REMARK VINA RESULT:      -4.8      6.235      9.894
REMARK  7 active torsions:
REMARK  status: ('A' for Active; 'I' for Inactive)
REMARK    1  A    between atoms: C_2  and  C_3 
REMARK    2  A    between atoms: C_3  and  O_6 
REMARK    3  A    between atoms: C_3  and  C_4 
REMARK    4  A    between atoms: C_7  and  O_6 
REMARK    5  A    between atoms: C_9  and  C_10 
REMARK    6  A    between atoms: N_15  and  C_14 
REMARK    7  A    between atoms: N_20  and  C_19 
REMARK       I    between atoms: C_22  and  N_20 
ROOT
ATOM      1  C   LIG d   1       2.708  87.545 114.646  0.00  0.00     0.161 C 
ATOM      2  C   LIG d   1       3.909  88.223 114.912  0.00  0.00     0.016 C 
ATOM      3  C   LIG d   1       4.982  88.294 113.994  0.00  0.00     0.038 C 
ATOM      4  C   LIG d   1       4.865  87.818 112.679  0.00  0.00     0.028 C 
ATOM      5  C   LIG d   1       3.857  86.683 112.534  0.00  0.00    -0.047 C 
ATOM      6  C   LIG d   1       2.519  87.115 113.177  0.00  0.00     0.091 C 
ENDROOT
BRANCH   1   7
ATOM      7  O   LIG d   1       1.590  88.344 115.081  0.00  0.00    -0.368 OA
BRANCH   7   8
ATOM      8  C   LIG d   1       1.076  88.055 116.404  0.00  0.00     0.119 C 
BRANCH   8   9
ATOM      9  C   LIG d   1      -0.374  87.559 116.239  0.00  0.00     0.028 C 
ATOM     10  C   LIG d   1      -1.263  87.936 117.437  0.00  0.00     0.006 C 
ENDBRANCH   8   9
BRANCH   8  11
ATOM     11  C   LIG d   1       0.976  89.325 117.254  0.00  0.00     0.028 C 
ATOM     12  C   LIG d   1       1.231  90.606 116.443  0.00  0.00     0.006 C 
ENDBRANCH   8  11
ENDBRANCH   7   8
ENDBRANCH   1   7
BRANCH   6  13
ATOM     13  N   LIG d   1       1.503  86.031 113.152  0.00  0.00    -0.311 N 
ATOM     14  C   LIG d   1       0.518  85.969 112.258  0.00  0.00     0.210 C 
ATOM     15  C   LIG d   1      -0.433  84.779 112.423  0.00  0.00     0.109 C 
ATOM     16  O   LIG d   1       0.361  86.769 111.323  0.00  0.00    -0.276 OA
ATOM     17  H   LIG d   1       1.574  85.322 113.856  0.00  0.00     0.149 HD
ENDBRANCH   6  13
BRANCH   5  18
ATOM     18  N   LIG d   1       3.735  86.377 111.096  0.00  0.00     0.381 N 
ATOM     19  H   LIG d   1       3.659  85.388 110.965  0.00  0.00    -0.090 HD
ATOM     20  H   LIG d   1       4.564  86.694 110.624  0.00  0.00    -0.090 HD
ATOM     21  H   LIG d   1       2.934  86.832 110.717  0.00  0.00    -0.090 HD
ENDBRANCH   5  18
BRANCH   3  22
ATOM     22  C   LIG d   1       6.202  88.812 114.401  0.00  0.00     0.382 C 
ATOM     23  O   LIG d   1       6.830  88.270 115.342  0.00  0.00    -0.241 OA
ATOM     24  O   LIG d   1       6.661  89.841 113.869  0.00  0.00    -0.241 OA
ENDBRANCH   3  22
TORSDOF 7
ENDMDL
MODEL 9
REMARK VINA RESULT:      -4.8     19.585     23.689
REMARK  7 active torsions:
REMARK  status: ('A' for Active; 'I' for Inactive)
REMARK    1  A    between atoms: C_2  and  C_3 
REMARK    2  A    between atoms: C_3  and  O_6 
REMARK    3  A    between atoms: C_3  and  C_4 
REMARK    4  A    between atoms: C_7  and  O_6 
REMARK    5  A    between atoms: C_9  and  C_10 
REMARK    6  A    between atoms: N_15  and  C_14 
REMARK    7  A    between atoms: N_20  and  C_19 
REMARK       I    between atoms: C_22  and  N_20 
ROOT
ATOM      1  C   LIG d   1     -25.454  85.654 112.988  0.00  0.00     0.161 C 
ATOM      2  C   LIG d   1     -24.369  86.503 113.265  0.00  0.00     0.016 C 
ATOM      3  C   LIG d   1     -23.102  86.036 113.683  0.00  0.00     0.038 C 
ATOM      4  C   LIG d   1     -22.787  84.669 113.706  0.00  0.00     0.028 C 
ATOM      5  C   LIG d   1     -24.001  83.771 113.921  0.00  0.00    -0.047 C 
ATOM      6  C   LIG d   1     -25.096  84.156 112.901  0.00  0.00     0.091 C 
ENDROOT
BRANCH   1   7
ATOM      7  O   LIG d   1     -26.114  86.083 111.780  0.00  0.00    -0.368 OA
BRANCH   7   8
ATOM      8  C   LIG d   1     -27.368  86.786 111.955  0.00  0.00     0.119 C 
BRANCH   8   9
ATOM      9  C   LIG d   1     -28.493  85.855 111.463  0.00  0.00     0.028 C 
ATOM     10  C   LIG d   1     -29.504  85.519 112.572  0.00  0.00     0.006 C 
ENDBRANCH   8   9
BRANCH   8  11
ATOM     11  C   LIG d   1     -27.444  88.023 111.055  0.00  0.00     0.028 C 
ATOM     12  C   LIG d   1     -26.820  89.270 111.702  0.00  0.00     0.006 C 
ENDBRANCH   8  11
ENDBRANCH   7   8
ENDBRANCH   1   7
BRANCH   6  13
ATOM     13  N   LIG d   1     -26.350  83.382 113.097  0.00  0.00    -0.311 N 
ATOM     14  C   LIG d   1     -26.876  82.590 112.164  0.00  0.00     0.210 C 
ATOM     15  C   LIG d   1     -28.184  81.900 112.564  0.00  0.00     0.109 C 
ATOM     16  O   LIG d   1     -26.367  82.368 111.055  0.00  0.00    -0.276 OA
ATOM     17  H   LIG d   1     -26.813  83.479 113.979  0.00  0.00     0.149 HD
ENDBRANCH   6  13
BRANCH   5  18
ATOM     18  N   LIG d   1     -23.550  82.373 113.786  0.00  0.00     0.381 N 
ATOM     19  H   LIG d   1     -22.935  82.141 114.540  0.00  0.00    -0.090 HD
ATOM     20  H   LIG d   1     -23.043  82.277 112.924  0.00  0.00    -0.090 HD
ATOM     21  H   LIG d   1     -24.336  81.760 113.788  0.00  0.00    -0.090 HD
ENDBRANCH   5  18
BRANCH   3  22
ATOM     22  C   LIG d   1     -22.146  86.940 114.121  0.00  0.00     0.382 C 
ATOM     23  O   LIG d   1     -22.246  87.454 115.261  0.00  0.00    -0.241 OA
ATOM     24  O   LIG d   1     -21.210  87.281 113.374  0.00  0.00    -0.241 OA
ENDBRANCH   3  22
TORSDOF 7
ENDMDL
