MODEL 1
REMARK VINA RESULT:      -5.7      0.000      0.000
REMARK  7 active torsions:
REMARK  status: ('A' for Active; 'I' for Inactive)
REMARK    1  A    between atoms: C_2  and  C_3 
REMARK    2  A    between atoms: C_3  and  O_6 
REMARK    3  A    between atoms: C_3  and  C_4 
REMARK    4  A    between atoms: C_7  and  O_6 
REMARK    5  A    between atoms: C_9  and  C_10 
REMARK    6  A    between atoms: N_15  and  C_14 
REMARK    7  A    between atoms: N_20  and  C_19 
REMARK       I    between atoms: C_22  and  N_20 
ROOT
ATOM      1  C   LIG d   1       3.007  87.763 114.566  0.00  0.00     0.161 C 
ATOM      2  C   LIG d   1       3.016  88.826 115.484  0.00  0.00     0.016 C 
ATOM      3  C   LIG d   1       3.998  89.844 115.487  0.00  0.00     0.038 C 
ATOM      4  C   LIG d   1       4.959  89.950 114.470  0.00  0.00     0.028 C 
ATOM      5  C   LIG d   1       5.295  88.616 113.813  0.00  0.00    -0.047 C 
ATOM      6  C   LIG d   1       3.982  87.923 113.381  0.00  0.00     0.091 C 
ENDROOT
BRANCH   1   7
ATOM      7  O   LIG d   1       1.666  87.543 114.086  0.00  0.00    -0.368 OA
BRANCH   7   8
ATOM      8  C   LIG d   1       0.982  86.381 114.614  0.00  0.00     0.119 C 
BRANCH   8   9
ATOM      9  C   LIG d   1       2.018  85.550 115.396  0.00  0.00     0.028 C 
ATOM     10  C   LIG d   1       2.215  84.146 114.798  0.00  0.00     0.006 C 
ENDBRANCH   8   9
BRANCH   8  11
ATOM     11  C   LIG d   1       0.491  85.464 113.490  0.00  0.00     0.028 C 
ATOM     12  C   LIG d   1      -0.591  86.119 112.617  0.00  0.00     0.006 C 
ENDBRANCH   8  11
ENDBRANCH   7   8
ENDBRANCH   1   7
BRANCH   6  13
ATOM     13  N   LIG d   1       4.216  86.573 112.805  0.00  0.00    -0.311 N 
ATOM     14  C   LIG d   1       3.579  86.115 111.729  0.00  0.00     0.210 C 
ATOM     15  C   LIG d   1       3.955  84.689 111.314  0.00  0.00     0.109 C 
ATOM     16  O   LIG d   1       2.762  86.765 111.060  0.00  0.00    -0.276 OA
ATOM     17  H   LIG d   1       4.886  85.990 113.267  0.00  0.00     0.149 HD
ENDBRANCH   6  13
BRANCH   5  18
ATOM     18  N   LIG d   1       6.202  88.891 112.683  0.00  0.00     0.381 N 
ATOM     19  H   LIG d   1       6.742  88.075 112.474  0.00  0.00    -0.090 HD
ATOM     20  H   LIG d   1       6.833  89.628 112.944  0.00  0.00    -0.090 HD
ATOM     21  H   LIG d   1       5.676  89.164 111.882  0.00  0.00    -0.090 HD
ENDBRANCH   5  18
BRANCH   3  22
ATOM     22  C   LIG d   1       4.050  90.746 116.538  0.00  0.00     0.382 C 
ATOM     23  O   LIG d   1       3.168  91.631 116.648  0.00  0.00    -0.241 OA
ATOM     24  O   LIG d   1       4.992  90.714 117.353  0.00  0.00    -0.241 OA
ENDBRANCH   3  22
TORSDOF 7
ENDMDL
MODEL 2
REMARK VINA RESULT:      -5.2     14.503     16.643
REMARK  7 active torsions:
REMARK  status: ('A' for Active; 'I' for Inactive)
REMARK    1  A    between atoms: C_2  and  C_3 
REMARK    2  A    between atoms: C_3  and  O_6 
REMARK    3  A    between atoms: C_3  and  C_4 
REMARK    4  A    between atoms: C_7  and  O_6 
REMARK    5  A    between atoms: C_9  and  C_10 
REMARK    6  A    between atoms: N_15  and  C_14 
REMARK    7  A    between atoms: N_20  and  C_19 
REMARK       I    between atoms: C_22  and  N_20 
ROOT
ATOM      1  C   LIG d   1      -7.577  75.618 117.938  0.00  0.00     0.161 C 
ATOM      2  C   LIG d   1      -8.860  76.188 117.990  0.00  0.00     0.016 C 
ATOM      3  C   LIG d   1      -9.093  77.582 117.980  0.00  0.00     0.038 C 
ATOM      4  C   LIG d   1      -8.059  78.505 117.764  0.00  0.00     0.028 C 
ATOM      5  C   LIG d   1      -6.692  78.000 118.213  0.00  0.00    -0.047 C 
ATOM      6  C   LIG d   1      -6.444  76.606 117.591  0.00  0.00     0.091 C 
ENDROOT
BRANCH   1   7
ATOM      7  O   LIG d   1      -7.572  74.507 117.020  0.00  0.00    -0.368 OA
BRANCH   7   8
ATOM      8  C   LIG d   1      -7.848  73.206 117.593  0.00  0.00     0.119 C 
BRANCH   8   9
ATOM      9  C   LIG d   1      -6.824  72.215 117.006  0.00  0.00     0.028 C 
ATOM     10  C   LIG d   1      -5.989  72.836 115.874  0.00  0.00     0.006 C 
ENDBRANCH   8   9
BRANCH   8  11
ATOM     11  C   LIG d   1      -9.218  72.682 117.151  0.00  0.00     0.028 C 
ATOM     12  C   LIG d   1      -9.192  71.194 116.767  0.00  0.00     0.006 C 
ENDBRANCH   8  11
ENDBRANCH   7   8
ENDBRANCH   1   7
BRANCH   6  13
ATOM     13  N   LIG d   1      -5.164  76.002 118.046  0.00  0.00    -0.311 N 
ATOM     14  C   LIG d   1      -4.158  75.711 117.224  0.00  0.00     0.210 C 
ATOM     15  C   LIG d   1      -2.937  75.075 117.896  0.00  0.00     0.109 C 
ATOM     16  O   LIG d   1      -4.148  75.948 116.007  0.00  0.00    -0.276 OA
ATOM     17  H   LIG d   1      -5.075  75.805 119.024  0.00  0.00     0.149 HD
ENDBRANCH   6  13
BRANCH   5  18
ATOM     18  N   LIG d   1      -5.690  79.002 117.804  0.00  0.00     0.381 N 
ATOM     19  H   LIG d   1      -4.881  78.930 118.388  0.00  0.00    -0.090 HD
ATOM     20  H   LIG d   1      -6.082  79.920 117.921  0.00  0.00    -0.090 HD
ATOM     21  H   LIG d   1      -5.435  78.861 116.852  0.00  0.00    -0.090 HD
ENDBRANCH   5  18
BRANCH   3  22
ATOM     22  C   LIG d   1     -10.368  78.068 118.227  0.00  0.00     0.382 C 
ATOM     23  O   LIG d   1     -11.326  77.270 118.367  0.00  0.00    -0.241 OA
ATOM     24  O   LIG d   1     -10.580  79.294 118.269  0.00  0.00    -0.241 OA
ENDBRANCH   3  22
TORSDOF 7
ENDMDL
MODEL 3
REMARK VINA RESULT:      -5.2      3.007      4.142
REMARK  7 active torsions:
REMARK  status: ('A' for Active; 'I' for Inactive)
REMARK    1  A    between atoms: C_2  and  C_3 
REMARK    2  A    between atoms: C_3  and  O_6 
REMARK    3  A    between atoms: C_3  and  C_4 
REMARK    4  A    between atoms: C_7  and  O_6 
REMARK    5  A    between atoms: C_9  and  C_10 
REMARK    6  A    between atoms: N_15  and  C_14 
REMARK    7  A    between atoms: N_20  and  C_19 
REMARK       I    between atoms: C_22  and  N_20 
ROOT
ATOM      1  C   LIG d   1       3.217  85.100 113.212  0.00  0.00     0.161 C 
ATOM      2  C   LIG d   1       3.961  86.277 113.397  0.00  0.00     0.016 C 
ATOM      3  C   LIG d   1       3.560  87.538 112.898  0.00  0.00     0.038 C 
ATOM      4  C   LIG d   1       2.303  87.735 112.307  0.00  0.00     0.028 C 
ATOM      5  C   LIG d   1       1.738  86.480 111.651  0.00  0.00    -0.047 C 
ATOM      6  C   LIG d   1       1.790  85.316 112.667  0.00  0.00     0.091 C 
ENDROOT
BRANCH   1   7
ATOM      7  O   LIG d   1       3.175  84.351 114.443  0.00  0.00    -0.368 OA
BRANCH   7   8
ATOM      8  C   LIG d   1       3.132  85.131 115.663  0.00  0.00     0.119 C 
BRANCH   8   9
ATOM      9  C   LIG d   1       4.112  84.484 116.661  0.00  0.00     0.028 C 
ATOM     10  C   LIG d   1       5.506  85.131 116.619  0.00  0.00     0.006 C 
ENDBRANCH   8   9
BRANCH   8  11
ATOM     11  C   LIG d   1       1.757  85.047 116.331  0.00  0.00     0.028 C 
ATOM     12  C   LIG d   1       1.225  86.418 116.775  0.00  0.00     0.006 C 
ENDBRANCH   8  11
ENDBRANCH   7   8
ENDBRANCH   1   7
BRANCH   6  13
ATOM     13  N   LIG d   1       1.333  84.030 112.079  0.00  0.00    -0.311 N 
ATOM     14  C   LIG d   1       0.064  83.627 112.093  0.00  0.00     0.210 C 
ATOM     15  C   LIG d   1      -0.188  82.260 111.451  0.00  0.00     0.109 C 
ATOM     16  O   LIG d   1      -0.883  84.287 112.548  0.00  0.00    -0.276 OA
ATOM     17  H   LIG d   1       2.031  83.446 111.661  0.00  0.00     0.149 HD
ENDBRANCH   6  13
BRANCH   5  18
ATOM     18  N   LIG d   1       0.369  86.792 111.198  0.00  0.00     0.381 N 
ATOM     19  H   LIG d   1       0.052  87.635 111.633  0.00  0.00    -0.090 HD
ATOM     20  H   LIG d   1      -0.243  86.044 111.474  0.00  0.00    -0.090 HD
ATOM     21  H   LIG d   1       0.353  86.895 110.207  0.00  0.00    -0.090 HD
ENDBRANCH   5  18
BRANCH   3  22
ATOM     22  C   LIG d   1       4.438  88.610 112.952  0.00  0.00     0.382 C 
ATOM     23  O   LIG d   1       5.628  88.465 112.580  0.00  0.00    -0.241 OA
ATOM     24  O   LIG d   1       4.068  89.707 113.411  0.00  0.00    -0.241 OA
ENDBRANCH   3  22
TORSDOF 7
ENDMDL
MODEL 4
REMARK VINA RESULT:      -5.1     14.430     16.556
REMARK  7 active torsions:
REMARK  status: ('A' for Active; 'I' for Inactive)
REMARK    1  A    between atoms: C_2  and  C_3 
REMARK    2  A    between atoms: C_3  and  O_6 
REMARK    3  A    between atoms: C_3  and  C_4 
REMARK    4  A    between atoms: C_7  and  O_6 
REMARK    5  A    between atoms: C_9  and  C_10 
REMARK    6  A    between atoms: N_15  and  C_14 
REMARK    7  A    between atoms: N_20  and  C_19 
REMARK       I    between atoms: C_22  and  N_20 
ROOT
ATOM      1  C   LIG d   1      -6.135  74.447 118.197  0.00  0.00     0.161 C 
ATOM      2  C   LIG d   1      -7.444  74.928 118.030  0.00  0.00     0.016 C 
ATOM      3  C   LIG d   1      -7.742  76.210 117.511  0.00  0.00     0.038 C 
ATOM      4  C   LIG d   1      -6.748  77.044 116.980  0.00  0.00     0.028 C 
ATOM      5  C   LIG d   1      -5.370  76.809 117.590  0.00  0.00    -0.047 C 
ATOM      6  C   LIG d   1      -5.042  75.300 117.520  0.00  0.00     0.091 C 
ENDROOT
BRANCH   1   7
ATOM      7  O   LIG d   1      -6.056  73.081 117.746  0.00  0.00    -0.368 OA
BRANCH   7   8
ATOM      8  C   LIG d   1      -6.907  72.727 116.628  0.00  0.00     0.119 C 
BRANCH   8   9
ATOM      9  C   LIG d   1      -7.652  71.432 117.005  0.00  0.00     0.028 C 
ATOM     10  C   LIG d   1      -9.146  71.488 116.641  0.00  0.00     0.006 C 
ENDBRANCH   8   9
BRANCH   8  11
ATOM     11  C   LIG d   1      -6.081  72.374 115.388  0.00  0.00     0.028 C 
ATOM     12  C   LIG d   1      -5.508  73.612 114.681  0.00  0.00     0.006 C 
ENDBRANCH   8  11
ENDBRANCH   7   8
ENDBRANCH   1   7
BRANCH   6  13
ATOM     13  N   LIG d   1      -3.747  74.971 118.171  0.00  0.00    -0.311 N 
ATOM     14  C   LIG d   1      -2.590  74.913 117.515  0.00  0.00     0.210 C 
ATOM     15  C   LIG d   1      -1.378  74.536 118.373  0.00  0.00     0.109 C 
ATOM     16  O   LIG d   1      -2.446  75.169 116.310  0.00  0.00    -0.276 OA
ATOM     17  H   LIG d   1      -3.767  74.779 119.154  0.00  0.00     0.149 HD
ENDBRANCH   6  13
BRANCH   5  18
ATOM     18  N   LIG d   1      -4.406  77.645 116.851  0.00  0.00     0.381 N 
ATOM     19  H   LIG d   1      -4.877  78.434 116.454  0.00  0.00    -0.090 HD
ATOM     20  H   LIG d   1      -4.013  77.103 116.101  0.00  0.00    -0.090 HD
ATOM     21  H   LIG d   1      -3.683  77.954 117.462  0.00  0.00    -0.090 HD
ENDBRANCH   5  18
BRANCH   3  22
ATOM     22  C   LIG d   1      -9.045  76.684 117.558  0.00  0.00     0.382 C 
ATOM     23  O   LIG d   1      -9.262  77.894 117.806  0.00  0.00    -0.241 OA
ATOM     24  O   LIG d   1     -10.006  75.908 117.399  0.00  0.00    -0.241 OA
ENDBRANCH   3  22
TORSDOF 7
ENDMDL
MODEL 5
REMARK VINA RESULT:      -5.1     14.055     17.192
REMARK  7 active torsions:
REMARK  status: ('A' for Active; 'I' for Inactive)
REMARK    1  A    between atoms: C_2  and  C_3 
REMARK    2  A    between atoms: C_3  and  O_6 
REMARK    3  A    between atoms: C_3  and  C_4 
REMARK    4  A    between atoms: C_7  and  O_6 
REMARK    5  A    between atoms: C_9  and  C_10 
REMARK    6  A    between atoms: N_15  and  C_14 
REMARK    7  A    between atoms: N_20  and  C_19 
REMARK       I    between atoms: C_22  and  N_20 
ROOT
ATOM      1  C   LIG d   1      -5.773  74.289 117.419  0.00  0.00     0.161 C 
ATOM      2  C   LIG d   1      -6.416  73.076 117.122  0.00  0.00     0.016 C 
ATOM      3  C   LIG d   1      -7.822  72.925 117.103  0.00  0.00     0.038 C 
ATOM      4  C   LIG d   1      -8.687  74.021 117.234  0.00  0.00     0.028 C 
ATOM      5  C   LIG d   1      -8.090  75.172 118.037  0.00  0.00    -0.047 C 
ATOM      6  C   LIG d   1      -6.701  75.521 117.456  0.00  0.00     0.091 C 
ENDROOT
BRANCH   1   7
ATOM      7  O   LIG d   1      -4.687  74.506 116.496  0.00  0.00    -0.368 OA
BRANCH   7   8
ATOM      8  C   LIG d   1      -4.931  75.468 115.440  0.00  0.00     0.119 C 
BRANCH   8   9
ATOM      9  C   LIG d   1      -5.020  74.687 114.115  0.00  0.00     0.028 C 
ATOM     10  C   LIG d   1      -5.052  75.614 112.888  0.00  0.00     0.006 C 
ENDBRANCH   8   9
BRANCH   8  11
ATOM     11  C   LIG d   1      -3.746  76.422 115.270  0.00  0.00     0.028 C 
ATOM     12  C   LIG d   1      -2.618  76.157 116.281  0.00  0.00     0.006 C 
ENDBRANCH   8  11
ENDBRANCH   7   8
ENDBRANCH   1   7
BRANCH   6  13
ATOM     13  N   LIG d   1      -6.010  76.582 118.235  0.00  0.00    -0.311 N 
ATOM     14  C   LIG d   1      -6.010  77.867 117.885  0.00  0.00     0.210 C 
ATOM     15  C   LIG d   1      -5.221  78.791 118.818  0.00  0.00     0.109 C 
ATOM     16  O   LIG d   1      -6.616  78.334 116.909  0.00  0.00    -0.276 OA
ATOM     17  H   LIG d   1      -5.520  76.295 119.060  0.00  0.00     0.149 HD
ENDBRANCH   6  13
BRANCH   5  18
ATOM     18  N   LIG d   1      -9.041  76.298 117.977  0.00  0.00     0.381 N 
ATOM     19  H   LIG d   1      -9.226  76.634 118.901  0.00  0.00    -0.090 HD
ATOM     20  H   LIG d   1      -9.906  75.972 117.582  0.00  0.00    -0.090 HD
ATOM     21  H   LIG d   1      -8.667  77.032 117.417  0.00  0.00    -0.090 HD
ENDBRANCH   5  18
BRANCH   3  22
ATOM     22  C   LIG d   1      -8.375  71.658 116.992  0.00  0.00     0.382 C 
ATOM     23  O   LIG d   1      -7.722  70.654 117.364  0.00  0.00    -0.241 OA
ATOM     24  O   LIG d   1      -9.501  71.504 116.483  0.00  0.00    -0.241 OA
ENDBRANCH   3  22
TORSDOF 7
ENDMDL
MODEL 6
REMARK VINA RESULT:      -5.0     11.913     14.969
REMARK  7 active torsions:
REMARK  status: ('A' for Active; 'I' for Inactive)
REMARK    1  A    between atoms: C_2  and  C_3 
REMARK    2  A    between atoms: C_3  and  O_6 
REMARK    3  A    between atoms: C_3  and  C_4 
REMARK    4  A    between atoms: C_7  and  O_6 
REMARK    5  A    between atoms: C_9  and  C_10 
REMARK    6  A    between atoms: N_15  and  C_14 
REMARK    7  A    between atoms: N_20  and  C_19 
REMARK       I    between atoms: C_22  and  N_20 
ROOT
ATOM      1  C   LIG d   1      -3.743  76.096 116.913  0.00  0.00     0.161 C 
ATOM      2  C   LIG d   1      -4.605  75.133 117.462  0.00  0.00     0.016 C 
ATOM      3  C   LIG d   1      -5.428  74.288 116.681  0.00  0.00     0.038 C 
ATOM      4  C   LIG d   1      -5.330  74.246 115.282  0.00  0.00     0.028 C 
ATOM      5  C   LIG d   1      -4.839  75.554 114.670  0.00  0.00    -0.047 C 
ATOM      6  C   LIG d   1      -3.541  75.988 115.387  0.00  0.00     0.091 C 
ENDROOT
BRANCH   1   7
ATOM      7  O   LIG d   1      -2.471  76.056 117.591  0.00  0.00    -0.368 OA
BRANCH   7   8
ATOM      8  C   LIG d   1      -1.744  74.805 117.509  0.00  0.00     0.119 C 
BRANCH   8   9
ATOM      9  C   LIG d   1      -1.272  74.450 118.932  0.00  0.00     0.028 C 
ATOM     10  C   LIG d   1      -0.080  73.478 118.930  0.00  0.00     0.006 C 
ENDBRANCH   8   9
BRANCH   8  11
ATOM     11  C   LIG d   1      -0.464  74.958 116.683  0.00  0.00     0.028 C 
ATOM     12  C   LIG d   1       0.072  76.398 116.675  0.00  0.00     0.006 C 
ENDBRANCH   8  11
ENDBRANCH   7   8
ENDBRANCH   1   7
BRANCH   6  13
ATOM     13  N   LIG d   1      -3.039  77.301 114.906  0.00  0.00    -0.311 N 
ATOM     14  C   LIG d   1      -2.130  77.430 113.941  0.00  0.00     0.210 C 
ATOM     15  C   LIG d   1      -1.737  78.873 113.611  0.00  0.00     0.109 C 
ATOM     16  O   LIG d   1      -1.635  76.487 113.305  0.00  0.00    -0.276 OA
ATOM     17  H   LIG d   1      -3.410  78.120 115.346  0.00  0.00     0.149 HD
ENDBRANCH   6  13
BRANCH   5  18
ATOM     18  N   LIG d   1      -4.653  75.326 113.224  0.00  0.00     0.381 N 
ATOM     19  H   LIG d   1      -5.030  74.435 112.970  0.00  0.00    -0.090 HD
ATOM     20  H   LIG d   1      -3.669  75.321 113.020  0.00  0.00    -0.090 HD
ATOM     21  H   LIG d   1      -5.104  76.047 112.704  0.00  0.00    -0.090 HD
ENDBRANCH   5  18
BRANCH   3  22
ATOM     22  C   LIG d   1      -6.389  73.502 117.298  0.00  0.00     0.382 C 
ATOM     23  O   LIG d   1      -7.405  74.037 117.805  0.00  0.00    -0.241 OA
ATOM     24  O   LIG d   1      -6.232  72.270 117.393  0.00  0.00    -0.241 OA
ENDBRANCH   3  22
TORSDOF 7
ENDMDL
MODEL 7
REMARK VINA RESULT:      -5.0      2.636      3.971
REMARK  7 active torsions:
REMARK  status: ('A' for Active; 'I' for Inactive)
REMARK    1  A    between atoms: C_2  and  C_3 
REMARK    2  A    between atoms: C_3  and  O_6 
REMARK    3  A    between atoms: C_3  and  C_4 
REMARK    4  A    between atoms: C_7  and  O_6 
REMARK    5  A    between atoms: C_9  and  C_10 
REMARK    6  A    between atoms: N_15  and  C_14 
REMARK    7  A    between atoms: N_20  and  C_19 
REMARK       I    between atoms: C_22  and  N_20 
ROOT
ATOM      1  C   LIG d   1       1.943  87.014 115.010  0.00  0.00     0.161 C 
ATOM      2  C   LIG d   1       0.930  86.764 115.951  0.00  0.00     0.016 C 
ATOM      3  C   LIG d   1       0.839  87.435 117.193  0.00  0.00     0.038 C 
ATOM      4  C   LIG d   1       1.673  88.516 117.514  0.00  0.00     0.028 C 
ATOM      5  C   LIG d   1       3.026  88.467 116.811  0.00  0.00    -0.047 C 
ATOM      6  C   LIG d   1       2.796  88.267 115.296  0.00  0.00     0.091 C 
ENDROOT
BRANCH   1   7
ATOM      7  O   LIG d   1       1.374  87.085 113.688  0.00  0.00    -0.368 OA
BRANCH   7   8
ATOM      8  C   LIG d   1       1.716  86.003 112.787  0.00  0.00     0.119 C 
BRANCH   8   9
ATOM      9  C   LIG d   1       2.519  86.609 111.620  0.00  0.00     0.028 C 
ATOM     10  C   LIG d   1       3.889  85.935 111.437  0.00  0.00     0.006 C 
ENDBRANCH   8   9
BRANCH   8  11
ATOM     11  C   LIG d   1       0.465  85.395 112.147  0.00  0.00     0.028 C 
ATOM     12  C   LIG d   1      -0.828  86.113 112.565  0.00  0.00     0.006 C 
ENDBRANCH   8  11
ENDBRANCH   7   8
ENDBRANCH   1   7
BRANCH   6  13
ATOM     13  N   LIG d   1       4.070  88.124 114.544  0.00  0.00    -0.311 N 
ATOM     14  C   LIG d   1       4.528  89.043 113.695  0.00  0.00     0.210 C 
ATOM     15  C   LIG d   1       5.851  88.688 113.010  0.00  0.00     0.109 C 
ATOM     16  O   LIG d   1       3.980  90.132 113.469  0.00  0.00    -0.276 OA
ATOM     17  H   LIG d   1       4.595  87.284 114.691  0.00  0.00     0.149 HD
ENDBRANCH   6  13
BRANCH   5  18
ATOM     18  N   LIG d   1       3.738  89.720 117.128  0.00  0.00     0.381 N 
ATOM     19  H   LIG d   1       3.147  90.317 117.672  0.00  0.00    -0.090 HD
ATOM     20  H   LIG d   1       3.960  90.193 116.270  0.00  0.00    -0.090 HD
ATOM     21  H   LIG d   1       4.574  89.519 117.631  0.00  0.00    -0.090 HD
ENDBRANCH   5  18
BRANCH   3  22
ATOM     22  C   LIG d   1      -0.071  86.999 118.144  0.00  0.00     0.382 C 
ATOM     23  O   LIG d   1      -1.052  87.719 118.450  0.00  0.00    -0.241 OA
ATOM     24  O   LIG d   1       0.102  85.915 118.733  0.00  0.00    -0.241 OA
ENDBRANCH   3  22
TORSDOF 7
ENDMDL
MODEL 8
REMARK VINA RESULT:      -5.0     12.927     15.868
REMARK  7 active torsions:
REMARK  status: ('A' for Active; 'I' for Inactive)
REMARK    1  A    between atoms: C_2  and  C_3 
REMARK    2  A    between atoms: C_3  and  O_6 
REMARK    3  A    between atoms: C_3  and  C_4 
REMARK    4  A    between atoms: C_7  and  O_6 
REMARK    5  A    between atoms: C_9  and  C_10 
REMARK    6  A    between atoms: N_15  and  C_14 
REMARK    7  A    between atoms: N_20  and  C_19 
REMARK       I    between atoms: C_22  and  N_20 
ROOT
ATOM      1  C   LIG d   1      -4.566  75.860 117.205  0.00  0.00     0.161 C 
ATOM      2  C   LIG d   1      -4.828  74.521 116.872  0.00  0.00     0.016 C 
ATOM      3  C   LIG d   1      -6.104  73.924 116.992  0.00  0.00     0.038 C 
ATOM      4  C   LIG d   1      -7.246  74.674 117.311  0.00  0.00     0.028 C 
ATOM      5  C   LIG d   1      -6.942  75.915 118.144  0.00  0.00    -0.047 C 
ATOM      6  C   LIG d   1      -5.822  76.723 117.449  0.00  0.00     0.091 C 
ENDROOT
BRANCH   1   7
ATOM      7  O   LIG d   1      -3.734  76.461 116.193  0.00  0.00    -0.368 OA
BRANCH   7   8
ATOM      8  C   LIG d   1      -3.177  75.558 115.207  0.00  0.00     0.119 C 
BRANCH   8   9
ATOM      9  C   LIG d   1      -1.644  75.715 115.250  0.00  0.00     0.028 C 
ATOM     10  C   LIG d   1      -1.007  74.937 116.414  0.00  0.00     0.006 C 
ENDBRANCH   8   9
BRANCH   8  11
ATOM     11  C   LIG d   1      -3.586  75.962 113.787  0.00  0.00     0.028 C 
ATOM     12  C   LIG d   1      -4.704  75.076 113.215  0.00  0.00     0.006 C 
ENDBRANCH   8  11
ENDBRANCH   7   8
ENDBRANCH   1   7
BRANCH   6  13
ATOM     13  N   LIG d   1      -5.405  77.910 118.241  0.00  0.00    -0.311 N 
ATOM     14  C   LIG d   1      -5.839  79.145 117.994  0.00  0.00     0.210 C 
ATOM     15  C   LIG d   1      -5.269  80.227 118.917  0.00  0.00     0.109 C 
ATOM     16  O   LIG d   1      -6.667  79.442 117.120  0.00  0.00    -0.276 OA
ATOM     17  H   LIG d   1      -4.759  77.755 118.990  0.00  0.00     0.149 HD
ENDBRANCH   6  13
BRANCH   5  18
ATOM     18  N   LIG d   1      -8.199  76.675 118.286  0.00  0.00     0.381 N 
ATOM     19  H   LIG d   1      -8.008  77.575 118.679  0.00  0.00    -0.090 HD
ATOM     20  H   LIG d   1      -8.808  76.180 118.914  0.00  0.00    -0.090 HD
ATOM     21  H   LIG d   1      -8.638  76.778 117.398  0.00  0.00    -0.090 HD
ENDBRANCH   5  18
BRANCH   3  22
ATOM     22  C   LIG d   1      -6.240  72.554 116.830  0.00  0.00     0.382 C 
ATOM     23  O   LIG d   1      -6.333  72.065 115.678  0.00  0.00    -0.241 OA
ATOM     24  O   LIG d   1      -6.316  71.805 117.822  0.00  0.00    -0.241 OA
ENDBRANCH   3  22
TORSDOF 7
ENDMDL
MODEL 9
REMARK VINA RESULT:      -4.9      2.657      4.305
REMARK  7 active torsions:
REMARK  status: ('A' for Active; 'I' for Inactive)
REMARK    1  A    between atoms: C_2  and  C_3 
REMARK    2  A    between atoms: C_3  and  O_6 
REMARK    3  A    between atoms: C_3  and  C_4 
REMARK    4  A    between atoms: C_7  and  O_6 
REMARK    5  A    between atoms: C_9  and  C_10 
REMARK    6  A    between atoms: N_15  and  C_14 
REMARK    7  A    between atoms: N_20  and  C_19 
REMARK       I    between atoms: C_22  and  N_20 
ROOT
ATOM      1  C   LIG d   1       2.234  86.128 114.389  0.00  0.00     0.161 C 
ATOM      2  C   LIG d   1       2.873  87.122 113.629  0.00  0.00     0.016 C 
ATOM      3  C   LIG d   1       4.105  87.711 113.995  0.00  0.00     0.038 C 
ATOM      4  C   LIG d   1       4.862  87.235 115.076  0.00  0.00     0.028 C 
ATOM      5  C   LIG d   1       4.019  86.577 116.163  0.00  0.00    -0.047 C 
ATOM      6  C   LIG d   1       3.099  85.518 115.512  0.00  0.00     0.091 C 
ENDROOT
BRANCH   1   7
ATOM      7  O   LIG d   1       1.737  85.091 113.520  0.00  0.00    -0.368 OA
BRANCH   7   8
ATOM      8  C   LIG d   1       1.496  85.475 112.144  0.00  0.00     0.119 C 
BRANCH   8   9
ATOM      9  C   LIG d   1      -0.022  85.389 111.898  0.00  0.00     0.028 C 
ATOM     10  C   LIG d   1      -0.620  86.732 111.446  0.00  0.00     0.006 C 
ENDBRANCH   8   9
BRANCH   8  11
ATOM     11  C   LIG d   1       2.122  84.472 111.169  0.00  0.00     0.028 C 
ATOM     12  C   LIG d   1       3.647  84.622 111.058  0.00  0.00     0.006 C 
ENDBRANCH   8  11
ENDBRANCH   7   8
ENDBRANCH   1   7
BRANCH   6  13
ATOM     13  N   LIG d   1       2.180  84.885 116.494  0.00  0.00    -0.311 N 
ATOM     14  C   LIG d   1       2.192  83.583 116.776  0.00  0.00     0.210 C 
ATOM     15  C   LIG d   1       1.148  83.135 117.803  0.00  0.00     0.109 C 
ATOM     16  O   LIG d   1       2.989  82.763 116.297  0.00  0.00    -0.276 OA
ATOM     17  H   LIG d   1       1.521  85.483 116.953  0.00  0.00     0.149 HD
ENDBRANCH   6  13
BRANCH   5  18
ATOM     18  N   LIG d   1       4.944  86.005 117.159  0.00  0.00     0.381 N 
ATOM     19  H   LIG d   1       5.622  86.691 117.424  0.00  0.00    -0.090 HD
ATOM     20  H   LIG d   1       5.426  85.227 116.746  0.00  0.00    -0.090 HD
ATOM     21  H   LIG d   1       4.436  85.702 117.961  0.00  0.00    -0.090 HD
ENDBRANCH   5  18
BRANCH   3  22
ATOM     22  C   LIG d   1       4.572  88.815 113.299  0.00  0.00     0.382 C 
ATOM     23  O   LIG d   1       3.981  89.917 113.401  0.00  0.00    -0.241 OA
ATOM     24  O   LIG d   1       5.551  88.713 112.535  0.00  0.00    -0.241 OA
ENDBRANCH   3  22
TORSDOF 7
ENDMDL
