MODEL 1
REMARK VINA RESULT:      -6.0      0.000      0.000
REMARK  7 active torsions:
REMARK  status: ('A' for Active; 'I' for Inactive)
REMARK    1  A    between atoms: C_2  and  C_3 
REMARK    2  A    between atoms: C_3  and  O_6 
REMARK    3  A    between atoms: C_3  and  C_4 
REMARK    4  A    between atoms: C_7  and  O_6 
REMARK    5  A    between atoms: C_9  and  C_10 
REMARK    6  A    between atoms: N_15  and  C_14 
REMARK    7  A    between atoms: N_20  and  C_19 
REMARK       I    between atoms: C_22  and  N_20 
ROOT
ATOM      1  C   LIG d   1      -6.643  77.032 117.128  0.00  0.00     0.161 C 
ATOM      2  C   LIG d   1      -7.979  77.338 117.436  0.00  0.00     0.016 C 
ATOM      3  C   LIG d   1      -8.413  78.628 117.821  0.00  0.00     0.038 C 
ATOM      4  C   LIG d   1      -7.560  79.740 117.777  0.00  0.00     0.028 C 
ATOM      5  C   LIG d   1      -6.088  79.383 117.959  0.00  0.00    -0.047 C 
ATOM      6  C   LIG d   1      -5.719  78.257 116.967  0.00  0.00     0.091 C 
ENDROOT
BRANCH   1   7
ATOM      7  O   LIG d   1      -6.591  76.207 115.947  0.00  0.00    -0.368 OA
BRANCH   7   8
ATOM      8  C   LIG d   1      -6.034  74.881 116.120  0.00  0.00     0.119 C 
BRANCH   8   9
ATOM      9  C   LIG d   1      -5.584  74.383 114.733  0.00  0.00     0.028 C 
ATOM     10  C   LIG d   1      -5.027  75.516 113.855  0.00  0.00     0.006 C 
ENDBRANCH   8   9
BRANCH   8  11
ATOM     11  C   LIG d   1      -7.101  73.884 116.582  0.00  0.00     0.028 C 
ATOM     12  C   LIG d   1      -6.845  72.457 116.071  0.00  0.00     0.006 C 
ENDBRANCH   8  11
ENDBRANCH   7   8
ENDBRANCH   1   7
BRANCH   6  13
ATOM     13  N   LIG d   1      -4.319  77.789 117.136  0.00  0.00    -0.311 N 
ATOM     14  C   LIG d   1      -3.375  77.952 116.210  0.00  0.00     0.210 C 
ATOM     15  C   LIG d   1      -2.003  77.378 116.578  0.00  0.00     0.109 C 
ATOM     16  O   LIG d   1      -3.535  78.545 115.133  0.00  0.00    -0.276 OA
ATOM     17  H   LIG d   1      -4.093  77.325 117.994  0.00  0.00     0.149 HD
ENDBRANCH   6  13
BRANCH   5  18
ATOM     18  N   LIG d   1      -5.302  80.615 117.755  0.00  0.00     0.381 N 
ATOM     19  H   LIG d   1      -5.901  81.350 117.436  0.00  0.00    -0.090 HD
ATOM     20  H   LIG d   1      -4.609  80.444 117.048  0.00  0.00    -0.090 HD
ATOM     21  H   LIG d   1      -4.860  80.882 118.606  0.00  0.00    -0.090 HD
ENDBRANCH   5  18
BRANCH   3  22
ATOM     22  C   LIG d   1      -9.704  78.806 118.294  0.00  0.00     0.382 C 
ATOM     23  O   LIG d   1     -10.569  77.917 118.104  0.00  0.00    -0.241 OA
ATOM     24  O   LIG d   1     -10.026  79.863 118.869  0.00  0.00    -0.241 OA
ENDBRANCH   3  22
TORSDOF 7
ENDMDL
MODEL 2
REMARK VINA RESULT:      -5.7      3.385      5.848
REMARK  7 active torsions:
REMARK  status: ('A' for Active; 'I' for Inactive)
REMARK    1  A    between atoms: C_2  and  C_3 
REMARK    2  A    between atoms: C_3  and  O_6 
REMARK    3  A    between atoms: C_3  and  C_4 
REMARK    4  A    between atoms: C_7  and  O_6 
REMARK    5  A    between atoms: C_9  and  C_10 
REMARK    6  A    between atoms: N_15  and  C_14 
REMARK    7  A    between atoms: N_20  and  C_19 
REMARK       I    between atoms: C_22  and  N_20 
ROOT
ATOM      1  C   LIG d   1      -3.060  76.581 116.714  0.00  0.00     0.161 C 
ATOM      2  C   LIG d   1      -3.056  77.746 115.929  0.00  0.00     0.016 C 
ATOM      3  C   LIG d   1      -2.187  77.940 114.830  0.00  0.00     0.038 C 
ATOM      4  C   LIG d   1      -1.363  76.913 114.346  0.00  0.00     0.028 C 
ATOM      5  C   LIG d   1      -0.968  75.899 115.414  0.00  0.00    -0.047 C 
ATOM      6  C   LIG d   1      -2.245  75.406 116.134  0.00  0.00     0.091 C 
ENDROOT
BRANCH   1   7
ATOM      7  O   LIG d   1      -4.417  76.170 116.972  0.00  0.00    -0.368 OA
BRANCH   7   8
ATOM      8  C   LIG d   1      -5.401  76.568 115.986  0.00  0.00     0.119 C 
BRANCH   8   9
ATOM      9  C   LIG d   1      -6.689  76.947 116.743  0.00  0.00     0.028 C 
ATOM     10  C   LIG d   1      -7.611  75.738 116.976  0.00  0.00     0.006 C 
ENDBRANCH   8   9
BRANCH   8  11
ATOM     11  C   LIG d   1      -5.793  75.394 115.084  0.00  0.00     0.028 C 
ATOM     12  C   LIG d   1      -5.132  75.461 113.698  0.00  0.00     0.006 C 
ENDBRANCH   8  11
ENDBRANCH   7   8
ENDBRANCH   1   7
BRANCH   6  13
ATOM     13  N   LIG d   1      -1.942  74.474 117.251  0.00  0.00    -0.311 N 
ATOM     14  C   LIG d   1      -1.113  74.772 118.250  0.00  0.00     0.210 C 
ATOM     15  C   LIG d   1      -0.925  73.660 119.288  0.00  0.00     0.109 C 
ATOM     16  O   LIG d   1      -0.540  75.862 118.393  0.00  0.00    -0.276 OA
ATOM     17  H   LIG d   1      -2.388  73.578 117.231  0.00  0.00     0.149 HD
ENDBRANCH   6  13
BRANCH   5  18
ATOM     18  N   LIG d   1      -0.226  74.814 114.746  0.00  0.00     0.381 N 
ATOM     19  H   LIG d   1       0.636  74.648 115.225  0.00  0.00    -0.090 HD
ATOM     20  H   LIG d   1      -0.015  75.096 113.805  0.00  0.00    -0.090 HD
ATOM     21  H   LIG d   1      -0.774  73.982 114.736  0.00  0.00    -0.090 HD
ENDBRANCH   5  18
BRANCH   3  22
ATOM     22  C   LIG d   1      -2.110  79.186 114.227  0.00  0.00     0.382 C 
ATOM     23  O   LIG d   1      -1.014  79.597 113.776  0.00  0.00    -0.241 OA
ATOM     24  O   LIG d   1      -3.112  79.923 114.169  0.00  0.00    -0.241 OA
ENDBRANCH   3  22
TORSDOF 7
ENDMDL
MODEL 3
REMARK VINA RESULT:      -5.6      2.229      4.934
REMARK  7 active torsions:
REMARK  status: ('A' for Active; 'I' for Inactive)
REMARK    1  A    between atoms: C_2  and  C_3 
REMARK    2  A    between atoms: C_3  and  O_6 
REMARK    3  A    between atoms: C_3  and  C_4 
REMARK    4  A    between atoms: C_7  and  O_6 
REMARK    5  A    between atoms: C_9  and  C_10 
REMARK    6  A    between atoms: N_15  and  C_14 
REMARK    7  A    between atoms: N_20  and  C_19 
REMARK       I    between atoms: C_22  and  N_20 
ROOT
ATOM      1  C   LIG d   1      -4.942  76.365 116.132  0.00  0.00     0.161 C 
ATOM      2  C   LIG d   1      -5.318  75.044 115.836  0.00  0.00     0.016 C 
ATOM      3  C   LIG d   1      -6.543  74.472 116.249  0.00  0.00     0.038 C 
ATOM      4  C   LIG d   1      -7.548  75.235 116.862  0.00  0.00     0.028 C 
ATOM      5  C   LIG d   1      -7.011  76.439 117.629  0.00  0.00    -0.047 C 
ATOM      6  C   LIG d   1      -6.072  77.246 116.704  0.00  0.00     0.091 C 
ENDROOT
BRANCH   1   7
ATOM      7  O   LIG d   1      -4.367  76.983 114.964  0.00  0.00    -0.368 OA
BRANCH   7   8
ATOM      8  C   LIG d   1      -3.045  76.525 114.586  0.00  0.00     0.119 C 
BRANCH   8   9
ATOM      9  C   LIG d   1      -2.152  76.603 115.839  0.00  0.00     0.028 C 
ATOM     10  C   LIG d   1      -1.398  75.290 116.105  0.00  0.00     0.006 C 
ENDBRANCH   8   9
BRANCH   8  11
ATOM     11  C   LIG d   1      -2.399  77.468 113.567  0.00  0.00     0.028 C 
ATOM     12  C   LIG d   1      -1.522  78.545 114.225  0.00  0.00     0.006 C 
ENDBRANCH   8  11
ENDBRANCH   7   8
ENDBRANCH   1   7
BRANCH   6  13
ATOM     13  N   LIG d   1      -5.438  78.395 117.402  0.00  0.00    -0.311 N 
ATOM     14  C   LIG d   1      -6.019  79.586 117.530  0.00  0.00     0.210 C 
ATOM     15  C   LIG d   1      -5.183  80.637 118.268  0.00  0.00     0.109 C 
ATOM     16  O   LIG d   1      -7.160  79.863 117.132  0.00  0.00    -0.276 OA
ATOM     17  H   LIG d   1      -4.524  78.248 117.783  0.00  0.00     0.149 HD
ENDBRANCH   6  13
BRANCH   5  18
ATOM     18  N   LIG d   1      -8.171  77.221 118.100  0.00  0.00     0.381 N 
ATOM     19  H   LIG d   1      -8.234  77.166 119.097  0.00  0.00    -0.090 HD
ATOM     20  H   LIG d   1      -9.008  76.827 117.709  0.00  0.00    -0.090 HD
ATOM     21  H   LIG d   1      -8.078  78.172 117.817  0.00  0.00    -0.090 HD
ENDBRANCH   5  18
BRANCH   3  22
ATOM     22  C   LIG d   1      -6.756  73.112 116.086  0.00  0.00     0.382 C 
ATOM     23  O   LIG d   1      -6.357  72.535 115.046  0.00  0.00    -0.241 OA
ATOM     24  O   LIG d   1      -7.382  72.463 116.945  0.00  0.00    -0.241 OA
ENDBRANCH   3  22
TORSDOF 7
ENDMDL
MODEL 4
REMARK VINA RESULT:      -5.6      2.136      5.172
REMARK  7 active torsions:
REMARK  status: ('A' for Active; 'I' for Inactive)
REMARK    1  A    between atoms: C_2  and  C_3 
REMARK    2  A    between atoms: C_3  and  O_6 
REMARK    3  A    between atoms: C_3  and  C_4 
REMARK    4  A    between atoms: C_7  and  O_6 
REMARK    5  A    between atoms: C_9  and  C_10 
REMARK    6  A    between atoms: N_15  and  C_14 
REMARK    7  A    between atoms: N_20  and  C_19 
REMARK       I    between atoms: C_22  and  N_20 
ROOT
ATOM      1  C   LIG d   1      -5.277  77.503 116.890  0.00  0.00     0.161 C 
ATOM      2  C   LIG d   1      -5.356  76.197 116.379  0.00  0.00     0.016 C 
ATOM      3  C   LIG d   1      -6.550  75.439 116.359  0.00  0.00     0.038 C 
ATOM      4  C   LIG d   1      -7.787  75.996 116.715  0.00  0.00     0.028 C 
ATOM      5  C   LIG d   1      -7.671  77.145 117.710  0.00  0.00    -0.047 C 
ATOM      6  C   LIG d   1      -6.640  78.167 117.179  0.00  0.00     0.091 C 
ENDROOT
BRANCH   1   7
ATOM      7  O   LIG d   1      -4.496  78.328 116.004  0.00  0.00    -0.368 OA
BRANCH   7   8
ATOM      8  C   LIG d   1      -3.144  78.624 116.435  0.00  0.00     0.119 C 
BRANCH   8   9
ATOM      9  C   LIG d   1      -3.124  80.086 116.923  0.00  0.00     0.028 C 
ATOM     10  C   LIG d   1      -2.940  80.193 118.446  0.00  0.00     0.006 C 
ENDBRANCH   8   9
BRANCH   8  11
ATOM     11  C   LIG d   1      -2.162  78.574 115.261  0.00  0.00     0.028 C 
ATOM     12  C   LIG d   1      -2.460  77.427 114.283  0.00  0.00     0.006 C 
ENDBRANCH   8  11
ENDBRANCH   7   8
ENDBRANCH   1   7
BRANCH   6  13
ATOM     13  N   LIG d   1      -6.403  79.282 118.133  0.00  0.00    -0.311 N 
ATOM     14  C   LIG d   1      -6.967  80.482 118.013  0.00  0.00     0.210 C 
ATOM     15  C   LIG d   1      -6.573  81.493 119.094  0.00  0.00     0.109 C 
ATOM     16  O   LIG d   1      -7.782  80.795 117.132  0.00  0.00    -0.276 OA
ATOM     17  H   LIG d   1      -5.779  79.104 118.896  0.00  0.00     0.149 HD
ENDBRANCH   6  13
BRANCH   5  18
ATOM     18  N   LIG d   1      -9.018  77.721 117.886  0.00  0.00     0.381 N 
ATOM     19  H   LIG d   1      -9.001  78.404 118.617  0.00  0.00    -0.090 HD
ATOM     20  H   LIG d   1      -9.652  76.988 118.153  0.00  0.00    -0.090 HD
ATOM     21  H   LIG d   1      -9.322  78.141 117.036  0.00  0.00    -0.090 HD
ENDBRANCH   5  18
BRANCH   3  22
ATOM     22  C   LIG d   1      -6.505  74.096 116.019  0.00  0.00     0.382 C 
ATOM     23  O   LIG d   1      -7.131  73.253 116.708  0.00  0.00    -0.241 OA
ATOM     24  O   LIG d   1      -5.813  73.710 115.059  0.00  0.00    -0.241 OA
ENDBRANCH   3  22
TORSDOF 7
ENDMDL
MODEL 5
REMARK VINA RESULT:      -5.5      1.795      2.391
REMARK  7 active torsions:
REMARK  status: ('A' for Active; 'I' for Inactive)
REMARK    1  A    between atoms: C_2  and  C_3 
REMARK    2  A    between atoms: C_3  and  O_6 
REMARK    3  A    between atoms: C_3  and  C_4 
REMARK    4  A    between atoms: C_7  and  O_6 
REMARK    5  A    between atoms: C_9  and  C_10 
REMARK    6  A    between atoms: N_15  and  C_14 
REMARK    7  A    between atoms: N_20  and  C_19 
REMARK       I    between atoms: C_22  and  N_20 
ROOT
ATOM      1  C   LIG d   1      -5.831  77.485 117.052  0.00  0.00     0.161 C 
ATOM      2  C   LIG d   1      -7.155  77.016 117.021  0.00  0.00     0.016 C 
ATOM      3  C   LIG d   1      -8.260  77.774 117.472  0.00  0.00     0.038 C 
ATOM      4  C   LIG d   1      -8.132  79.120 117.847  0.00  0.00     0.028 C 
ATOM      5  C   LIG d   1      -6.744  79.473 118.371  0.00  0.00    -0.047 C 
ATOM      6  C   LIG d   1      -5.685  78.991 117.354  0.00  0.00     0.091 C 
ENDROOT
BRANCH   1   7
ATOM      7  O   LIG d   1      -5.167  77.155 115.816  0.00  0.00    -0.368 OA
BRANCH   7   8
ATOM      8  C   LIG d   1      -4.391  75.932 115.816  0.00  0.00     0.119 C 
BRANCH   8   9
ATOM      9  C   LIG d   1      -2.977  76.281 116.320  0.00  0.00     0.028 C 
ATOM     10  C   LIG d   1      -2.346  75.140 117.136  0.00  0.00     0.006 C 
ENDBRANCH   8   9
BRANCH   8  11
ATOM     11  C   LIG d   1      -4.194  75.397 114.395  0.00  0.00     0.028 C 
ATOM     12  C   LIG d   1      -5.406  75.659 113.486  0.00  0.00     0.006 C 
ENDBRANCH   8  11
ENDBRANCH   7   8
ENDBRANCH   1   7
BRANCH   6  13
ATOM     13  N   LIG d   1      -4.296  79.222 117.829  0.00  0.00    -0.311 N 
ATOM     14  C   LIG d   1      -3.400  79.939 117.152  0.00  0.00     0.210 C 
ATOM     15  C   LIG d   1      -2.020  80.036 117.810  0.00  0.00     0.109 C 
ATOM     16  O   LIG d   1      -3.626  80.530 116.086  0.00  0.00    -0.276 OA
ATOM     17  H   LIG d   1      -4.037  78.805 118.701  0.00  0.00     0.149 HD
ENDBRANCH   6  13
BRANCH   5  18
ATOM     18  N   LIG d   1      -6.710  80.931 118.594  0.00  0.00     0.381 N 
ATOM     19  H   LIG d   1      -6.606  81.405 117.720  0.00  0.00    -0.090 HD
ATOM     20  H   LIG d   1      -5.916  81.154 119.169  0.00  0.00    -0.090 HD
ATOM     21  H   LIG d   1      -7.548  81.227 119.044  0.00  0.00    -0.090 HD
ENDBRANCH   5  18
BRANCH   3  22
ATOM     22  C   LIG d   1      -9.504  77.173 117.589  0.00  0.00     0.382 C 
ATOM     23  O   LIG d   1      -9.672  75.997 117.186  0.00  0.00    -0.241 OA
ATOM     24  O   LIG d   1     -10.470  77.807 118.053  0.00  0.00    -0.241 OA
ENDBRANCH   3  22
TORSDOF 7
ENDMDL
MODEL 6
REMARK VINA RESULT:      -5.5      2.188      2.910
REMARK  7 active torsions:
REMARK  status: ('A' for Active; 'I' for Inactive)
REMARK    1  A    between atoms: C_2  and  C_3 
REMARK    2  A    between atoms: C_3  and  O_6 
REMARK    3  A    between atoms: C_3  and  C_4 
REMARK    4  A    between atoms: C_7  and  O_6 
REMARK    5  A    between atoms: C_9  and  C_10 
REMARK    6  A    between atoms: N_15  and  C_14 
REMARK    7  A    between atoms: N_20  and  C_19 
REMARK       I    between atoms: C_22  and  N_20 
ROOT
ATOM      1  C   LIG d   1      -5.441  77.806 117.053  0.00  0.00     0.161 C 
ATOM      2  C   LIG d   1      -6.290  78.919 117.162  0.00  0.00     0.016 C 
ATOM      3  C   LIG d   1      -5.899  80.141 117.755  0.00  0.00     0.038 C 
ATOM      4  C   LIG d   1      -4.574  80.385 118.146  0.00  0.00     0.028 C 
ATOM      5  C   LIG d   1      -3.809  79.118 118.517  0.00  0.00    -0.047 C 
ATOM      6  C   LIG d   1      -3.958  78.089 117.373  0.00  0.00     0.091 C 
ENDROOT
BRANCH   1   7
ATOM      7  O   LIG d   1      -5.567  77.222 115.741  0.00  0.00    -0.368 OA
BRANCH   7   8
ATOM      8  C   LIG d   1      -6.443  76.072 115.637  0.00  0.00     0.119 C 
BRANCH   8   9
ATOM      9  C   LIG d   1      -7.038  75.816 117.035  0.00  0.00     0.028 C 
ATOM     10  C   LIG d   1      -8.572  75.929 117.049  0.00  0.00     0.006 C 
ENDBRANCH   8   9
BRANCH   8  11
ATOM     11  C   LIG d   1      -5.658  74.803 115.292  0.00  0.00     0.028 C 
ATOM     12  C   LIG d   1      -4.953  74.891 113.928  0.00  0.00     0.006 C 
ENDBRANCH   8  11
ENDBRANCH   7   8
ENDBRANCH   1   7
BRANCH   6  13
ATOM     13  N   LIG d   1      -3.310  76.790 117.691  0.00  0.00    -0.311 N 
ATOM     14  C   LIG d   1      -2.513  76.142 116.844  0.00  0.00     0.210 C 
ATOM     15  C   LIG d   1      -1.965  74.809 117.363  0.00  0.00     0.109 C 
ATOM     16  O   LIG d   1      -2.183  76.559 115.724  0.00  0.00    -0.276 OA
ATOM     17  H   LIG d   1      -3.499  76.395 118.591  0.00  0.00     0.149 HD
ENDBRANCH   6  13
BRANCH   5  18
ATOM     18  N   LIG d   1      -2.408  79.502 118.770  0.00  0.00     0.381 N 
ATOM     19  H   LIG d   1      -2.379  80.365 119.277  0.00  0.00    -0.090 HD
ATOM     20  H   LIG d   1      -1.943  79.638 117.890  0.00  0.00    -0.090 HD
ATOM     21  H   LIG d   1      -1.947  78.788 119.290  0.00  0.00    -0.090 HD
ENDBRANCH   5  18
BRANCH   3  22
ATOM     22  C   LIG d   1      -6.848  81.122 117.999  0.00  0.00     0.382 C 
ATOM     23  O   LIG d   1      -7.620  81.490 117.081  0.00  0.00    -0.241 OA
ATOM     24  O   LIG d   1      -6.913  81.675 119.113  0.00  0.00    -0.241 OA
ENDBRANCH   3  22
TORSDOF 7
ENDMDL
MODEL 7
REMARK VINA RESULT:      -5.4      4.783      6.791
REMARK  7 active torsions:
REMARK  status: ('A' for Active; 'I' for Inactive)
REMARK    1  A    between atoms: C_2  and  C_3 
REMARK    2  A    between atoms: C_3  and  O_6 
REMARK    3  A    between atoms: C_3  and  C_4 
REMARK    4  A    between atoms: C_7  and  O_6 
REMARK    5  A    between atoms: C_9  and  C_10 
REMARK    6  A    between atoms: N_15  and  C_14 
REMARK    7  A    between atoms: N_20  and  C_19 
REMARK       I    between atoms: C_22  and  N_20 
ROOT
ATOM      1  C   LIG d   1      -1.071  77.548 115.009  0.00  0.00     0.161 C 
ATOM      2  C   LIG d   1      -2.362  77.274 114.528  0.00  0.00     0.016 C 
ATOM      3  C   LIG d   1      -3.083  76.103 114.856  0.00  0.00     0.038 C 
ATOM      4  C   LIG d   1      -2.617  75.190 115.814  0.00  0.00     0.028 C 
ATOM      5  C   LIG d   1      -1.098  75.170 115.944  0.00  0.00    -0.047 C 
ATOM      6  C   LIG d   1      -0.592  76.617 116.143  0.00  0.00     0.091 C 
ENDROOT
BRANCH   1   7
ATOM      7  O   LIG d   1      -0.984  78.926 115.422  0.00  0.00    -0.368 OA
BRANCH   7   8
ATOM      8  C   LIG d   1      -2.245  79.617 115.604  0.00  0.00     0.119 C 
BRANCH   8   9
ATOM      9  C   LIG d   1      -2.165  80.940 114.818  0.00  0.00     0.028 C 
ATOM     10  C   LIG d   1      -2.515  80.762 113.331  0.00  0.00     0.006 C 
ENDBRANCH   8   9
BRANCH   8  11
ATOM     11  C   LIG d   1      -2.451  80.024 117.066  0.00  0.00     0.028 C 
ATOM     12  C   LIG d   1      -1.174  79.885 117.909  0.00  0.00     0.006 C 
ENDBRANCH   8  11
ENDBRANCH   7   8
ENDBRANCH   1   7
BRANCH   6  13
ATOM     13  N   LIG d   1       0.891  76.697 116.194  0.00  0.00    -0.311 N 
ATOM     14  C   LIG d   1       1.583  76.763 117.331  0.00  0.00     0.210 C 
ATOM     15  C   LIG d   1       3.102  76.860 117.158  0.00  0.00     0.109 C 
ATOM     16  O   LIG d   1       1.084  76.718 118.465  0.00  0.00    -0.276 OA
ATOM     17  H   LIG d   1       1.378  76.707 115.319  0.00  0.00     0.149 HD
ENDBRANCH   6  13
BRANCH   5  18
ATOM     18  N   LIG d   1      -0.758  74.279 117.070  0.00  0.00     0.381 N 
ATOM     19  H   LIG d   1      -1.587  73.839 117.415  0.00  0.00    -0.090 HD
ATOM     20  H   LIG d   1      -0.361  74.829 117.811  0.00  0.00    -0.090 HD
ATOM     21  H   LIG d   1      -0.105  73.588 116.773  0.00  0.00    -0.090 HD
ENDBRANCH   5  18
BRANCH   3  22
ATOM     22  C   LIG d   1      -4.265  75.815 114.193  0.00  0.00     0.382 C 
ATOM     23  O   LIG d   1      -5.091  75.018 114.700  0.00  0.00    -0.241 OA
ATOM     24  O   LIG d   1      -4.497  76.308 113.072  0.00  0.00    -0.241 OA
ENDBRANCH   3  22
TORSDOF 7
ENDMDL
MODEL 8
REMARK VINA RESULT:      -5.4     10.618     13.856
REMARK  7 active torsions:
REMARK  status: ('A' for Active; 'I' for Inactive)
REMARK    1  A    between atoms: C_2  and  C_3 
REMARK    2  A    between atoms: C_3  and  O_6 
REMARK    3  A    between atoms: C_3  and  C_4 
REMARK    4  A    between atoms: C_7  and  O_6 
REMARK    5  A    between atoms: C_9  and  C_10 
REMARK    6  A    between atoms: N_15  and  C_14 
REMARK    7  A    between atoms: N_20  and  C_19 
REMARK       I    between atoms: C_22  and  N_20 
ROOT
ATOM      1  C   LIG d   1       1.895  86.816 114.512  0.00  0.00     0.161 C 
ATOM      2  C   LIG d   1       2.813  87.870 114.373  0.00  0.00     0.016 C 
ATOM      3  C   LIG d   1       3.679  88.006 113.264  0.00  0.00     0.038 C 
ATOM      4  C   LIG d   1       3.580  87.173 112.139  0.00  0.00     0.028 C 
ATOM      5  C   LIG d   1       3.014  85.793 112.456  0.00  0.00    -0.047 C 
ATOM      6  C   LIG d   1       1.695  85.960 113.244  0.00  0.00     0.091 C 
ENDROOT
BRANCH   1   7
ATOM      7  O   LIG d   1       0.630  87.328 114.976  0.00  0.00    -0.368 OA
BRANCH   7   8
ATOM      8  C   LIG d   1       0.406  87.273 116.407  0.00  0.00     0.119 C 
BRANCH   8   9
ATOM      9  C   LIG d   1       1.264  86.121 116.965  0.00  0.00     0.028 C 
ATOM     10  C   LIG d   1       2.024  86.521 118.241  0.00  0.00     0.006 C 
ENDBRANCH   8   9
BRANCH   8  11
ATOM     11  C   LIG d   1      -1.042  86.892 116.729  0.00  0.00     0.028 C 
ATOM     12  C   LIG d   1      -1.537  87.499 118.052  0.00  0.00     0.006 C 
ENDBRANCH   8  11
ENDBRANCH   7   8
ENDBRANCH   1   7
BRANCH   6  13
ATOM     13  N   LIG d   1       1.118  84.658 113.667  0.00  0.00    -0.311 N 
ATOM     14  C   LIG d   1      -0.174  84.355 113.549  0.00  0.00     0.210 C 
ATOM     15  C   LIG d   1      -0.563  82.966 114.064  0.00  0.00     0.109 C 
ATOM     16  O   LIG d   1      -1.029  85.093 113.037  0.00  0.00    -0.276 OA
ATOM     17  H   LIG d   1       1.746  83.988 114.064  0.00  0.00     0.149 HD
ENDBRANCH   6  13
BRANCH   5  18
ATOM     18  N   LIG d   1       2.836  85.080 111.176  0.00  0.00     0.381 N 
ATOM     19  H   LIG d   1       2.327  85.655 110.536  0.00  0.00    -0.090 HD
ATOM     20  H   LIG d   1       2.304  84.244 111.341  0.00  0.00    -0.090 HD
ATOM     21  H   LIG d   1       3.724  84.846 110.790  0.00  0.00    -0.090 HD
ENDBRANCH   5  18
BRANCH   3  22
ATOM     22  C   LIG d   1       4.686  88.959 113.290  0.00  0.00     0.382 C 
ATOM     23  O   LIG d   1       4.394  90.179 113.292  0.00  0.00    -0.241 OA
ATOM     24  O   LIG d   1       5.883  88.615 113.268  0.00  0.00    -0.241 OA
ENDBRANCH   3  22
TORSDOF 7
ENDMDL
MODEL 9
REMARK VINA RESULT:      -5.3      4.559      6.135
REMARK  7 active torsions:
REMARK  status: ('A' for Active; 'I' for Inactive)
REMARK    1  A    between atoms: C_2  and  C_3 
REMARK    2  A    between atoms: C_3  and  O_6 
REMARK    3  A    between atoms: C_3  and  C_4 
REMARK    4  A    between atoms: C_7  and  O_6 
REMARK    5  A    between atoms: C_9  and  C_10 
REMARK    6  A    between atoms: N_15  and  C_14 
REMARK    7  A    between atoms: N_20  and  C_19 
REMARK       I    between atoms: C_22  and  N_20 
ROOT
ATOM      1  C   LIG d   1      -2.169  78.654 115.454  0.00  0.00     0.161 C 
ATOM      2  C   LIG d   1      -2.575  79.523 114.427  0.00  0.00     0.016 C 
ATOM      3  C   LIG d   1      -1.817  80.640 114.009  0.00  0.00     0.038 C 
ATOM      4  C   LIG d   1      -0.520  80.878 114.489  0.00  0.00     0.028 C 
ATOM      5  C   LIG d   1      -0.280  80.318 115.887  0.00  0.00    -0.047 C 
ATOM      6  C   LIG d   1      -0.707  78.833 115.913  0.00  0.00     0.091 C 
ENDROOT
BRANCH   1   7
ATOM      7  O   LIG d   1      -2.406  77.288 115.060  0.00  0.00    -0.368 OA
BRANCH   7   8
ATOM      8  C   LIG d   1      -3.751  76.790 115.265  0.00  0.00     0.119 C 
BRANCH   8   9
ATOM      9  C   LIG d   1      -3.728  75.896 116.520  0.00  0.00     0.028 C 
ATOM     10  C   LIG d   1      -2.368  75.206 116.724  0.00  0.00     0.006 C 
ENDBRANCH   8   9
BRANCH   8  11
ATOM     11  C   LIG d   1      -4.185  75.870 114.120  0.00  0.00     0.028 C 
ATOM     12  C   LIG d   1      -5.534  75.182 114.386  0.00  0.00     0.006 C 
ENDBRANCH   8  11
ENDBRANCH   7   8
ENDBRANCH   1   7
BRANCH   6  13
ATOM     13  N   LIG d   1      -0.583  78.231 117.266  0.00  0.00    -0.311 N 
ATOM     14  C   LIG d   1       0.469  77.513 117.656  0.00  0.00     0.210 C 
ATOM     15  C   LIG d   1       0.386  76.968 119.085  0.00  0.00     0.109 C 
ATOM     16  O   LIG d   1       1.477  77.303 116.964  0.00  0.00    -0.276 OA
ATOM     17  H   LIG d   1      -1.342  78.379 117.902  0.00  0.00     0.149 HD
ENDBRANCH   6  13
BRANCH   5  18
ATOM     18  N   LIG d   1       1.147  80.516 116.206  0.00  0.00     0.381 N 
ATOM     19  H   LIG d   1       1.269  80.558 117.198  0.00  0.00    -0.090 HD
ATOM     20  H   LIG d   1       1.450  81.389 115.813  0.00  0.00    -0.090 HD
ATOM     21  H   LIG d   1       1.687  79.768 115.829  0.00  0.00    -0.090 HD
ENDBRANCH   5  18
BRANCH   3  22
ATOM     22  C   LIG d   1      -2.371  81.556 113.128  0.00  0.00     0.382 C 
ATOM     23  O   LIG d   1      -3.616  81.602 112.972  0.00  0.00    -0.241 OA
ATOM     24  O   LIG d   1      -1.641  82.307 112.454  0.00  0.00    -0.241 OA
ENDBRANCH   3  22
TORSDOF 7
ENDMDL
