MODEL 1
REMARK VINA RESULT:      -5.3      0.000      0.000
REMARK  7 active torsions:
REMARK  status: ('A' for Active; 'I' for Inactive)
REMARK    1  A    between atoms: C_2  and  C_3 
REMARK    2  A    between atoms: C_3  and  O_6 
REMARK    3  A    between atoms: C_3  and  C_4 
REMARK    4  A    between atoms: C_7  and  O_6 
REMARK    5  A    between atoms: C_9  and  C_10 
REMARK    6  A    between atoms: N_15  and  C_14 
REMARK    7  A    between atoms: N_20  and  C_19 
REMARK       I    between atoms: C_22  and  N_20 
ROOT
ATOM      1  C   LIG d   1       2.963  86.856 114.523  0.00  0.00     0.161 C 
ATOM      2  C   LIG d   1       2.501  88.104 114.072  0.00  0.00     0.016 C 
ATOM      3  C   LIG d   1       3.276  89.286 114.126  0.00  0.00     0.038 C 
ATOM      4  C   LIG d   1       4.629  89.269 114.497  0.00  0.00     0.028 C 
ATOM      5  C   LIG d   1       4.985  88.123 115.438  0.00  0.00    -0.047 C 
ATOM      6  C   LIG d   1       4.474  86.797 114.829  0.00  0.00     0.091 C 
ENDROOT
BRANCH   1   7
ATOM      7  O   LIG d   1       2.602  85.831 113.577  0.00  0.00    -0.368 OA
BRANCH   7   8
ATOM      8  C   LIG d   1       2.522  86.244 112.190  0.00  0.00     0.119 C 
BRANCH   8   9
ATOM      9  C   LIG d   1       1.269  85.583 111.582  0.00  0.00     0.028 C 
ATOM     10  C   LIG d   1       1.150  84.096 111.957  0.00  0.00     0.006 C 
ENDBRANCH   8   9
BRANCH   8  11
ATOM     11  C   LIG d   1       3.701  85.701 111.378  0.00  0.00     0.028 C 
ATOM     12  C   LIG d   1       4.948  86.595 111.467  0.00  0.00     0.006 C 
ENDBRANCH   8  11
ENDBRANCH   7   8
ENDBRANCH   1   7
BRANCH   6  13
ATOM     13  N   LIG d   1       4.707  85.635 115.725  0.00  0.00    -0.311 N 
ATOM     14  C   LIG d   1       5.120  84.445 115.291  0.00  0.00     0.210 C 
ATOM     15  C   LIG d   1       5.277  83.379 116.379  0.00  0.00     0.109 C 
ATOM     16  O   LIG d   1       5.402  84.181 114.112  0.00  0.00    -0.276 OA
ATOM     17  H   LIG d   1       4.532  85.770 116.702  0.00  0.00     0.149 HD
ENDBRANCH   6  13
BRANCH   5  18
ATOM     18  N   LIG d   1       6.447  88.144 115.633  0.00  0.00     0.381 N 
ATOM     19  H   LIG d   1       6.859  88.825 115.028  0.00  0.00    -0.090 HD
ATOM     20  H   LIG d   1       6.820  87.242 115.395  0.00  0.00    -0.090 HD
ATOM     21  H   LIG d   1       6.661  88.360 116.582  0.00  0.00    -0.090 HD
ENDBRANCH   5  18
BRANCH   3  22
ATOM     22  C   LIG d   1       2.686  90.508 113.843  0.00  0.00     0.382 C 
ATOM     23  O   LIG d   1       2.219  91.209 114.773  0.00  0.00    -0.241 OA
ATOM     24  O   LIG d   1       2.574  90.898 112.665  0.00  0.00    -0.241 OA
ENDBRANCH   3  22
TORSDOF 7
ENDMDL
MODEL 2
REMARK VINA RESULT:      -5.3     11.510     14.044
REMARK  7 active torsions:
REMARK  status: ('A' for Active; 'I' for Inactive)
REMARK    1  A    between atoms: C_2  and  C_3 
REMARK    2  A    between atoms: C_3  and  O_6 
REMARK    3  A    between atoms: C_3  and  C_4 
REMARK    4  A    between atoms: C_7  and  O_6 
REMARK    5  A    between atoms: C_9  and  C_10 
REMARK    6  A    between atoms: N_15  and  C_14 
REMARK    7  A    between atoms: N_20  and  C_19 
REMARK       I    between atoms: C_22  and  N_20 
ROOT
ATOM      1  C   LIG d   1      -3.584  75.420 115.717  0.00  0.00     0.161 C 
ATOM      2  C   LIG d   1      -3.886  76.269 114.640  0.00  0.00     0.016 C 
ATOM      3  C   LIG d   1      -2.904  76.964 113.897  0.00  0.00     0.038 C 
ATOM      4  C   LIG d   1      -1.533  76.737 114.086  0.00  0.00     0.028 C 
ATOM      5  C   LIG d   1      -1.185  76.273 115.497  0.00  0.00    -0.047 C 
ATOM      6  C   LIG d   1      -2.088  75.074 115.868  0.00  0.00     0.091 C 
ENDROOT
BRANCH   1   7
ATOM      7  O   LIG d   1      -4.370  74.216 115.626  0.00  0.00    -0.368 OA
BRANCH   7   8
ATOM      8  C   LIG d   1      -5.141  73.867 116.803  0.00  0.00     0.119 C 
BRANCH   8   9
ATOM      9  C   LIG d   1      -6.484  73.286 116.320  0.00  0.00     0.028 C 
ATOM     10  C   LIG d   1      -6.570  71.763 116.520  0.00  0.00     0.006 C 
ENDBRANCH   8   9
BRANCH   8  11
ATOM     11  C   LIG d   1      -5.507  75.111 117.618  0.00  0.00     0.028 C 
ATOM     12  C   LIG d   1      -6.989  75.494 117.487  0.00  0.00     0.006 C 
ENDBRANCH   8  11
ENDBRANCH   7   8
ENDBRANCH   1   7
BRANCH   6  13
ATOM     13  N   LIG d   1      -1.871  74.612 117.264  0.00  0.00    -0.311 N 
ATOM     14  C   LIG d   1      -1.043  73.620 117.587  0.00  0.00     0.210 C 
ATOM     15  C   LIG d   1      -0.982  73.290 119.082  0.00  0.00     0.109 C 
ATOM     16  O   LIG d   1      -0.328  73.005 116.782  0.00  0.00    -0.276 OA
ATOM     17  H   LIG d   1      -2.388  75.078 117.984  0.00  0.00     0.149 HD
ENDBRANCH   6  13
BRANCH   5  18
ATOM     18  N   LIG d   1       0.252  75.943 115.516  0.00  0.00     0.381 N 
ATOM     19  H   LIG d   1       0.786  76.733 115.212  0.00  0.00    -0.090 HD
ATOM     20  H   LIG d   1       0.420  75.185 114.877  0.00  0.00    -0.090 HD
ATOM     21  H   LIG d   1       0.530  75.679 116.436  0.00  0.00    -0.090 HD
ENDBRANCH   5  18
BRANCH   3  22
ATOM     22  C   LIG d   1      -3.292  77.927 112.978  0.00  0.00     0.382 C 
ATOM     23  O   LIG d   1      -2.925  79.118 113.126  0.00  0.00    -0.241 OA
ATOM     24  O   LIG d   1      -4.040  77.629 112.028  0.00  0.00    -0.241 OA
ENDBRANCH   3  22
TORSDOF 7
ENDMDL
MODEL 3
REMARK VINA RESULT:      -5.3     14.433     17.059
REMARK  7 active torsions:
REMARK  status: ('A' for Active; 'I' for Inactive)
REMARK    1  A    between atoms: C_2  and  C_3 
REMARK    2  A    between atoms: C_3  and  O_6 
REMARK    3  A    between atoms: C_3  and  C_4 
REMARK    4  A    between atoms: C_7  and  O_6 
REMARK    5  A    between atoms: C_9  and  C_10 
REMARK    6  A    between atoms: N_15  and  C_14 
REMARK    7  A    between atoms: N_20  and  C_19 
REMARK       I    between atoms: C_22  and  N_20 
ROOT
ATOM      1  C   LIG d   1      -7.936  75.277 117.848  0.00  0.00     0.161 C 
ATOM      2  C   LIG d   1      -9.306  74.966 117.835  0.00  0.00     0.016 C 
ATOM      3  C   LIG d   1     -10.325  75.933 117.996  0.00  0.00     0.038 C 
ATOM      4  C   LIG d   1     -10.044  77.307 118.030  0.00  0.00     0.028 C 
ATOM      5  C   LIG d   1      -8.648  77.628 118.553  0.00  0.00    -0.047 C 
ATOM      6  C   LIG d   1      -7.614  76.785 117.773  0.00  0.00     0.091 C 
ENDROOT
BRANCH   1   7
ATOM      7  O   LIG d   1      -7.263  74.568 116.789  0.00  0.00    -0.368 OA
BRANCH   7   8
ATOM      8  C   LIG d   1      -6.323  73.547 117.202  0.00  0.00     0.119 C 
BRANCH   8   9
ATOM      9  C   LIG d   1      -4.907  74.065 116.884  0.00  0.00     0.028 C 
ATOM     10  C   LIG d   1      -4.855  74.863 115.570  0.00  0.00     0.006 C 
ENDBRANCH   8   9
BRANCH   8  11
ATOM     11  C   LIG d   1      -6.484  72.271 116.370  0.00  0.00     0.028 C 
ATOM     12  C   LIG d   1      -7.927  71.742 116.364  0.00  0.00     0.006 C 
ENDBRANCH   8  11
ENDBRANCH   7   8
ENDBRANCH   1   7
BRANCH   6  13
ATOM     13  N   LIG d   1      -6.230  76.975 118.279  0.00  0.00    -0.311 N 
ATOM     14  C   LIG d   1      -5.382  77.871 117.776  0.00  0.00     0.210 C 
ATOM     15  C   LIG d   1      -3.997  77.889 118.431  0.00  0.00     0.109 C 
ATOM     16  O   LIG d   1      -5.656  78.674 116.872  0.00  0.00    -0.276 OA
ATOM     17  H   LIG d   1      -5.935  76.386 119.033  0.00  0.00     0.149 HD
ENDBRANCH   6  13
BRANCH   5  18
ATOM     18  N   LIG d   1      -8.439  79.081 118.405  0.00  0.00     0.381 N 
ATOM     19  H   LIG d   1      -7.461  79.286 118.429  0.00  0.00    -0.090 HD
ATOM     20  H   LIG d   1      -8.879  79.552 119.176  0.00  0.00    -0.090 HD
ATOM     21  H   LIG d   1      -8.832  79.396 117.546  0.00  0.00    -0.090 HD
ENDBRANCH   5  18
BRANCH   3  22
ATOM     22  C   LIG d   1     -11.639  75.525 118.164  0.00  0.00     0.382 C 
ATOM     23  O   LIG d   1     -11.887  74.382 118.620  0.00  0.00    -0.241 OA
ATOM     24  O   LIG d   1     -12.580  76.267 117.825  0.00  0.00    -0.241 OA
ENDBRANCH   3  22
TORSDOF 7
ENDMDL
MODEL 4
REMARK VINA RESULT:      -5.2     27.128     30.078
REMARK  7 active torsions:
REMARK  status: ('A' for Active; 'I' for Inactive)
REMARK    1  A    between atoms: C_2  and  C_3 
REMARK    2  A    between atoms: C_3  and  O_6 
REMARK    3  A    between atoms: C_3  and  C_4 
REMARK    4  A    between atoms: C_7  and  O_6 
REMARK    5  A    between atoms: C_9  and  C_10 
REMARK    6  A    between atoms: N_15  and  C_14 
REMARK    7  A    between atoms: N_20  and  C_19 
REMARK       I    between atoms: C_22  and  N_20 
ROOT
ATOM      1  C   LIG d   1     -16.757  65.703 115.202  0.00  0.00     0.161 C 
ATOM      2  C   LIG d   1     -15.489  66.306 115.223  0.00  0.00     0.016 C 
ATOM      3  C   LIG d   1     -15.160  67.399 116.058  0.00  0.00     0.038 C 
ATOM      4  C   LIG d   1     -16.039  67.868 117.045  0.00  0.00     0.028 C 
ATOM      5  C   LIG d   1     -17.507  67.620 116.716  0.00  0.00    -0.047 C 
ATOM      6  C   LIG d   1     -17.695  66.130 116.351  0.00  0.00     0.091 C 
ENDROOT
BRANCH   1   7
ATOM      7  O   LIG d   1     -16.616  64.269 115.178  0.00  0.00    -0.368 OA
BRANCH   7   8
ATOM      8  C   LIG d   1     -16.948  63.617 113.927  0.00  0.00     0.119 C 
BRANCH   8   9
ATOM      9  C   LIG d   1     -17.508  64.695 112.978  0.00  0.00     0.028 C 
ATOM     10  C   LIG d   1     -18.950  64.396 112.536  0.00  0.00     0.006 C 
ENDBRANCH   8   9
BRANCH   8  11
ATOM     11  C   LIG d   1     -18.086  62.608 114.110  0.00  0.00     0.028 C 
ATOM     12  C   LIG d   1     -17.590  61.154 114.157  0.00  0.00     0.006 C 
ENDBRANCH   8  11
ENDBRANCH   7   8
ENDBRANCH   1   7
BRANCH   6  13
ATOM     13  N   LIG d   1     -19.087  65.819 115.934  0.00  0.00    -0.311 N 
ATOM     14  C   LIG d   1     -19.809  64.835 116.467  0.00  0.00     0.210 C 
ATOM     15  C   LIG d   1     -21.215  64.673 115.878  0.00  0.00     0.109 C 
ATOM     16  O   LIG d   1     -19.431  64.101 117.392  0.00  0.00    -0.276 OA
ATOM     17  H   LIG d   1     -19.484  66.386 115.210  0.00  0.00     0.149 HD
ENDBRANCH   6  13
BRANCH   5  18
ATOM     18  N   LIG d   1     -18.302  68.033 117.888  0.00  0.00     0.381 N 
ATOM     19  H   LIG d   1     -18.308  67.300 118.569  0.00  0.00    -0.090 HD
ATOM     20  H   LIG d   1     -19.249  68.200 117.596  0.00  0.00    -0.090 HD
ATOM     21  H   LIG d   1     -17.919  68.862 118.285  0.00  0.00    -0.090 HD
ENDBRANCH   5  18
BRANCH   3  22
ATOM     22  C   LIG d   1     -13.953  68.059 115.882  0.00  0.00     0.382 C 
ATOM     23  O   LIG d   1     -13.865  68.991 115.047  0.00  0.00    -0.241 OA
ATOM     24  O   LIG d   1     -12.941  67.706 116.517  0.00  0.00    -0.241 OA
ENDBRANCH   3  22
TORSDOF 7
ENDMDL
MODEL 5
REMARK VINA RESULT:      -5.2     15.173     16.995
REMARK  7 active torsions:
REMARK  status: ('A' for Active; 'I' for Inactive)
REMARK    1  A    between atoms: C_2  and  C_3 
REMARK    2  A    between atoms: C_3  and  O_6 
REMARK    3  A    between atoms: C_3  and  C_4 
REMARK    4  A    between atoms: C_7  and  O_6 
REMARK    5  A    between atoms: C_9  and  C_10 
REMARK    6  A    between atoms: N_15  and  C_14 
REMARK    7  A    between atoms: N_20  and  C_19 
REMARK       I    between atoms: C_22  and  N_20 
ROOT
ATOM      1  C   LIG d   1      -7.626  75.924 117.641  0.00  0.00     0.161 C 
ATOM      2  C   LIG d   1      -7.888  77.270 117.945  0.00  0.00     0.016 C 
ATOM      3  C   LIG d   1      -9.184  77.770 118.208  0.00  0.00     0.038 C 
ATOM      4  C   LIG d   1     -10.294  76.923 118.334  0.00  0.00     0.028 C 
ATOM      5  C   LIG d   1     -10.162  75.628 117.539  0.00  0.00    -0.047 C 
ATOM      6  C   LIG d   1      -8.809  74.964 117.884  0.00  0.00     0.091 C 
ENDROOT
BRANCH   1   7
ATOM      7  O   LIG d   1      -6.462  75.477 118.365  0.00  0.00    -0.368 OA
BRANCH   7   8
ATOM      8  C   LIG d   1      -5.198  75.580 117.664  0.00  0.00     0.119 C 
BRANCH   8   9
ATOM      9  C   LIG d   1      -4.916  74.211 117.014  0.00  0.00     0.028 C 
ATOM     10  C   LIG d   1      -5.154  74.223 115.495  0.00  0.00     0.006 C 
ENDBRANCH   8   9
BRANCH   8  11
ATOM     11  C   LIG d   1      -4.039  75.812 118.638  0.00  0.00     0.028 C 
ATOM     12  C   LIG d   1      -2.811  74.944 118.321  0.00  0.00     0.006 C 
ENDBRANCH   8  11
ENDBRANCH   7   8
ENDBRANCH   1   7
BRANCH   6  13
ATOM     13  N   LIG d   1      -8.562  73.734 117.086  0.00  0.00    -0.311 N 
ATOM     14  C   LIG d   1      -8.096  72.602 117.610  0.00  0.00     0.210 C 
ATOM     15  C   LIG d   1      -7.894  71.461 116.608  0.00  0.00     0.109 C 
ATOM     16  O   LIG d   1      -7.861  72.424 118.815  0.00  0.00    -0.276 OA
ATOM     17  H   LIG d   1      -8.756  73.781 116.105  0.00  0.00     0.149 HD
ENDBRANCH   6  13
BRANCH   5  18
ATOM     18  N   LIG d   1     -11.323  74.781 117.870  0.00  0.00     0.381 N 
ATOM     19  H   LIG d   1     -11.015  73.953 118.340  0.00  0.00    -0.090 HD
ATOM     20  H   LIG d   1     -11.780  74.509 117.018  0.00  0.00    -0.090 HD
ATOM     21  H   LIG d   1     -11.958  75.284 118.451  0.00  0.00    -0.090 HD
ENDBRANCH   5  18
BRANCH   3  22
ATOM     22  C   LIG d   1      -9.385  79.139 118.308  0.00  0.00     0.382 C 
ATOM     23  O   LIG d   1     -10.534  79.589 118.532  0.00  0.00    -0.241 OA
ATOM     24  O   LIG d   1      -8.439  79.931 118.133  0.00  0.00    -0.241 OA
ENDBRANCH   3  22
TORSDOF 7
ENDMDL
MODEL 6
REMARK VINA RESULT:      -5.2     14.642     17.509
REMARK  7 active torsions:
REMARK  status: ('A' for Active; 'I' for Inactive)
REMARK    1  A    between atoms: C_2  and  C_3 
REMARK    2  A    between atoms: C_3  and  O_6 
REMARK    3  A    between atoms: C_3  and  C_4 
REMARK    4  A    between atoms: C_7  and  O_6 
REMARK    5  A    between atoms: C_9  and  C_10 
REMARK    6  A    between atoms: N_15  and  C_14 
REMARK    7  A    between atoms: N_20  and  C_19 
REMARK       I    between atoms: C_22  and  N_20 
ROOT
ATOM      1  C   LIG d   1      -8.145  75.174 117.767  0.00  0.00     0.161 C 
ATOM      2  C   LIG d   1      -8.114  73.826 117.375  0.00  0.00     0.016 C 
ATOM      3  C   LIG d   1      -6.969  73.200 116.830  0.00  0.00     0.038 C 
ATOM      4  C   LIG d   1      -5.725  73.846 116.779  0.00  0.00     0.028 C 
ATOM      5  C   LIG d   1      -5.833  75.364 116.695  0.00  0.00    -0.047 C 
ATOM      6  C   LIG d   1      -6.766  75.864 117.822  0.00  0.00     0.091 C 
ENDROOT
BRANCH   1   7
ATOM      7  O   LIG d   1      -8.819  75.299 119.035  0.00  0.00    -0.368 OA
BRANCH   7   8
ATOM      8  C   LIG d   1     -10.138  75.896 119.000  0.00  0.00     0.119 C 
BRANCH   8   9
ATOM      9  C   LIG d   1     -11.097  74.862 118.378  0.00  0.00     0.028 C 
ATOM     10  C   LIG d   1     -12.480  75.459 118.065  0.00  0.00     0.006 C 
ENDBRANCH   8   9
BRANCH   8  11
ATOM     11  C   LIG d   1     -10.179  77.104 118.059  0.00  0.00     0.028 C 
ATOM     12  C   LIG d   1     -10.271  78.442 118.810  0.00  0.00     0.006 C 
ENDBRANCH   8  11
ENDBRANCH   7   8
ENDBRANCH   1   7
BRANCH   6  13
ATOM     13  N   LIG d   1      -6.993  77.331 117.761  0.00  0.00    -0.311 N 
ATOM     14  C   LIG d   1      -6.284  78.213 118.463  0.00  0.00     0.210 C 
ATOM     15  C   LIG d   1      -6.696  79.676 118.268  0.00  0.00     0.109 C 
ATOM     16  O   LIG d   1      -5.332  77.926 119.204  0.00  0.00    -0.276 OA
ATOM     17  H   LIG d   1      -7.727  77.654 117.161  0.00  0.00     0.149 HD
ENDBRANCH   6  13
BRANCH   5  18
ATOM     18  N   LIG d   1      -4.468  75.915 116.788  0.00  0.00     0.381 N 
ATOM     19  H   LIG d   1      -4.366  76.678 116.150  0.00  0.00    -0.090 HD
ATOM     20  H   LIG d   1      -3.811  75.199 116.530  0.00  0.00    -0.090 HD
ATOM     21  H   LIG d   1      -4.287  76.223 117.718  0.00  0.00    -0.090 HD
ENDBRANCH   5  18
BRANCH   3  22
ATOM     22  C   LIG d   1      -7.073  71.927 116.291  0.00  0.00     0.382 C 
ATOM     23  O   LIG d   1      -7.653  71.019 116.934  0.00  0.00    -0.241 OA
ATOM     24  O   LIG d   1      -6.556  71.663 115.189  0.00  0.00    -0.241 OA
ENDBRANCH   3  22
TORSDOF 7
ENDMDL
MODEL 7
REMARK VINA RESULT:      -5.1     13.932     16.845
REMARK  7 active torsions:
REMARK  status: ('A' for Active; 'I' for Inactive)
REMARK    1  A    between atoms: C_2  and  C_3 
REMARK    2  A    between atoms: C_3  and  O_6 
REMARK    3  A    between atoms: C_3  and  C_4 
REMARK    4  A    between atoms: C_7  and  O_6 
REMARK    5  A    between atoms: C_9  and  C_10 
REMARK    6  A    between atoms: N_15  and  C_14 
REMARK    7  A    between atoms: N_20  and  C_19 
REMARK       I    between atoms: C_22  and  N_20 
ROOT
ATOM      1  C   LIG d   1      -6.065  75.093 118.065  0.00  0.00     0.161 C 
ATOM      2  C   LIG d   1      -6.346  73.768 117.690  0.00  0.00     0.016 C 
ATOM      3  C   LIG d   1      -7.635  73.320 117.322  0.00  0.00     0.038 C 
ATOM      4  C   LIG d   1      -8.709  74.207 117.157  0.00  0.00     0.028 C 
ATOM      5  C   LIG d   1      -8.593  75.466 118.010  0.00  0.00    -0.047 C 
ATOM      6  C   LIG d   1      -7.201  76.099 117.783  0.00  0.00     0.091 C 
ENDROOT
BRANCH   1   7
ATOM      7  O   LIG d   1      -4.843  75.529 117.438  0.00  0.00    -0.368 OA
BRANCH   7   8
ATOM      8  C   LIG d   1      -4.050  74.498 116.801  0.00  0.00     0.119 C 
BRANCH   8   9
ATOM      9  C   LIG d   1      -2.715  74.402 117.565  0.00  0.00     0.028 C 
ATOM     10  C   LIG d   1      -1.549  73.974 116.658  0.00  0.00     0.006 C 
ENDBRANCH   8   9
BRANCH   8  11
ATOM     11  C   LIG d   1      -3.671  74.890 115.370  0.00  0.00     0.028 C 
ATOM     12  C   LIG d   1      -4.690  74.402 114.328  0.00  0.00     0.006 C 
ENDBRANCH   8  11
ENDBRANCH   7   8
ENDBRANCH   1   7
BRANCH   6  13
ATOM     13  N   LIG d   1      -6.972  77.288 118.644  0.00  0.00    -0.311 N 
ATOM     14  C   LIG d   1      -6.440  78.425 118.198  0.00  0.00     0.210 C 
ATOM     15  C   LIG d   1      -6.273  79.520 119.256  0.00  0.00     0.109 C 
ATOM     16  O   LIG d   1      -6.121  78.642 117.019  0.00  0.00    -0.276 OA
ATOM     17  H   LIG d   1      -7.231  77.210 119.608  0.00  0.00     0.149 HD
ENDBRANCH   6  13
BRANCH   5  18
ATOM     18  N   LIG d   1      -9.703  76.362 117.637  0.00  0.00     0.381 N 
ATOM     19  H   LIG d   1      -9.396  77.010 116.940  0.00  0.00    -0.090 HD
ATOM     20  H   LIG d   1      -9.988  76.882 118.448  0.00  0.00    -0.090 HD
ATOM     21  H   LIG d   1     -10.470  75.828 117.290  0.00  0.00    -0.090 HD
ENDBRANCH   5  18
BRANCH   3  22
ATOM     22  C   LIG d   1      -7.869  71.964 117.154  0.00  0.00     0.382 C 
ATOM     23  O   LIG d   1      -7.800  71.453 116.010  0.00  0.00    -0.241 OA
ATOM     24  O   LIG d   1      -8.192  71.253 118.125  0.00  0.00    -0.241 OA
ENDBRANCH   3  22
TORSDOF 7
ENDMDL
MODEL 8
REMARK VINA RESULT:      -5.0     14.353     16.832
REMARK  7 active torsions:
REMARK  status: ('A' for Active; 'I' for Inactive)
REMARK    1  A    between atoms: C_2  and  C_3 
REMARK    2  A    between atoms: C_3  and  O_6 
REMARK    3  A    between atoms: C_3  and  C_4 
REMARK    4  A    between atoms: C_7  and  O_6 
REMARK    5  A    between atoms: C_9  and  C_10 
REMARK    6  A    between atoms: N_15  and  C_14 
REMARK    7  A    between atoms: N_20  and  C_19 
REMARK       I    between atoms: C_22  and  N_20 
ROOT
ATOM      1  C   LIG d   1      -7.346  74.622 118.665  0.00  0.00     0.161 C 
ATOM      2  C   LIG d   1      -8.732  74.577 118.438  0.00  0.00     0.016 C 
ATOM      3  C   LIG d   1      -9.496  75.708 118.068  0.00  0.00     0.038 C 
ATOM      4  C   LIG d   1      -8.897  76.936 117.751  0.00  0.00     0.028 C 
ATOM      5  C   LIG d   1      -7.563  77.159 118.454  0.00  0.00    -0.047 C 
ATOM      6  C   LIG d   1      -6.659  75.928 118.216  0.00  0.00     0.091 C 
ENDROOT
BRANCH   1   7
ATOM      7  O   LIG d   1      -6.713  73.484 118.047  0.00  0.00    -0.368 OA
BRANCH   7   8
ATOM      8  C   LIG d   1      -6.576  73.536 116.606  0.00  0.00     0.119 C 
BRANCH   8   9
ATOM      9  C   LIG d   1      -7.003  72.164 116.050  0.00  0.00     0.028 C 
ATOM     10  C   LIG d   1      -7.699  71.292 117.109  0.00  0.00     0.006 C 
ENDBRANCH   8   9
BRANCH   8  11
ATOM     11  C   LIG d   1      -5.111  73.703 116.192  0.00  0.00     0.028 C 
ATOM     12  C   LIG d   1      -4.951  74.403 114.833  0.00  0.00     0.006 C 
ENDBRANCH   8  11
ENDBRANCH   7   8
ENDBRANCH   1   7
BRANCH   6  13
ATOM     13  N   LIG d   1      -5.364  76.027 118.939  0.00  0.00    -0.311 N 
ATOM     14  C   LIG d   1      -4.253  76.516 118.391  0.00  0.00     0.210 C 
ATOM     15  C   LIG d   1      -3.024  76.509 119.305  0.00  0.00     0.109 C 
ATOM     16  O   LIG d   1      -4.177  76.985 117.245  0.00  0.00    -0.276 OA
ATOM     17  H   LIG d   1      -5.344  75.698 119.885  0.00  0.00     0.149 HD
ENDBRANCH   6  13
BRANCH   5  18
ATOM     18  N   LIG d   1      -6.985  78.410 117.928  0.00  0.00     0.381 N 
ATOM     19  H   LIG d   1      -7.561  79.185 118.191  0.00  0.00    -0.090 HD
ATOM     20  H   LIG d   1      -6.962  78.361 116.925  0.00  0.00    -0.090 HD
ATOM     21  H   LIG d   1      -6.063  78.536 118.283  0.00  0.00    -0.090 HD
ENDBRANCH   5  18
BRANCH   3  22
ATOM     22  C   LIG d   1     -10.880  75.626 118.052  0.00  0.00     0.382 C 
ATOM     23  O   LIG d   1     -11.445  74.519 118.222  0.00  0.00    -0.241 OA
ATOM     24  O   LIG d   1     -11.570  76.638 117.824  0.00  0.00    -0.241 OA
ENDBRANCH   3  22
TORSDOF 7
ENDMDL
MODEL 9
REMARK VINA RESULT:      -5.0     14.318     16.767
REMARK  7 active torsions:
REMARK  status: ('A' for Active; 'I' for Inactive)
REMARK    1  A    between atoms: C_2  and  C_3 
REMARK    2  A    between atoms: C_3  and  O_6 
REMARK    3  A    between atoms: C_3  and  C_4 
REMARK    4  A    between atoms: C_7  and  O_6 
REMARK    5  A    between atoms: C_9  and  C_10 
REMARK    6  A    between atoms: N_15  and  C_14 
REMARK    7  A    between atoms: N_20  and  C_19 
REMARK       I    between atoms: C_22  and  N_20 
ROOT
ATOM      1  C   LIG d   1      -7.597  75.921 118.716  0.00  0.00     0.161 C 
ATOM      2  C   LIG d   1      -7.157  77.233 118.472  0.00  0.00     0.016 C 
ATOM      3  C   LIG d   1      -6.273  77.574 117.423  0.00  0.00     0.038 C 
ATOM      4  C   LIG d   1      -5.886  76.644 116.447  0.00  0.00     0.028 C 
ATOM      5  C   LIG d   1      -5.902  75.202 116.944  0.00  0.00    -0.047 C 
ATOM      6  C   LIG d   1      -7.274  74.912 117.595  0.00  0.00     0.091 C 
ENDROOT
BRANCH   1   7
ATOM      7  O   LIG d   1      -9.012  75.925 118.994  0.00  0.00    -0.368 OA
BRANCH   7   8
ATOM      8  C   LIG d   1      -9.851  76.598 118.024  0.00  0.00     0.119 C 
BRANCH   8   9
ATOM      9  C   LIG d   1     -10.791  77.541 118.799  0.00  0.00     0.028 C 
ATOM     10  C   LIG d   1     -10.310  79.002 118.772  0.00  0.00     0.006 C 
ENDBRANCH   8   9
BRANCH   8  11
ATOM     11  C   LIG d   1     -10.772  75.609 117.303  0.00  0.00     0.028 C 
ATOM     12  C   LIG d   1     -12.141  75.464 117.986  0.00  0.00     0.006 C 
ENDBRANCH   8  11
ENDBRANCH   7   8
ENDBRANCH   1   7
BRANCH   6  13
ATOM     13  N   LIG d   1      -7.345  73.549 118.183  0.00  0.00    -0.311 N 
ATOM     14  C   LIG d   1      -7.829  72.493 117.530  0.00  0.00     0.210 C 
ATOM     15  C   LIG d   1      -7.830  71.185 118.327  0.00  0.00     0.109 C 
ATOM     16  O   LIG d   1      -8.229  72.509 116.356  0.00  0.00    -0.276 OA
ATOM     17  H   LIG d   1      -7.013  73.439 119.121  0.00  0.00     0.149 HD
ENDBRANCH   6  13
BRANCH   5  18
ATOM     18  N   LIG d   1      -5.613  74.330 115.790  0.00  0.00     0.381 N 
ATOM     19  H   LIG d   1      -5.830  73.381 116.021  0.00  0.00    -0.090 HD
ATOM     20  H   LIG d   1      -4.633  74.386 115.578  0.00  0.00    -0.090 HD
ATOM     21  H   LIG d   1      -6.149  74.618 115.002  0.00  0.00    -0.090 HD
ENDBRANCH   5  18
BRANCH   3  22
ATOM     22  C   LIG d   1      -5.734  78.851 117.366  0.00  0.00     0.382 C 
ATOM     23  O   LIG d   1      -6.406  79.833 117.764  0.00  0.00    -0.241 OA
ATOM     24  O   LIG d   1      -4.602  79.038 116.881  0.00  0.00    -0.241 OA
ENDBRANCH   3  22
TORSDOF 7
ENDMDL
