MODEL 1
REMARK VINA RESULT:      -5.7      0.000      0.000
REMARK  7 active torsions:
REMARK  status: ('A' for Active; 'I' for Inactive)
REMARK    1  A    between atoms: C_2  and  C_3 
REMARK    2  A    between atoms: C_3  and  O_6 
REMARK    3  A    between atoms: C_3  and  C_4 
REMARK    4  A    between atoms: C_7  and  O_6 
REMARK    5  A    between atoms: C_9  and  C_10 
REMARK    6  A    between atoms: N_15  and  C_14 
REMARK    7  A    between atoms: N_20  and  C_19 
REMARK       I    between atoms: C_22  and  N_20 
ROOT
ATOM      1  C   LIG d   1      -6.195  74.974 116.702  0.00  0.00     0.161 C 
ATOM      2  C   LIG d   1      -6.776  73.719 116.453  0.00  0.00     0.016 C 
ATOM      3  C   LIG d   1      -8.076  73.364 116.879  0.00  0.00     0.038 C 
ATOM      4  C   LIG d   1      -8.948  74.300 117.456  0.00  0.00     0.028 C 
ATOM      5  C   LIG d   1      -8.228  75.431 118.182  0.00  0.00    -0.047 C 
ATOM      6  C   LIG d   1      -7.172  76.044 117.233  0.00  0.00     0.091 C 
ENDROOT
BRANCH   1   7
ATOM      7  O   LIG d   1      -5.529  75.448 115.516  0.00  0.00    -0.368 OA
BRANCH   7   8
ATOM      8  C   LIG d   1      -4.084  75.528 115.585  0.00  0.00     0.119 C 
BRANCH   8   9
ATOM      9  C   LIG d   1      -3.655  74.978 116.959  0.00  0.00     0.028 C 
ATOM     10  C   LIG d   1      -2.888  76.017 117.794  0.00  0.00     0.006 C 
ENDBRANCH   8   9
BRANCH   8  11
ATOM     11  C   LIG d   1      -3.604  76.982 115.563  0.00  0.00     0.028 C 
ATOM     12  C   LIG d   1      -2.820  77.332 114.288  0.00  0.00     0.006 C 
ENDBRANCH   8  11
ENDBRANCH   7   8
ENDBRANCH   1   7
BRANCH   6  13
ATOM     13  N   LIG d   1      -6.364  77.103 117.892  0.00  0.00    -0.311 N 
ATOM     14  C   LIG d   1      -6.670  78.398 117.839  0.00  0.00     0.210 C 
ATOM     15  C   LIG d   1      -5.693  79.324 118.570  0.00  0.00     0.109 C 
ATOM     16  O   LIG d   1      -7.675  78.865 117.283  0.00  0.00    -0.276 OA
ATOM     17  H   LIG d   1      -5.548  76.809 118.392  0.00  0.00     0.149 HD
ENDBRANCH   6  13
BRANCH   5  18
ATOM     18  N   LIG d   1      -9.249  76.404 118.615  0.00  0.00     0.381 N 
ATOM     19  H   LIG d   1     -10.135  75.948 118.703  0.00  0.00    -0.090 HD
ATOM     20  H   LIG d   1      -9.331  77.122 117.917  0.00  0.00    -0.090 HD
ATOM     21  H   LIG d   1      -8.987  76.807 119.488  0.00  0.00    -0.090 HD
ENDBRANCH   5  18
BRANCH   3  22
ATOM     22  C   LIG d   1      -8.502  72.050 116.765  0.00  0.00     0.382 C 
ATOM     23  O   LIG d   1      -9.668  71.737 117.106  0.00  0.00    -0.241 OA
ATOM     24  O   LIG d   1      -7.721  71.165 116.366  0.00  0.00    -0.241 OA
ENDBRANCH   3  22
TORSDOF 7
ENDMDL
MODEL 2
REMARK VINA RESULT:      -5.3      1.331      2.024
REMARK  7 active torsions:
REMARK  status: ('A' for Active; 'I' for Inactive)
REMARK    1  A    between atoms: C_2  and  C_3 
REMARK    2  A    between atoms: C_3  and  O_6 
REMARK    3  A    between atoms: C_3  and  C_4 
REMARK    4  A    between atoms: C_7  and  O_6 
REMARK    5  A    between atoms: C_9  and  C_10 
REMARK    6  A    between atoms: N_15  and  C_14 
REMARK    7  A    between atoms: N_20  and  C_19 
REMARK       I    between atoms: C_22  and  N_20 
ROOT
ATOM      1  C   LIG d   1      -6.455  76.481 117.123  0.00  0.00     0.161 C 
ATOM      2  C   LIG d   1      -6.758  75.149 116.794  0.00  0.00     0.016 C 
ATOM      3  C   LIG d   1      -7.995  74.535 117.096  0.00  0.00     0.038 C 
ATOM      4  C   LIG d   1      -9.076  75.261 117.617  0.00  0.00     0.028 C 
ATOM      5  C   LIG d   1      -8.652  76.481 118.429  0.00  0.00    -0.047 C 
ATOM      6  C   LIG d   1      -7.662  77.322 117.591  0.00  0.00     0.091 C 
ENDROOT
BRANCH   1   7
ATOM      7  O   LIG d   1      -5.800  77.122 116.011  0.00  0.00    -0.368 OA
BRANCH   7   8
ATOM      8  C   LIG d   1      -4.396  77.434 116.191  0.00  0.00     0.119 C 
BRANCH   8   9
ATOM      9  C   LIG d   1      -3.588  76.454 115.319  0.00  0.00     0.028 C 
ATOM     10  C   LIG d   1      -2.360  77.118 114.674  0.00  0.00     0.006 C 
ENDBRANCH   8   9
BRANCH   8  11
ATOM     11  C   LIG d   1      -3.946  77.161 117.630  0.00  0.00     0.028 C 
ATOM     12  C   LIG d   1      -3.420  78.420 118.338  0.00  0.00     0.006 C 
ENDBRANCH   8  11
ENDBRANCH   7   8
ENDBRANCH   1   7
BRANCH   6  13
ATOM     13  N   LIG d   1      -7.132  78.489 118.343  0.00  0.00    -0.311 N 
ATOM     14  C   LIG d   1      -7.562  79.736 118.159  0.00  0.00     0.210 C 
ATOM     15  C   LIG d   1      -6.868  80.793 119.024  0.00  0.00     0.109 C 
ATOM     16  O   LIG d   1      -8.475  80.063 117.386  0.00  0.00    -0.276 OA
ATOM     17  H   LIG d   1      -6.410  78.310 119.013  0.00  0.00     0.149 HD
ENDBRANCH   6  13
BRANCH   5  18
ATOM     18  N   LIG d   1      -9.874  77.220 118.794  0.00  0.00     0.381 N 
ATOM     19  H   LIG d   1     -10.541  76.594 119.199  0.00  0.00    -0.090 HD
ATOM     20  H   LIG d   1     -10.277  77.614 117.962  0.00  0.00    -0.090 HD
ATOM     21  H   LIG d   1      -9.654  77.946 119.440  0.00  0.00    -0.090 HD
ENDBRANCH   5  18
BRANCH   3  22
ATOM     22  C   LIG d   1      -8.146  73.169 116.914  0.00  0.00     0.382 C 
ATOM     23  O   LIG d   1      -7.221  72.499 116.393  0.00  0.00    -0.241 OA
ATOM     24  O   LIG d   1      -9.212  72.604 117.224  0.00  0.00    -0.241 OA
ENDBRANCH   3  22
TORSDOF 7
ENDMDL
MODEL 3
REMARK VINA RESULT:      -5.1     16.343     18.126
REMARK  7 active torsions:
REMARK  status: ('A' for Active; 'I' for Inactive)
REMARK    1  A    between atoms: C_2  and  C_3 
REMARK    2  A    between atoms: C_3  and  O_6 
REMARK    3  A    between atoms: C_3  and  C_4 
REMARK    4  A    between atoms: C_7  and  O_6 
REMARK    5  A    between atoms: C_9  and  C_10 
REMARK    6  A    between atoms: N_15  and  C_14 
REMARK    7  A    between atoms: N_20  and  C_19 
REMARK       I    between atoms: C_22  and  N_20 
ROOT
ATOM      1  C   LIG d   1       3.794  89.214 115.436  0.00  0.00     0.161 C 
ATOM      2  C   LIG d   1       3.012  88.666 114.406  0.00  0.00     0.016 C 
ATOM      3  C   LIG d   1       3.540  88.271 113.155  0.00  0.00     0.038 C 
ATOM      4  C   LIG d   1       4.920  88.258 112.903  0.00  0.00     0.028 C 
ATOM      5  C   LIG d   1       5.697  89.275 113.732  0.00  0.00    -0.047 C 
ATOM      6  C   LIG d   1       5.318  89.103 115.221  0.00  0.00     0.091 C 
ENDROOT
BRANCH   1   7
ATOM      7  O   LIG d   1       3.422  88.623 116.698  0.00  0.00    -0.368 OA
BRANCH   7   8
ATOM      8  C   LIG d   1       2.698  89.481 117.614  0.00  0.00     0.119 C 
BRANCH   8   9
ATOM      9  C   LIG d   1       1.218  89.054 117.576  0.00  0.00     0.028 C 
ATOM     10  C   LIG d   1       0.314  90.126 116.946  0.00  0.00     0.006 C 
ENDBRANCH   8   9
BRANCH   8  11
ATOM     11  C   LIG d   1       2.712  90.938 117.143  0.00  0.00     0.028 C 
ATOM     12  C   LIG d   1       3.472  91.867 118.102  0.00  0.00     0.006 C 
ENDBRANCH   8  11
ENDBRANCH   7   8
ENDBRANCH   1   7
BRANCH   6  13
ATOM     13  N   LIG d   1       5.970  90.116 116.092  0.00  0.00    -0.311 N 
ATOM     14  C   LIG d   1       7.128  89.909 116.716  0.00  0.00     0.210 C 
ATOM     15  C   LIG d   1       7.614  91.076 117.581  0.00  0.00     0.109 C 
ATOM     16  O   LIG d   1       7.815  88.882 116.610  0.00  0.00    -0.276 OA
ATOM     17  H   LIG d   1       5.496  90.990 116.209  0.00  0.00     0.149 HD
ENDBRANCH   6  13
BRANCH   5  18
ATOM     18  N   LIG d   1       7.132  89.059 113.472  0.00  0.00     0.381 N 
ATOM     19  H   LIG d   1       7.293  88.996 112.487  0.00  0.00    -0.090 HD
ATOM     20  H   LIG d   1       7.412  88.190 113.893  0.00  0.00    -0.090 HD
ATOM     21  H   LIG d   1       7.665  89.808 113.855  0.00  0.00    -0.090 HD
ENDBRANCH   5  18
BRANCH   3  22
ATOM     22  C   LIG d   1       2.679  87.922 112.125  0.00  0.00     0.382 C 
ATOM     23  O   LIG d   1       2.871  86.863 111.480  0.00  0.00    -0.241 OA
ATOM     24  O   LIG d   1       1.739  88.674 111.805  0.00  0.00    -0.241 OA
ENDBRANCH   3  22
TORSDOF 7
ENDMDL
MODEL 4
REMARK VINA RESULT:      -5.1     11.680     15.340
REMARK  7 active torsions:
REMARK  status: ('A' for Active; 'I' for Inactive)
REMARK    1  A    between atoms: C_2  and  C_3 
REMARK    2  A    between atoms: C_3  and  O_6 
REMARK    3  A    between atoms: C_3  and  C_4 
REMARK    4  A    between atoms: C_7  and  O_6 
REMARK    5  A    between atoms: C_9  and  C_10 
REMARK    6  A    between atoms: N_15  and  C_14 
REMARK    7  A    between atoms: N_20  and  C_19 
REMARK       I    between atoms: C_22  and  N_20 
ROOT
ATOM      1  C   LIG d   1       2.758  85.780 114.129  0.00  0.00     0.161 C 
ATOM      2  C   LIG d   1       3.680  86.838 114.056  0.00  0.00     0.016 C 
ATOM      3  C   LIG d   1       3.608  87.867 113.090  0.00  0.00     0.038 C 
ATOM      4  C   LIG d   1       2.515  87.992 112.220  0.00  0.00     0.028 C 
ATOM      5  C   LIG d   1       1.823  86.667 111.922  0.00  0.00    -0.047 C 
ATOM      6  C   LIG d   1       1.497  85.960 113.258  0.00  0.00     0.091 C 
ENDROOT
BRANCH   1   7
ATOM      7  O   LIG d   1       2.389  85.546 115.502  0.00  0.00    -0.368 OA
BRANCH   7   8
ATOM      8  C   LIG d   1       1.486  86.512 116.093  0.00  0.00     0.119 C 
BRANCH   8   9
ATOM      9  C   LIG d   1       2.183  87.099 117.335  0.00  0.00     0.028 C 
ATOM     10  C   LIG d   1       2.540  88.585 117.161  0.00  0.00     0.006 C 
ENDBRANCH   8   9
BRANCH   8  11
ATOM     11  C   LIG d   1       0.216  85.838 116.621  0.00  0.00     0.028 C 
ATOM     12  C   LIG d   1      -0.826  86.846 117.131  0.00  0.00     0.006 C 
ENDBRANCH   8  11
ENDBRANCH   7   8
ENDBRANCH   1   7
BRANCH   6  13
ATOM     13  N   LIG d   1       0.894  84.617 113.056  0.00  0.00    -0.311 N 
ATOM     14  C   LIG d   1      -0.418  84.388 113.099  0.00  0.00     0.210 C 
ATOM     15  C   LIG d   1      -0.827  82.928 112.885  0.00  0.00     0.109 C 
ATOM     16  O   LIG d   1      -1.283  85.262 113.263  0.00  0.00    -0.276 OA
ATOM     17  H   LIG d   1       1.522  83.856 112.887  0.00  0.00     0.149 HD
ENDBRANCH   6  13
BRANCH   5  18
ATOM     18  N   LIG d   1       0.623  86.961 111.116  0.00  0.00     0.381 N 
ATOM     19  H   LIG d   1       0.254  87.855 111.373  0.00  0.00    -0.090 HD
ATOM     20  H   LIG d   1      -0.076  86.265 111.306  0.00  0.00    -0.090 HD
ATOM     21  H   LIG d   1       0.853  86.955 110.147  0.00  0.00    -0.090 HD
ENDBRANCH   5  18
BRANCH   3  22
ATOM     22  C   LIG d   1       4.658  88.764 112.962  0.00  0.00     0.382 C 
ATOM     23  O   LIG d   1       4.472  89.984 113.187  0.00  0.00    -0.241 OA
ATOM     24  O   LIG d   1       5.778  88.374 112.582  0.00  0.00    -0.241 OA
ENDBRANCH   3  22
TORSDOF 7
ENDMDL
MODEL 5
REMARK VINA RESULT:      -5.0     12.127     15.415
REMARK  7 active torsions:
REMARK  status: ('A' for Active; 'I' for Inactive)
REMARK    1  A    between atoms: C_2  and  C_3 
REMARK    2  A    between atoms: C_3  and  O_6 
REMARK    3  A    between atoms: C_3  and  C_4 
REMARK    4  A    between atoms: C_7  and  O_6 
REMARK    5  A    between atoms: C_9  and  C_10 
REMARK    6  A    between atoms: N_15  and  C_14 
REMARK    7  A    between atoms: N_20  and  C_19 
REMARK       I    between atoms: C_22  and  N_20 
ROOT
ATOM      1  C   LIG d   1       3.412  85.480 112.886  0.00  0.00     0.161 C 
ATOM      2  C   LIG d   1       4.205  86.607 113.158  0.00  0.00     0.016 C 
ATOM      3  C   LIG d   1       3.834  87.924 112.802  0.00  0.00     0.038 C 
ATOM      4  C   LIG d   1       2.566  88.222 112.280  0.00  0.00     0.028 C 
ATOM      5  C   LIG d   1       1.934  87.058 111.525  0.00  0.00    -0.047 C 
ATOM      6  C   LIG d   1       1.976  85.797 112.418  0.00  0.00     0.091 C 
ENDROOT
BRANCH   1   7
ATOM      7  O   LIG d   1       3.384  84.613 114.038  0.00  0.00    -0.368 OA
BRANCH   7   8
ATOM      8  C   LIG d   1       3.695  83.219 113.794  0.00  0.00     0.119 C 
BRANCH   8   9
ATOM      9  C   LIG d   1       4.355  82.663 115.071  0.00  0.00     0.028 C 
ATOM     10  C   LIG d   1       5.532  83.529 115.549  0.00  0.00     0.006 C 
ENDBRANCH   8   9
BRANCH   8  11
ATOM     11  C   LIG d   1       4.750  83.068 112.694  0.00  0.00     0.028 C 
ATOM     12  C   LIG d   1       4.386  81.987 111.664  0.00  0.00     0.006 C 
ENDBRANCH   8  11
ENDBRANCH   7   8
ENDBRANCH   1   7
BRANCH   6  13
ATOM     13  N   LIG d   1       1.453  84.592 111.724  0.00  0.00    -0.311 N 
ATOM     14  C   LIG d   1       0.207  84.145 111.868  0.00  0.00     0.210 C 
ATOM     15  C   LIG d   1      -0.121  82.875 111.077  0.00  0.00     0.109 C 
ATOM     16  O   LIG d   1      -0.668  84.699 112.551  0.00  0.00    -0.276 OA
ATOM     17  H   LIG d   1       2.087  84.099 111.125  0.00  0.00     0.149 HD
ENDBRANCH   6  13
BRANCH   5  18
ATOM     18  N   LIG d   1       0.563  87.458 111.156  0.00  0.00     0.381 N 
ATOM     19  H   LIG d   1       0.012  87.583 111.982  0.00  0.00    -0.090 HD
ATOM     20  H   LIG d   1       0.147  86.727 110.607  0.00  0.00    -0.090 HD
ATOM     21  H   LIG d   1       0.585  88.306 110.632  0.00  0.00    -0.090 HD
ENDBRANCH   5  18
BRANCH   3  22
ATOM     22  C   LIG d   1       4.752  88.955 112.929  0.00  0.00     0.382 C 
ATOM     23  O   LIG d   1       4.385  90.070 113.372  0.00  0.00    -0.241 OA
ATOM     24  O   LIG d   1       5.933  88.798 112.566  0.00  0.00    -0.241 OA
ENDBRANCH   3  22
TORSDOF 7
ENDMDL
MODEL 6
REMARK VINA RESULT:      -4.9     15.152     18.045
REMARK  7 active torsions:
REMARK  status: ('A' for Active; 'I' for Inactive)
REMARK    1  A    between atoms: C_2  and  C_3 
REMARK    2  A    between atoms: C_3  and  O_6 
REMARK    3  A    between atoms: C_3  and  C_4 
REMARK    4  A    between atoms: C_7  and  O_6 
REMARK    5  A    between atoms: C_9  and  C_10 
REMARK    6  A    between atoms: N_15  and  C_14 
REMARK    7  A    between atoms: N_20  and  C_19 
REMARK       I    between atoms: C_22  and  N_20 
ROOT
ATOM      1  C   LIG d   1      -5.615  92.506 118.307  0.00  0.00     0.161 C 
ATOM      2  C   LIG d   1      -6.878  93.107 118.433  0.00  0.00     0.016 C 
ATOM      3  C   LIG d   1      -7.061  94.478 118.730  0.00  0.00     0.038 C 
ATOM      4  C   LIG d   1      -5.986  95.377 118.771  0.00  0.00     0.028 C 
ATOM      5  C   LIG d   1      -4.662  94.722 119.149  0.00  0.00    -0.047 C 
ATOM      6  C   LIG d   1      -4.432  93.494 118.239  0.00  0.00     0.091 C 
ENDROOT
BRANCH   1   7
ATOM      7  O   LIG d   1      -5.603  91.630 117.162  0.00  0.00    -0.368 OA
BRANCH   7   8
ATOM      8  C   LIG d   1      -5.880  90.233 117.425  0.00  0.00     0.119 C 
BRANCH   8   9
ATOM      9  C   LIG d   1      -4.873  89.753 118.488  0.00  0.00     0.028 C 
ATOM     10  C   LIG d   1      -3.559  89.251 117.867  0.00  0.00     0.006 C 
ENDBRANCH   8   9
BRANCH   8  11
ATOM     11  C   LIG d   1      -5.608  89.369 116.190  0.00  0.00     0.028 C 
ATOM     12  C   LIG d   1      -6.559  89.680 115.023  0.00  0.00     0.006 C 
ENDBRANCH   8  11
ENDBRANCH   7   8
ENDBRANCH   1   7
BRANCH   6  13
ATOM     13  N   LIG d   1      -3.199  92.745 118.598  0.00  0.00    -0.311 N 
ATOM     14  C   LIG d   1      -2.020  92.953 118.015  0.00  0.00     0.210 C 
ATOM     15  C   LIG d   1      -0.883  92.059 118.520  0.00  0.00     0.109 C 
ATOM     16  O   LIG d   1      -1.800  93.814 117.151  0.00  0.00    -0.276 OA
ATOM     17  H   LIG d   1      -3.281  92.048 119.312  0.00  0.00     0.149 HD
ENDBRANCH   6  13
BRANCH   5  18
ATOM     18  N   LIG d   1      -3.606  95.744 119.020  0.00  0.00     0.381 N 
ATOM     19  H   LIG d   1      -2.799  95.465 119.542  0.00  0.00    -0.090 HD
ATOM     20  H   LIG d   1      -3.944  96.610 119.400  0.00  0.00    -0.090 HD
ATOM     21  H   LIG d   1      -3.364  95.865 118.061  0.00  0.00    -0.090 HD
ENDBRANCH   5  18
BRANCH   3  22
ATOM     22  C   LIG d   1      -8.329  94.953 119.028  0.00  0.00     0.382 C 
ATOM     23  O   LIG d   1      -9.276  94.147 119.201  0.00  0.00    -0.241 OA
ATOM     24  O   LIG d   1      -8.549  96.178 119.082  0.00  0.00    -0.241 OA
ENDBRANCH   3  22
TORSDOF 7
ENDMDL
MODEL 7
REMARK VINA RESULT:      -4.9     14.430     17.461
REMARK  7 active torsions:
REMARK  status: ('A' for Active; 'I' for Inactive)
REMARK    1  A    between atoms: C_2  and  C_3 
REMARK    2  A    between atoms: C_3  and  O_6 
REMARK    3  A    between atoms: C_3  and  C_4 
REMARK    4  A    between atoms: C_7  and  O_6 
REMARK    5  A    between atoms: C_9  and  C_10 
REMARK    6  A    between atoms: N_15  and  C_14 
REMARK    7  A    between atoms: N_20  and  C_19 
REMARK       I    between atoms: C_22  and  N_20 
ROOT
ATOM      1  C   LIG d   1       3.837  88.972 115.497  0.00  0.00     0.161 C 
ATOM      2  C   LIG d   1       3.077  88.434 114.445  0.00  0.00     0.016 C 
ATOM      3  C   LIG d   1       3.595  88.199 113.151  0.00  0.00     0.038 C 
ATOM      4  C   LIG d   1       4.959  88.346 112.861  0.00  0.00     0.028 C 
ATOM      5  C   LIG d   1       5.662  89.365 113.751  0.00  0.00    -0.047 C 
ATOM      6  C   LIG d   1       5.356  89.034 115.230  0.00  0.00     0.091 C 
ENDROOT
BRANCH   1   7
ATOM      7  O   LIG d   1       3.572  88.245 116.713  0.00  0.00    -0.368 OA
BRANCH   7   8
ATOM      8  C   LIG d   1       3.102  86.884 116.553  0.00  0.00     0.119 C 
BRANCH   8   9
ATOM      9  C   LIG d   1       2.007  86.645 117.611  0.00  0.00     0.028 C 
ATOM     10  C   LIG d   1       0.960  85.618 117.149  0.00  0.00     0.006 C 
ENDBRANCH   8   9
BRANCH   8  11
ATOM     11  C   LIG d   1       4.206  85.872 116.876  0.00  0.00     0.028 C 
ATOM     12  C   LIG d   1       4.897  85.323 115.618  0.00  0.00     0.006 C 
ENDBRANCH   8  11
ENDBRANCH   7   8
ENDBRANCH   1   7
BRANCH   6  13
ATOM     13  N   LIG d   1       5.936  90.032 116.166  0.00  0.00    -0.311 N 
ATOM     14  C   LIG d   1       7.160  89.929 116.681  0.00  0.00     0.210 C 
ATOM     15  C   LIG d   1       7.555  91.056 117.640  0.00  0.00     0.109 C 
ATOM     16  O   LIG d   1       7.968  89.028 116.410  0.00  0.00    -0.276 OA
ATOM     17  H   LIG d   1       5.360  90.812 116.415  0.00  0.00     0.149 HD
ENDBRANCH   6  13
BRANCH   5  18
ATOM     18  N   LIG d   1       7.101  89.317 113.434  0.00  0.00     0.381 N 
ATOM     19  H   LIG d   1       7.409  90.215 113.119  0.00  0.00    -0.090 HD
ATOM     20  H   LIG d   1       7.249  88.655 112.692  0.00  0.00    -0.090 HD
ATOM     21  H   LIG d   1       7.619  89.044 114.240  0.00  0.00    -0.090 HD
ENDBRANCH   5  18
BRANCH   3  22
ATOM     22  C   LIG d   1       2.736  87.850 112.120  0.00  0.00     0.382 C 
ATOM     23  O   LIG d   1       1.770  88.596 111.829  0.00  0.00    -0.241 OA
ATOM     24  O   LIG d   1       2.888  86.777 111.506  0.00  0.00    -0.241 OA
ENDBRANCH   3  22
TORSDOF 7
ENDMDL
MODEL 8
REMARK VINA RESULT:      -4.8     12.348     15.669
REMARK  7 active torsions:
REMARK  status: ('A' for Active; 'I' for Inactive)
REMARK    1  A    between atoms: C_2  and  C_3 
REMARK    2  A    between atoms: C_3  and  O_6 
REMARK    3  A    between atoms: C_3  and  C_4 
REMARK    4  A    between atoms: C_7  and  O_6 
REMARK    5  A    between atoms: C_9  and  C_10 
REMARK    6  A    between atoms: N_15  and  C_14 
REMARK    7  A    between atoms: N_20  and  C_19 
REMARK       I    between atoms: C_22  and  N_20 
ROOT
ATOM      1  C   LIG d   1       4.185  85.507 113.316  0.00  0.00     0.161 C 
ATOM      2  C   LIG d   1       4.628  86.800 113.642  0.00  0.00     0.016 C 
ATOM      3  C   LIG d   1       4.015  87.978 113.157  0.00  0.00     0.038 C 
ATOM      4  C   LIG d   1       2.816  87.944 112.429  0.00  0.00     0.028 C 
ATOM      5  C   LIG d   1       2.614  86.647 111.654  0.00  0.00    -0.047 C 
ATOM      6  C   LIG d   1       2.811  85.452 112.615  0.00  0.00     0.091 C 
ENDROOT
BRANCH   1   7
ATOM      7  O   LIG d   1       4.177  84.681 114.498  0.00  0.00    -0.368 OA
BRANCH   7   8
ATOM      8  C   LIG d   1       5.105  83.568 114.503  0.00  0.00     0.119 C 
BRANCH   8   9
ATOM      9  C   LIG d   1       4.287  82.285 114.748  0.00  0.00     0.028 C 
ATOM     10  C   LIG d   1       2.968  82.563 115.488  0.00  0.00     0.006 C 
ENDBRANCH   8   9
BRANCH   8  11
ATOM     11  C   LIG d   1       6.078  83.660 115.682  0.00  0.00     0.028 C 
ATOM     12  C   LIG d   1       5.715  84.781 116.669  0.00  0.00     0.006 C 
ENDBRANCH   8  11
ENDBRANCH   7   8
ENDBRANCH   1   7
BRANCH   6  13
ATOM     13  N   LIG d   1       2.714  84.143 111.918  0.00  0.00    -0.311 N 
ATOM     14  C   LIG d   1       1.711  83.286 112.103  0.00  0.00     0.210 C 
ATOM     15  C   LIG d   1       1.815  81.985 111.302  0.00  0.00     0.109 C 
ATOM     16  O   LIG d   1       0.728  83.495 112.830  0.00  0.00    -0.276 OA
ATOM     17  H   LIG d   1       3.454  83.906 111.286  0.00  0.00     0.149 HD
ENDBRANCH   6  13
BRANCH   5  18
ATOM     18  N   LIG d   1       1.267  86.690 111.055  0.00  0.00     0.381 N 
ATOM     19  H   LIG d   1       0.584  86.426 111.737  0.00  0.00    -0.090 HD
ATOM     20  H   LIG d   1       1.226  86.032 110.297  0.00  0.00    -0.090 HD
ATOM     21  H   LIG d   1       1.073  87.608 110.719  0.00  0.00    -0.090 HD
ENDBRANCH   5  18
BRANCH   3  22
ATOM     22  C   LIG d   1       4.625  89.206 113.365  0.00  0.00     0.382 C 
ATOM     23  O   LIG d   1       5.779  89.415 112.921  0.00  0.00    -0.241 OA
ATOM     24  O   LIG d   1       4.053  90.090 114.029  0.00  0.00    -0.241 OA
ENDBRANCH   3  22
TORSDOF 7
ENDMDL
MODEL 9
REMARK VINA RESULT:      -4.6     10.196     12.790
REMARK  7 active torsions:
REMARK  status: ('A' for Active; 'I' for Inactive)
REMARK    1  A    between atoms: C_2  and  C_3 
REMARK    2  A    between atoms: C_3  and  O_6 
REMARK    3  A    between atoms: C_3  and  C_4 
REMARK    4  A    between atoms: C_7  and  O_6 
REMARK    5  A    between atoms: C_9  and  C_10 
REMARK    6  A    between atoms: N_15  and  C_14 
REMARK    7  A    between atoms: N_20  and  C_19 
REMARK       I    between atoms: C_22  and  N_20 
ROOT
ATOM      1  C   LIG d   1       0.735  84.874 112.963  0.00  0.00     0.161 C 
ATOM      2  C   LIG d   1      -0.262  83.887 113.035  0.00  0.00     0.016 C 
ATOM      3  C   LIG d   1      -0.055  82.543 112.650  0.00  0.00     0.038 C 
ATOM      4  C   LIG d   1       1.215  82.057 112.306  0.00  0.00     0.028 C 
ATOM      5  C   LIG d   1       2.139  83.127 111.736  0.00  0.00    -0.047 C 
ATOM      6  C   LIG d   1       2.157  84.338 112.696  0.00  0.00     0.091 C 
ENDROOT
BRANCH   1   7
ATOM      7  O   LIG d   1       0.718  85.674 114.162  0.00  0.00    -0.368 OA
BRANCH   7   8
ATOM      8  C   LIG d   1       0.415  84.972 115.392  0.00  0.00     0.119 C 
BRANCH   8   9
ATOM      9  C   LIG d   1      -0.208  85.992 116.366  0.00  0.00     0.028 C 
ATOM     10  C   LIG d   1       0.836  86.960 116.949  0.00  0.00     0.006 C 
ENDBRANCH   8   9
BRANCH   8  11
ATOM     11  C   LIG d   1       1.691  84.480 116.082  0.00  0.00     0.028 C 
ATOM     12  C   LIG d   1       1.766  82.948 116.173  0.00  0.00     0.006 C 
ENDBRANCH   8  11
ENDBRANCH   7   8
ENDBRANCH   1   7
BRANCH   6  13
ATOM     13  N   LIG d   1       2.972  85.466 112.172  0.00  0.00    -0.311 N 
ATOM     14  C   LIG d   1       3.984  86.013 112.842  0.00  0.00     0.210 C 
ATOM     15  C   LIG d   1       4.678  87.177 112.128  0.00  0.00     0.109 C 
ATOM     16  O   LIG d   1       4.394  85.624 113.946  0.00  0.00    -0.276 OA
ATOM     17  H   LIG d   1       2.728  85.823 111.269  0.00  0.00     0.149 HD
ENDBRANCH   6  13
BRANCH   5  18
ATOM     18  N   LIG d   1       3.469  82.516 111.551  0.00  0.00     0.381 N 
ATOM     19  H   LIG d   1       3.560  82.179 110.613  0.00  0.00    -0.090 HD
ATOM     20  H   LIG d   1       3.557  81.734 112.176  0.00  0.00    -0.090 HD
ATOM     21  H   LIG d   1       4.182  83.185 111.741  0.00  0.00    -0.090 HD
ENDBRANCH   5  18
BRANCH   3  22
ATOM     22  C   LIG d   1      -1.135  81.677 112.568  0.00  0.00     0.382 C 
ATOM     23  O   LIG d   1      -0.971  80.449 112.764  0.00  0.00    -0.241 OA
ATOM     24  O   LIG d   1      -2.264  82.104 112.256  0.00  0.00    -0.241 OA
ENDBRANCH   3  22
TORSDOF 7
ENDMDL
