MODEL 1
REMARK VINA RESULT:      -6.2      0.000      0.000
REMARK  7 active torsions:
REMARK  status: ('A' for Active; 'I' for Inactive)
REMARK    1  A    between atoms: C_2  and  C_3 
REMARK    2  A    between atoms: C_3  and  O_6 
REMARK    3  A    between atoms: C_3  and  C_4 
REMARK    4  A    between atoms: C_7  and  O_6 
REMARK    5  A    between atoms: C_9  and  C_10 
REMARK    6  A    between atoms: N_15  and  C_14 
REMARK    7  A    between atoms: N_20  and  C_19 
REMARK       I    between atoms: C_22  and  N_20 
ROOT
ATOM      1  C   LIG d   1      -4.827  74.700 115.886  0.00  0.00     0.161 C 
ATOM      2  C   LIG d   1      -5.542  75.076 114.736  0.00  0.00     0.016 C 
ATOM      3  C   LIG d   1      -4.928  75.601 113.575  0.00  0.00     0.038 C 
ATOM      4  C   LIG d   1      -3.534  75.644 113.429  0.00  0.00     0.028 C 
ATOM      5  C   LIG d   1      -2.788  75.747 114.756  0.00  0.00    -0.047 C 
ATOM      6  C   LIG d   1      -3.296  74.637 115.704  0.00  0.00     0.091 C 
ENDROOT
BRANCH   1   7
ATOM      7  O   LIG d   1      -5.325  73.442 116.381  0.00  0.00    -0.368 OA
BRANCH   7   8
ATOM      8  C   LIG d   1      -6.704  73.132 116.061  0.00  0.00     0.119 C 
BRANCH   8   9
ATOM      9  C   LIG d   1      -7.567  73.566 117.262  0.00  0.00     0.028 C 
ATOM     10  C   LIG d   1      -8.541  74.701 116.903  0.00  0.00     0.006 C 
ENDBRANCH   8   9
BRANCH   8  11
ATOM     11  C   LIG d   1      -6.920  71.621 115.933  0.00  0.00     0.028 C 
ATOM     12  C   LIG d   1      -8.331  71.183 116.354  0.00  0.00     0.006 C 
ENDBRANCH   8  11
ENDBRANCH   7   8
ENDBRANCH   1   7
BRANCH   6  13
ATOM     13  N   LIG d   1      -2.679  74.718 117.053  0.00  0.00    -0.311 N 
ATOM     14  C   LIG d   1      -1.533  74.120 117.372  0.00  0.00     0.210 C 
ATOM     15  C   LIG d   1      -1.084  74.315 118.824  0.00  0.00     0.109 C 
ATOM     16  O   LIG d   1      -0.828  73.473 116.582  0.00  0.00    -0.276 OA
ATOM     17  H   LIG d   1      -3.168  75.249 117.747  0.00  0.00     0.149 HD
ENDBRANCH   6  13
BRANCH   5  18
ATOM     18  N   LIG d   1      -1.346  75.645 114.466  0.00  0.00     0.381 N 
ATOM     19  H   LIG d   1      -1.118  76.213 113.675  0.00  0.00    -0.090 HD
ATOM     20  H   LIG d   1      -1.126  74.690 114.242  0.00  0.00    -0.090 HD
ATOM     21  H   LIG d   1      -0.817  75.938 115.258  0.00  0.00    -0.090 HD
ENDBRANCH   5  18
BRANCH   3  22
ATOM     22  C   LIG d   1      -5.713  76.126 112.561  0.00  0.00     0.382 C 
ATOM     23  O   LIG d   1      -5.174  76.690 111.578  0.00  0.00    -0.241 OA
ATOM     24  O   LIG d   1      -6.956  76.082 112.636  0.00  0.00    -0.241 OA
ENDBRANCH   3  22
TORSDOF 7
ENDMDL
MODEL 2
REMARK VINA RESULT:      -6.0      3.680      5.190
REMARK  7 active torsions:
REMARK  status: ('A' for Active; 'I' for Inactive)
REMARK    1  A    between atoms: C_2  and  C_3 
REMARK    2  A    between atoms: C_3  and  O_6 
REMARK    3  A    between atoms: C_3  and  C_4 
REMARK    4  A    between atoms: C_7  and  O_6 
REMARK    5  A    between atoms: C_9  and  C_10 
REMARK    6  A    between atoms: N_15  and  C_14 
REMARK    7  A    between atoms: N_20  and  C_19 
REMARK       I    between atoms: C_22  and  N_20 
ROOT
ATOM      1  C   LIG d   1      -7.623  75.981 117.286  0.00  0.00     0.161 C 
ATOM      2  C   LIG d   1      -8.693  76.666 117.885  0.00  0.00     0.016 C 
ATOM      3  C   LIG d   1      -8.680  78.055 118.146  0.00  0.00     0.038 C 
ATOM      4  C   LIG d   1      -7.648  78.886 117.686  0.00  0.00     0.028 C 
ATOM      5  C   LIG d   1      -6.315  78.164 117.524  0.00  0.00    -0.047 C 
ATOM      6  C   LIG d   1      -6.535  76.890 116.676  0.00  0.00     0.091 C 
ENDROOT
BRANCH   1   7
ATOM      7  O   LIG d   1      -8.123  75.064 116.294  0.00  0.00    -0.368 OA
BRANCH   7   8
ATOM      8  C   LIG d   1      -8.094  73.660 116.651  0.00  0.00     0.119 C 
BRANCH   8   9
ATOM      9  C   LIG d   1      -6.986  72.992 115.814  0.00  0.00     0.028 C 
ATOM     10  C   LIG d   1      -6.936  71.469 116.016  0.00  0.00     0.006 C 
ENDBRANCH   8   9
BRANCH   8  11
ATOM     11  C   LIG d   1      -9.391  72.954 116.244  0.00  0.00     0.028 C 
ATOM     12  C   LIG d   1     -10.649  73.738 116.651  0.00  0.00     0.006 C 
ENDBRANCH   8  11
ENDBRANCH   7   8
ENDBRANCH   1   7
BRANCH   6  13
ATOM     13  N   LIG d   1      -5.297  76.079 116.540  0.00  0.00    -0.311 N 
ATOM     14  C   LIG d   1      -4.676  75.878 115.379  0.00  0.00     0.210 C 
ATOM     15  C   LIG d   1      -3.427  74.994 115.457  0.00  0.00     0.109 C 
ATOM     16  O   LIG d   1      -5.023  76.373 114.296  0.00  0.00    -0.276 OA
ATOM     17  H   LIG d   1      -4.928  75.665 117.374  0.00  0.00     0.149 HD
ENDBRANCH   6  13
BRANCH   5  18
ATOM     18  N   LIG d   1      -5.366  79.111 116.908  0.00  0.00     0.381 N 
ATOM     19  H   LIG d   1      -5.255  79.911 117.499  0.00  0.00    -0.090 HD
ATOM     20  H   LIG d   1      -5.739  79.418 116.027  0.00  0.00    -0.090 HD
ATOM     21  H   LIG d   1      -4.485  78.668 116.768  0.00  0.00    -0.090 HD
ENDBRANCH   5  18
BRANCH   3  22
ATOM     22  C   LIG d   1      -9.689  78.621 118.911  0.00  0.00     0.382 C 
ATOM     23  O   LIG d   1     -10.648  77.914 119.304  0.00  0.00    -0.241 OA
ATOM     24  O   LIG d   1      -9.675  79.838 119.176  0.00  0.00    -0.241 OA
ENDBRANCH   3  22
TORSDOF 7
ENDMDL
MODEL 3
REMARK VINA RESULT:      -5.7      2.639      4.659
REMARK  7 active torsions:
REMARK  status: ('A' for Active; 'I' for Inactive)
REMARK    1  A    between atoms: C_2  and  C_3 
REMARK    2  A    between atoms: C_3  and  O_6 
REMARK    3  A    between atoms: C_3  and  C_4 
REMARK    4  A    between atoms: C_7  and  O_6 
REMARK    5  A    between atoms: C_9  and  C_10 
REMARK    6  A    between atoms: N_15  and  C_14 
REMARK    7  A    between atoms: N_20  and  C_19 
REMARK       I    between atoms: C_22  and  N_20 
ROOT
ATOM      1  C   LIG d   1      -6.431  75.729 115.488  0.00  0.00     0.161 C 
ATOM      2  C   LIG d   1      -5.237  75.179 114.994  0.00  0.00     0.016 C 
ATOM      3  C   LIG d   1      -4.012  75.218 115.700  0.00  0.00     0.038 C 
ATOM      4  C   LIG d   1      -3.933  75.678 117.022  0.00  0.00     0.028 C 
ATOM      5  C   LIG d   1      -5.007  76.702 117.373  0.00  0.00    -0.047 C 
ATOM      6  C   LIG d   1      -6.389  76.136 116.976  0.00  0.00     0.091 C 
ENDROOT
BRANCH   1   7
ATOM      7  O   LIG d   1      -7.523  74.819 115.248  0.00  0.00    -0.368 OA
BRANCH   7   8
ATOM      8  C   LIG d   1      -7.839  73.904 116.327  0.00  0.00     0.119 C 
BRANCH   8   9
ATOM      9  C   LIG d   1      -7.061  72.599 116.070  0.00  0.00     0.028 C 
ATOM     10  C   LIG d   1      -7.974  71.362 116.071  0.00  0.00     0.006 C 
ENDBRANCH   8   9
BRANCH   8  11
ATOM     11  C   LIG d   1      -9.318  73.506 116.304  0.00  0.00     0.028 C 
ATOM     12  C   LIG d   1     -10.234  74.581 116.908  0.00  0.00     0.006 C 
ENDBRANCH   8  11
ENDBRANCH   7   8
ENDBRANCH   1   7
BRANCH   6  13
ATOM     13  N   LIG d   1      -7.488  77.109 117.207  0.00  0.00    -0.311 N 
ATOM     14  C   LIG d   1      -8.217  77.141 118.321  0.00  0.00     0.210 C 
ATOM     15  C   LIG d   1      -9.313  78.211 118.347  0.00  0.00     0.109 C 
ATOM     16  O   LIG d   1      -8.039  76.406 119.304  0.00  0.00    -0.276 OA
ATOM     17  H   LIG d   1      -7.680  77.763 116.474  0.00  0.00     0.149 HD
ENDBRANCH   6  13
BRANCH   5  18
ATOM     18  N   LIG d   1      -4.893  76.992 118.814  0.00  0.00     0.381 N 
ATOM     19  H   LIG d   1      -3.932  76.965 119.091  0.00  0.00    -0.090 HD
ATOM     20  H   LIG d   1      -5.388  76.285 119.328  0.00  0.00    -0.090 HD
ATOM     21  H   LIG d   1      -5.278  77.889 119.013  0.00  0.00    -0.090 HD
ENDBRANCH   5  18
BRANCH   3  22
ATOM     22  C   LIG d   1      -2.841  74.828 115.066  0.00  0.00     0.382 C 
ATOM     23  O   LIG d   1      -2.642  75.144 113.869  0.00  0.00    -0.241 OA
ATOM     24  O   LIG d   1      -2.003  74.128 115.664  0.00  0.00    -0.241 OA
ENDBRANCH   3  22
TORSDOF 7
ENDMDL
MODEL 4
REMARK VINA RESULT:      -5.7      3.056      5.760
REMARK  7 active torsions:
REMARK  status: ('A' for Active; 'I' for Inactive)
REMARK    1  A    between atoms: C_2  and  C_3 
REMARK    2  A    between atoms: C_3  and  O_6 
REMARK    3  A    between atoms: C_3  and  C_4 
REMARK    4  A    between atoms: C_7  and  O_6 
REMARK    5  A    between atoms: C_9  and  C_10 
REMARK    6  A    between atoms: N_15  and  C_14 
REMARK    7  A    between atoms: N_20  and  C_19 
REMARK       I    between atoms: C_22  and  N_20 
ROOT
ATOM      1  C   LIG d   1      -5.984  74.770 116.654  0.00  0.00     0.161 C 
ATOM      2  C   LIG d   1      -6.594  73.591 116.194  0.00  0.00     0.016 C 
ATOM      3  C   LIG d   1      -7.982  73.344 116.291  0.00  0.00     0.038 C 
ATOM      4  C   LIG d   1      -8.882  74.330 116.722  0.00  0.00     0.028 C 
ATOM      5  C   LIG d   1      -8.256  75.350 117.668  0.00  0.00    -0.047 C 
ATOM      6  C   LIG d   1      -6.963  75.902 117.026  0.00  0.00     0.091 C 
ENDROOT
BRANCH   1   7
ATOM      7  O   LIG d   1      -5.025  75.235 115.684  0.00  0.00    -0.368 OA
BRANCH   7   8
ATOM      8  C   LIG d   1      -3.704  74.643 115.758  0.00  0.00     0.119 C 
BRANCH   8   9
ATOM      9  C   LIG d   1      -3.007  75.222 117.005  0.00  0.00     0.028 C 
ATOM     10  C   LIG d   1      -1.827  74.354 117.473  0.00  0.00     0.006 C 
ENDBRANCH   8   9
BRANCH   8  11
ATOM     11  C   LIG d   1      -2.835  75.070 114.572  0.00  0.00     0.028 C 
ATOM     12  C   LIG d   1      -3.539  76.076 113.648  0.00  0.00     0.006 C 
ENDBRANCH   8  11
ENDBRANCH   7   8
ENDBRANCH   1   7
BRANCH   6  13
ATOM     13  N   LIG d   1      -6.243  76.844 117.922  0.00  0.00    -0.311 N 
ATOM     14  C   LIG d   1      -6.383  78.167 117.860  0.00  0.00     0.210 C 
ATOM     15  C   LIG d   1      -5.534  78.955 118.862  0.00  0.00     0.109 C 
ATOM     16  O   LIG d   1      -7.155  78.761 117.092  0.00  0.00    -0.276 OA
ATOM     17  H   LIG d   1      -5.620  76.445 118.597  0.00  0.00     0.149 HD
ENDBRANCH   6  13
BRANCH   5  18
ATOM     18  N   LIG d   1      -9.265  76.394 117.928  0.00  0.00     0.381 N 
ATOM     19  H   LIG d   1      -9.132  76.772 118.845  0.00  0.00    -0.090 HD
ATOM     20  H   LIG d   1     -10.180  75.980 117.887  0.00  0.00    -0.090 HD
ATOM     21  H   LIG d   1      -9.189  77.118 117.249  0.00  0.00    -0.090 HD
ENDBRANCH   5  18
BRANCH   3  22
ATOM     22  C   LIG d   1      -8.479  72.084 115.992  0.00  0.00     0.382 C 
ATOM     23  O   LIG d   1      -7.701  71.180 115.603  0.00  0.00    -0.241 OA
ATOM     24  O   LIG d   1      -9.701  71.854 116.064  0.00  0.00    -0.241 OA
ENDBRANCH   3  22
TORSDOF 7
ENDMDL
MODEL 5
REMARK VINA RESULT:      -5.7      3.374      6.310
REMARK  7 active torsions:
REMARK  status: ('A' for Active; 'I' for Inactive)
REMARK    1  A    between atoms: C_2  and  C_3 
REMARK    2  A    between atoms: C_3  and  O_6 
REMARK    3  A    between atoms: C_3  and  C_4 
REMARK    4  A    between atoms: C_7  and  O_6 
REMARK    5  A    between atoms: C_9  and  C_10 
REMARK    6  A    between atoms: N_15  and  C_14 
REMARK    7  A    between atoms: N_20  and  C_19 
REMARK       I    between atoms: C_22  and  N_20 
ROOT
ATOM      1  C   LIG d   1      -7.216  75.067 116.428  0.00  0.00     0.161 C 
ATOM      2  C   LIG d   1      -7.079  73.700 116.136  0.00  0.00     0.016 C 
ATOM      3  C   LIG d   1      -8.152  72.780 116.197  0.00  0.00     0.038 C 
ATOM      4  C   LIG d   1      -9.474  73.197 116.409  0.00  0.00     0.028 C 
ATOM      5  C   LIG d   1      -9.581  74.492 117.207  0.00  0.00    -0.047 C 
ATOM      6  C   LIG d   1      -8.673  75.560 116.553  0.00  0.00     0.091 C 
ENDROOT
BRANCH   1   7
ATOM      7  O   LIG d   1      -6.505  75.850 115.448  0.00  0.00    -0.368 OA
BRANCH   7   8
ATOM      8  C   LIG d   1      -5.222  76.379 115.863  0.00  0.00     0.119 C 
BRANCH   8   9
ATOM      9  C   LIG d   1      -4.138  75.678 115.021  0.00  0.00     0.028 C 
ATOM     10  C   LIG d   1      -4.638  75.303 113.616  0.00  0.00     0.006 C 
ENDBRANCH   8   9
BRANCH   8  11
ATOM     11  C   LIG d   1      -4.910  76.007 117.316  0.00  0.00     0.028 C 
ATOM     12  C   LIG d   1      -4.592  77.232 118.189  0.00  0.00     0.006 C 
ENDBRANCH   8  11
ENDBRANCH   7   8
ENDBRANCH   1   7
BRANCH   6  13
ATOM     13  N   LIG d   1      -8.653  76.833 117.320  0.00  0.00    -0.311 N 
ATOM     14  C   LIG d   1      -8.287  76.914 118.598  0.00  0.00     0.210 C 
ATOM     15  C   LIG d   1      -8.358  78.319 119.203  0.00  0.00     0.109 C 
ATOM     16  O   LIG d   1      -7.879  75.961 119.278  0.00  0.00    -0.276 OA
ATOM     17  H   LIG d   1      -8.940  77.661 116.835  0.00  0.00     0.149 HD
ENDBRANCH   6  13
BRANCH   5  18
ATOM     18  N   LIG d   1     -11.003  74.882 117.235  0.00  0.00     0.381 N 
ATOM     19  H   LIG d   1     -11.456  74.455 118.018  0.00  0.00    -0.090 HD
ATOM     20  H   LIG d   1     -11.447  74.553 116.396  0.00  0.00    -0.090 HD
ATOM     21  H   LIG d   1     -11.084  75.874 117.296  0.00  0.00    -0.090 HD
ENDBRANCH   5  18
BRANCH   3  22
ATOM     22  C   LIG d   1      -7.899  71.422 116.084  0.00  0.00     0.382 C 
ATOM     23  O   LIG d   1      -8.799  70.592 116.358  0.00  0.00    -0.241 OA
ATOM     24  O   LIG d   1      -6.769  71.015 115.754  0.00  0.00    -0.241 OA
ENDBRANCH   3  22
TORSDOF 7
ENDMDL
MODEL 6
REMARK VINA RESULT:      -5.5      2.972      5.744
REMARK  7 active torsions:
REMARK  status: ('A' for Active; 'I' for Inactive)
REMARK    1  A    between atoms: C_2  and  C_3 
REMARK    2  A    between atoms: C_3  and  O_6 
REMARK    3  A    between atoms: C_3  and  C_4 
REMARK    4  A    between atoms: C_7  and  O_6 
REMARK    5  A    between atoms: C_9  and  C_10 
REMARK    6  A    between atoms: N_15  and  C_14 
REMARK    7  A    between atoms: N_20  and  C_19 
REMARK       I    between atoms: C_22  and  N_20 
ROOT
ATOM      1  C   LIG d   1      -5.845  74.722 116.332  0.00  0.00     0.161 C 
ATOM      2  C   LIG d   1      -6.520  73.555 115.939  0.00  0.00     0.016 C 
ATOM      3  C   LIG d   1      -7.897  73.336 116.173  0.00  0.00     0.038 C 
ATOM      4  C   LIG d   1      -8.731  74.342 116.684  0.00  0.00     0.028 C 
ATOM      5  C   LIG d   1      -7.996  75.352 117.559  0.00  0.00    -0.047 C 
ATOM      6  C   LIG d   1      -6.761  75.876 116.791  0.00  0.00     0.091 C 
ENDROOT
BRANCH   1   7
ATOM      7  O   LIG d   1      -4.976  75.165 115.270  0.00  0.00    -0.368 OA
BRANCH   7   8
ATOM      8  C   LIG d   1      -3.577  75.316 115.613  0.00  0.00     0.119 C 
BRANCH   8   9
ATOM      9  C   LIG d   1      -2.753  74.992 114.352  0.00  0.00     0.028 C 
ATOM     10  C   LIG d   1      -1.951  76.204 113.848  0.00  0.00     0.006 C 
ENDBRANCH   8   9
BRANCH   8  11
ATOM     11  C   LIG d   1      -3.144  74.282 116.657  0.00  0.00     0.028 C 
ATOM     12  C   LIG d   1      -1.680  74.453 117.093  0.00  0.00     0.006 C 
ENDBRANCH   8  11
ENDBRANCH   7   8
ENDBRANCH   1   7
BRANCH   6  13
ATOM     13  N   LIG d   1      -5.939  76.806 117.607  0.00  0.00    -0.311 N 
ATOM     14  C   LIG d   1      -6.115  78.126 117.616  0.00  0.00     0.210 C 
ATOM     15  C   LIG d   1      -5.146  78.902 118.513  0.00  0.00     0.109 C 
ATOM     16  O   LIG d   1      -7.004  78.725 116.991  0.00  0.00    -0.276 OA
ATOM     17  H   LIG d   1      -5.215  76.402 118.169  0.00  0.00     0.149 HD
ENDBRANCH   6  13
BRANCH   5  18
ATOM     18  N   LIG d   1      -8.954  76.417 117.910  0.00  0.00     0.381 N 
ATOM     19  H   LIG d   1      -8.463  77.203 118.287  0.00  0.00    -0.090 HD
ATOM     20  H   LIG d   1      -9.581  76.071 118.614  0.00  0.00    -0.090 HD
ATOM     21  H   LIG d   1      -9.468  76.693 117.103  0.00  0.00    -0.090 HD
ENDBRANCH   5  18
BRANCH   3  22
ATOM     22  C   LIG d   1      -8.445  72.086 115.931  0.00  0.00     0.382 C 
ATOM     23  O   LIG d   1      -9.677  71.901 116.083  0.00  0.00    -0.241 OA
ATOM     24  O   LIG d   1      -7.717  71.129 115.605  0.00  0.00    -0.241 OA
ENDBRANCH   3  22
TORSDOF 7
ENDMDL
MODEL 7
REMARK VINA RESULT:      -5.5      3.275      6.128
REMARK  7 active torsions:
REMARK  status: ('A' for Active; 'I' for Inactive)
REMARK    1  A    between atoms: C_2  and  C_3 
REMARK    2  A    between atoms: C_3  and  O_6 
REMARK    3  A    between atoms: C_3  and  C_4 
REMARK    4  A    between atoms: C_7  and  O_6 
REMARK    5  A    between atoms: C_9  and  C_10 
REMARK    6  A    between atoms: N_15  and  C_14 
REMARK    7  A    between atoms: N_20  and  C_19 
REMARK       I    between atoms: C_22  and  N_20 
ROOT
ATOM      1  C   LIG d   1      -6.998  75.061 116.273  0.00  0.00     0.161 C 
ATOM      2  C   LIG d   1      -6.941  73.692 115.960  0.00  0.00     0.016 C 
ATOM      3  C   LIG d   1      -8.045  72.818 116.089  0.00  0.00     0.038 C 
ATOM      4  C   LIG d   1      -9.331  73.288 116.399  0.00  0.00     0.028 C 
ATOM      5  C   LIG d   1      -9.325  74.578 117.212  0.00  0.00    -0.047 C 
ATOM      6  C   LIG d   1      -8.420  75.613 116.505  0.00  0.00     0.091 C 
ENDROOT
BRANCH   1   7
ATOM      7  O   LIG d   1      -6.325  75.823 115.251  0.00  0.00    -0.368 OA
BRANCH   7   8
ATOM      8  C   LIG d   1      -4.877  75.779 115.273  0.00  0.00     0.119 C 
BRANCH   8   9
ATOM      9  C   LIG d   1      -4.379  77.145 115.784  0.00  0.00     0.028 C 
ATOM     10  C   LIG d   1      -4.091  77.136 117.295  0.00  0.00     0.006 C 
ENDBRANCH   8   9
BRANCH   8  11
ATOM     11  C   LIG d   1      -4.303  75.641 113.859  0.00  0.00     0.028 C 
ATOM     12  C   LIG d   1      -2.789  75.375 113.855  0.00  0.00     0.006 C 
ENDBRANCH   8  11
ENDBRANCH   7   8
ENDBRANCH   1   7
BRANCH   6  13
ATOM     13  N   LIG d   1      -8.291  76.875 117.279  0.00  0.00    -0.311 N 
ATOM     14  C   LIG d   1      -7.761  76.937 118.499  0.00  0.00     0.210 C 
ATOM     15  C   LIG d   1      -7.743  78.334 119.127  0.00  0.00     0.109 C 
ATOM     16  O   LIG d   1      -7.276  75.972 119.109  0.00  0.00    -0.276 OA
ATOM     17  H   LIG d   1      -8.631  77.712 116.846  0.00  0.00     0.149 HD
ENDBRANCH   6  13
BRANCH   5  18
ATOM     18  N   LIG d   1     -10.723  75.028 117.345  0.00  0.00     0.381 N 
ATOM     19  H   LIG d   1     -11.017  74.943 118.297  0.00  0.00    -0.090 HD
ATOM     20  H   LIG d   1     -11.309  74.438 116.780  0.00  0.00    -0.090 HD
ATOM     21  H   LIG d   1     -10.807  75.975 117.047  0.00  0.00    -0.090 HD
ENDBRANCH   5  18
BRANCH   3  22
ATOM     22  C   LIG d   1      -7.860  71.452 115.947  0.00  0.00     0.382 C 
ATOM     23  O   LIG d   1      -8.676  70.651 116.465  0.00  0.00    -0.241 OA
ATOM     24  O   LIG d   1      -6.864  71.008 115.346  0.00  0.00    -0.241 OA
ENDBRANCH   3  22
TORSDOF 7
ENDMDL
MODEL 8
REMARK VINA RESULT:      -5.3      2.949      5.483
REMARK  7 active torsions:
REMARK  status: ('A' for Active; 'I' for Inactive)
REMARK    1  A    between atoms: C_2  and  C_3 
REMARK    2  A    between atoms: C_3  and  O_6 
REMARK    3  A    between atoms: C_3  and  C_4 
REMARK    4  A    between atoms: C_7  and  O_6 
REMARK    5  A    between atoms: C_9  and  C_10 
REMARK    6  A    between atoms: N_15  and  C_14 
REMARK    7  A    between atoms: N_20  and  C_19 
REMARK       I    between atoms: C_22  and  N_20 
ROOT
ATOM      1  C   LIG d   1      -4.100  75.371 115.531  0.00  0.00     0.161 C 
ATOM      2  C   LIG d   1      -3.672  76.705 115.629  0.00  0.00     0.016 C 
ATOM      3  C   LIG d   1      -4.491  77.752 116.110  0.00  0.00     0.038 C 
ATOM      4  C   LIG d   1      -5.754  77.508 116.670  0.00  0.00     0.028 C 
ATOM      5  C   LIG d   1      -6.424  76.250 116.128  0.00  0.00    -0.047 C 
ATOM      6  C   LIG d   1      -5.436  75.067 116.242  0.00  0.00     0.091 C 
ENDROOT
BRANCH   1   7
ATOM      7  O   LIG d   1      -3.066  74.489 116.010  0.00  0.00    -0.368 OA
BRANCH   7   8
ATOM      8  C   LIG d   1      -1.704  74.884 115.714  0.00  0.00     0.119 C 
BRANCH   8   9
ATOM      9  C   LIG d   1      -1.372  74.375 114.298  0.00  0.00     0.028 C 
ATOM     10  C   LIG d   1      -0.012  73.660 114.235  0.00  0.00     0.006 C 
ENDBRANCH   8   9
BRANCH   8  11
ATOM     11  C   LIG d   1      -0.706  74.183 116.641  0.00  0.00     0.028 C 
ATOM     12  C   LIG d   1      -1.356  73.669 117.936  0.00  0.00     0.006 C 
ENDBRANCH   8  11
ENDBRANCH   7   8
ENDBRANCH   1   7
BRANCH   6  13
ATOM     13  N   LIG d   1      -5.982  73.814 115.656  0.00  0.00    -0.311 N 
ATOM     14  C   LIG d   1      -6.744  72.959 116.336  0.00  0.00     0.210 C 
ATOM     15  C   LIG d   1      -7.185  71.720 115.549  0.00  0.00     0.109 C 
ATOM     16  O   LIG d   1      -7.124  73.125 117.504  0.00  0.00    -0.276 OA
ATOM     17  H   LIG d   1      -5.749  73.617 114.703  0.00  0.00     0.149 HD
ENDBRANCH   6  13
BRANCH   5  18
ATOM     18  N   LIG d   1      -7.667  76.041 116.896  0.00  0.00     0.381 N 
ATOM     19  H   LIG d   1      -8.160  76.907 116.983  0.00  0.00    -0.090 HD
ATOM     20  H   LIG d   1      -7.429  75.719 117.818  0.00  0.00    -0.090 HD
ATOM     21  H   LIG d   1      -8.241  75.368 116.438  0.00  0.00    -0.090 HD
ENDBRANCH   5  18
BRANCH   3  22
ATOM     22  C   LIG d   1      -4.064  79.066 115.995  0.00  0.00     0.382 C 
ATOM     23  O   LIG d   1      -4.802  80.002 116.389  0.00  0.00    -0.241 OA
ATOM     24  O   LIG d   1      -2.970  79.331 115.463  0.00  0.00    -0.241 OA
ENDBRANCH   3  22
TORSDOF 7
ENDMDL
MODEL 9
REMARK VINA RESULT:      -5.2      2.773      5.388
REMARK  7 active torsions:
REMARK  status: ('A' for Active; 'I' for Inactive)
REMARK    1  A    between atoms: C_2  and  C_3 
REMARK    2  A    between atoms: C_3  and  O_6 
REMARK    3  A    between atoms: C_3  and  C_4 
REMARK    4  A    between atoms: C_7  and  O_6 
REMARK    5  A    between atoms: C_9  and  C_10 
REMARK    6  A    between atoms: N_15  and  C_14 
REMARK    7  A    between atoms: N_20  and  C_19 
REMARK       I    between atoms: C_22  and  N_20 
ROOT
ATOM      1  C   LIG d   1      -4.947  74.916 116.246  0.00  0.00     0.161 C 
ATOM      2  C   LIG d   1      -5.692  73.779 115.894  0.00  0.00     0.016 C 
ATOM      3  C   LIG d   1      -7.096  73.694 116.034  0.00  0.00     0.038 C 
ATOM      4  C   LIG d   1      -7.873  74.803 116.398  0.00  0.00     0.028 C 
ATOM      5  C   LIG d   1      -7.118  75.820 117.246  0.00  0.00    -0.047 C 
ATOM      6  C   LIG d   1      -5.789  76.175 116.540  0.00  0.00     0.091 C 
ENDROOT
BRANCH   1   7
ATOM      7  O   LIG d   1      -3.968  75.195 115.225  0.00  0.00    -0.368 OA
BRANCH   7   8
ATOM      8  C   LIG d   1      -2.591  75.271 115.667  0.00  0.00     0.119 C 
BRANCH   8   9
ATOM      9  C   LIG d   1      -1.724  74.576 114.599  0.00  0.00     0.028 C 
ATOM     10  C   LIG d   1      -0.361  74.125 115.153  0.00  0.00     0.006 C 
ENDBRANCH   8   9
BRANCH   8  11
ATOM     11  C   LIG d   1      -2.373  74.468 116.953  0.00  0.00     0.028 C 
ATOM     12  C   LIG d   1      -1.902  75.340 118.127  0.00  0.00     0.006 C 
ENDBRANCH   8  11
ENDBRANCH   7   8
ENDBRANCH   1   7
BRANCH   6  13
ATOM     13  N   LIG d   1      -4.950  77.101 117.344  0.00  0.00    -0.311 N 
ATOM     14  C   LIG d   1      -4.483  78.259 116.879  0.00  0.00     0.210 C 
ATOM     15  C   LIG d   1      -3.620  79.051 117.866  0.00  0.00     0.109 C 
ATOM     16  O   LIG d   1      -4.728  78.719 115.754  0.00  0.00    -0.276 OA
ATOM     17  H   LIG d   1      -4.728  76.820 118.279  0.00  0.00     0.149 HD
ENDBRANCH   6  13
BRANCH   5  18
ATOM     18  N   LIG d   1      -8.001  76.986 117.437  0.00  0.00     0.381 N 
ATOM     19  H   LIG d   1      -8.700  76.774 118.120  0.00  0.00    -0.090 HD
ATOM     20  H   LIG d   1      -8.462  77.190 116.568  0.00  0.00    -0.090 HD
ATOM     21  H   LIG d   1      -7.467  77.774 117.731  0.00  0.00    -0.090 HD
ENDBRANCH   5  18
BRANCH   3  22
ATOM     22  C   LIG d   1      -7.733  72.476 115.848  0.00  0.00     0.382 C 
ATOM     23  O   LIG d   1      -7.074  71.473 115.483  0.00  0.00    -0.241 OA
ATOM     24  O   LIG d   1      -8.966  72.379 115.998  0.00  0.00    -0.241 OA
ENDBRANCH   3  22
TORSDOF 7
ENDMDL
