MODEL 1
REMARK VINA RESULT:      -5.4      0.000      0.000
REMARK  7 active torsions:
REMARK  status: ('A' for Active; 'I' for Inactive)
REMARK    1  A    between atoms: C_2  and  C_3 
REMARK    2  A    between atoms: C_3  and  O_6 
REMARK    3  A    between atoms: C_3  and  C_4 
REMARK    4  A    between atoms: C_7  and  O_6 
REMARK    5  A    between atoms: C_9  and  C_10 
REMARK    6  A    between atoms: N_15  and  C_14 
REMARK    7  A    between atoms: N_20  and  C_19 
REMARK       I    between atoms: C_22  and  N_20 
ROOT
ATOM      1  C   LIG d   1      -2.152  75.792 114.834  0.00  0.00     0.161 C 
ATOM      2  C   LIG d   1      -1.553  75.083 113.779  0.00  0.00     0.016 C 
ATOM      3  C   LIG d   1      -0.217  74.623 113.811  0.00  0.00     0.038 C 
ATOM      4  C   LIG d   1       0.570  74.712 114.969  0.00  0.00     0.028 C 
ATOM      5  C   LIG d   1       0.177  75.867 115.882  0.00  0.00    -0.047 C 
ATOM      6  C   LIG d   1      -1.345  75.801 116.148  0.00  0.00     0.091 C 
ENDROOT
BRANCH   1   7
ATOM      7  O   LIG d   1      -3.483  75.290 115.066  0.00  0.00    -0.368 OA
BRANCH   7   8
ATOM      8  C   LIG d   1      -4.571  76.159 114.665  0.00  0.00     0.119 C 
BRANCH   8   9
ATOM      9  C   LIG d   1      -5.216  76.717 115.949  0.00  0.00     0.028 C 
ATOM     10  C   LIG d   1      -6.730  76.454 116.007  0.00  0.00     0.006 C 
ENDBRANCH   8   9
BRANCH   8  11
ATOM     11  C   LIG d   1      -5.682  75.372 113.962  0.00  0.00     0.028 C 
ATOM     12  C   LIG d   1      -5.310  73.900 113.723  0.00  0.00     0.006 C 
ENDBRANCH   8  11
ENDBRANCH   7   8
ENDBRANCH   1   7
BRANCH   6  13
ATOM     13  N   LIG d   1      -1.828  76.944 116.966  0.00  0.00    -0.311 N 
ATOM     14  C   LIG d   1      -1.927  76.906 118.293  0.00  0.00     0.210 C 
ATOM     15  C   LIG d   1      -2.467  78.187 118.938  0.00  0.00     0.109 C 
ATOM     16  O   LIG d   1      -1.588  75.946 119.001  0.00  0.00    -0.276 OA
ATOM     17  H   LIG d   1      -2.094  77.775 116.475  0.00  0.00     0.149 HD
ENDBRANCH   6  13
BRANCH   5  18
ATOM     18  N   LIG d   1       0.984  75.759 117.112  0.00  0.00     0.381 N 
ATOM     19  H   LIG d   1       1.908  76.101 116.942  0.00  0.00    -0.090 HD
ATOM     20  H   LIG d   1       1.049  74.791 117.374  0.00  0.00    -0.090 HD
ATOM     21  H   LIG d   1       0.559  76.280 117.847  0.00  0.00    -0.090 HD
ENDBRANCH   5  18
BRANCH   3  22
ATOM     22  C   LIG d   1       0.359  74.104 112.662  0.00  0.00     0.382 C 
ATOM     23  O   LIG d   1       0.290  74.741 111.583  0.00  0.00    -0.241 OA
ATOM     24  O   LIG d   1       0.907  72.985 112.680  0.00  0.00    -0.241 OA
ENDBRANCH   3  22
TORSDOF 7
ENDMDL
MODEL 2
REMARK VINA RESULT:      -5.4      2.515      3.400
REMARK  7 active torsions:
REMARK  status: ('A' for Active; 'I' for Inactive)
REMARK    1  A    between atoms: C_2  and  C_3 
REMARK    2  A    between atoms: C_3  and  O_6 
REMARK    3  A    between atoms: C_3  and  C_4 
REMARK    4  A    between atoms: C_7  and  O_6 
REMARK    5  A    between atoms: C_9  and  C_10 
REMARK    6  A    between atoms: N_15  and  C_14 
REMARK    7  A    between atoms: N_20  and  C_19 
REMARK       I    between atoms: C_22  and  N_20 
ROOT
ATOM      1  C   LIG d   1      -3.220  77.265 116.012  0.00  0.00     0.161 C 
ATOM      2  C   LIG d   1      -3.452  78.041 114.865  0.00  0.00     0.016 C 
ATOM      3  C   LIG d   1      -2.580  78.066 113.752  0.00  0.00     0.038 C 
ATOM      4  C   LIG d   1      -1.486  77.194 113.649  0.00  0.00     0.028 C 
ATOM      5  C   LIG d   1      -0.930  76.756 115.000  0.00  0.00    -0.047 C 
ATOM      6  C   LIG d   1      -2.090  76.223 115.871  0.00  0.00     0.091 C 
ENDROOT
BRANCH   1   7
ATOM      7  O   LIG d   1      -4.444  76.624 116.424  0.00  0.00    -0.368 OA
BRANCH   7   8
ATOM      8  C   LIG d   1      -5.430  76.407 115.386  0.00  0.00     0.119 C 
BRANCH   8   9
ATOM      9  C   LIG d   1      -6.822  76.560 116.030  0.00  0.00     0.028 C 
ATOM     10  C   LIG d   1      -6.814  77.535 117.219  0.00  0.00     0.006 C 
ENDBRANCH   8   9
BRANCH   8  11
ATOM     11  C   LIG d   1      -5.382  74.968 114.863  0.00  0.00     0.028 C 
ATOM     12  C   LIG d   1      -5.099  74.892 113.354  0.00  0.00     0.006 C 
ENDBRANCH   8  11
ENDBRANCH   7   8
ENDBRANCH   1   7
BRANCH   6  13
ATOM     13  N   LIG d   1      -1.647  75.852 117.240  0.00  0.00    -0.311 N 
ATOM     14  C   LIG d   1      -1.155  74.654 117.551  0.00  0.00     0.210 C 
ATOM     15  C   LIG d   1      -0.777  74.474 119.025  0.00  0.00     0.109 C 
ATOM     16  O   LIG d   1      -0.966  73.735 116.741  0.00  0.00    -0.276 OA
ATOM     17  H   LIG d   1      -1.736  76.549 117.953  0.00  0.00     0.149 HD
ENDBRANCH   6  13
BRANCH   5  18
ATOM     18  N   LIG d   1       0.114  75.745 114.745  0.00  0.00     0.381 N 
ATOM     19  H   LIG d   1      -0.180  75.133 114.010  0.00  0.00    -0.090 HD
ATOM     20  H   LIG d   1       0.245  75.198 115.578  0.00  0.00    -0.090 HD
ATOM     21  H   LIG d   1       0.968  76.192 114.495  0.00  0.00    -0.090 HD
ENDBRANCH   5  18
BRANCH   3  22
ATOM     22  C   LIG d   1      -2.776  78.999 112.746  0.00  0.00     0.382 C 
ATOM     23  O   LIG d   1      -2.238  78.834 111.624  0.00  0.00    -0.241 OA
ATOM     24  O   LIG d   1      -3.448  80.026 112.959  0.00  0.00    -0.241 OA
ENDBRANCH   3  22
TORSDOF 7
ENDMDL
MODEL 3
REMARK VINA RESULT:      -5.2      5.326      6.819
REMARK  7 active torsions:
REMARK  status: ('A' for Active; 'I' for Inactive)
REMARK    1  A    between atoms: C_2  and  C_3 
REMARK    2  A    between atoms: C_3  and  O_6 
REMARK    3  A    between atoms: C_3  and  C_4 
REMARK    4  A    between atoms: C_7  and  O_6 
REMARK    5  A    between atoms: C_9  and  C_10 
REMARK    6  A    between atoms: N_15  and  C_14 
REMARK    7  A    between atoms: N_20  and  C_19 
REMARK       I    between atoms: C_22  and  N_20 
ROOT
ATOM      1  C   LIG d   1      -2.247  80.626 114.911  0.00  0.00     0.161 C 
ATOM      2  C   LIG d   1      -1.793  81.928 114.643  0.00  0.00     0.016 C 
ATOM      3  C   LIG d   1      -1.203  82.310 113.416  0.00  0.00     0.038 C 
ATOM      4  C   LIG d   1      -1.164  81.446 112.312  0.00  0.00     0.028 C 
ATOM      5  C   LIG d   1      -1.152  79.970 112.697  0.00  0.00    -0.047 C 
ATOM      6  C   LIG d   1      -2.315  79.699 113.679  0.00  0.00     0.091 C 
ENDROOT
BRANCH   1   7
ATOM      7  O   LIG d   1      -3.529  80.681 115.568  0.00  0.00    -0.368 OA
BRANCH   7   8
ATOM      8  C   LIG d   1      -3.546  80.299 116.965  0.00  0.00     0.119 C 
BRANCH   8   9
ATOM      9  C   LIG d   1      -4.856  79.528 117.218  0.00  0.00     0.028 C 
ATOM     10  C   LIG d   1      -4.694  78.012 117.011  0.00  0.00     0.006 C 
ENDBRANCH   8   9
BRANCH   8  11
ATOM     11  C   LIG d   1      -3.616  81.527 117.878  0.00  0.00     0.028 C 
ATOM     12  C   LIG d   1      -2.250  81.907 118.470  0.00  0.00     0.006 C 
ENDBRANCH   8  11
ENDBRANCH   7   8
ENDBRANCH   1   7
BRANCH   6  13
ATOM     13  N   LIG d   1      -2.325  78.297 114.172  0.00  0.00    -0.311 N 
ATOM     14  C   LIG d   1      -3.124  77.352 113.680  0.00  0.00     0.210 C 
ATOM     15  C   LIG d   1      -2.988  75.979 114.344  0.00  0.00     0.109 C 
ATOM     16  O   LIG d   1      -3.910  77.513 112.734  0.00  0.00    -0.276 OA
ATOM     17  H   LIG d   1      -1.696  78.071 114.918  0.00  0.00     0.149 HD
ENDBRANCH   6  13
BRANCH   5  18
ATOM     18  N   LIG d   1      -1.251  79.184 111.453  0.00  0.00     0.381 N 
ATOM     19  H   LIG d   1      -1.669  79.740 110.733  0.00  0.00    -0.090 HD
ATOM     20  H   LIG d   1      -1.841  78.387 111.618  0.00  0.00    -0.090 HD
ATOM     21  H   LIG d   1      -0.346  78.883 111.167  0.00  0.00    -0.090 HD
ENDBRANCH   5  18
BRANCH   3  22
ATOM     22  C   LIG d   1      -0.607  83.556 113.298  0.00  0.00     0.382 C 
ATOM     23  O   LIG d   1       0.187  83.958 114.183  0.00  0.00    -0.241 OA
ATOM     24  O   LIG d   1      -0.887  84.303 112.341  0.00  0.00    -0.241 OA
ENDBRANCH   3  22
TORSDOF 7
ENDMDL
MODEL 4
REMARK VINA RESULT:      -5.2     10.824     13.371
REMARK  7 active torsions:
REMARK  status: ('A' for Active; 'I' for Inactive)
REMARK    1  A    between atoms: C_2  and  C_3 
REMARK    2  A    between atoms: C_3  and  O_6 
REMARK    3  A    between atoms: C_3  and  C_4 
REMARK    4  A    between atoms: C_7  and  O_6 
REMARK    5  A    between atoms: C_9  and  C_10 
REMARK    6  A    between atoms: N_15  and  C_14 
REMARK    7  A    between atoms: N_20  and  C_19 
REMARK       I    between atoms: C_22  and  N_20 
ROOT
ATOM      1  C   LIG d   1      10.346  78.858 115.290  0.00  0.00     0.161 C 
ATOM      2  C   LIG d   1      10.047  77.597 114.747  0.00  0.00     0.016 C 
ATOM      3  C   LIG d   1       8.956  76.805 115.172  0.00  0.00     0.038 C 
ATOM      4  C   LIG d   1       7.993  77.290 116.070  0.00  0.00     0.028 C 
ATOM      5  C   LIG d   1       8.532  78.356 117.019  0.00  0.00    -0.047 C 
ATOM      6  C   LIG d   1       9.243  79.451 116.191  0.00  0.00     0.091 C 
ENDROOT
BRANCH   1   7
ATOM      7  O   LIG d   1      10.677  79.779 114.232  0.00  0.00    -0.368 OA
BRANCH   7   8
ATOM      8  C   LIG d   1      11.915  79.519 113.525  0.00  0.00     0.119 C 
BRANCH   8   9
ATOM      9  C   LIG d   1      13.054  80.176 114.329  0.00  0.00     0.028 C 
ATOM     10  C   LIG d   1      14.360  80.276 113.523  0.00  0.00     0.006 C 
ENDBRANCH   8   9
BRANCH   8  11
ATOM     11  C   LIG d   1      11.933  80.209 112.159  0.00  0.00     0.028 C 
ATOM     12  C   LIG d   1      10.954  81.392 112.076  0.00  0.00     0.006 C 
ENDBRANCH   8  11
ENDBRANCH   7   8
ENDBRANCH   1   7
BRANCH   6  13
ATOM     13  N   LIG d   1       9.872  80.490 117.048  0.00  0.00    -0.311 N 
ATOM     14  C   LIG d   1       9.570  81.785 116.972  0.00  0.00     0.210 C 
ATOM     15  C   LIG d   1      10.350  82.688 117.932  0.00  0.00     0.109 C 
ATOM     16  O   LIG d   1       8.706  82.267 116.224  0.00  0.00    -0.276 OA
ATOM     17  H   LIG d   1      10.562  80.182 117.705  0.00  0.00     0.149 HD
ENDBRANCH   6  13
BRANCH   5  18
ATOM     18  N   LIG d   1       7.394  78.871 117.803  0.00  0.00     0.381 N 
ATOM     19  H   LIG d   1       7.720  79.222 118.682  0.00  0.00    -0.090 HD
ATOM     20  H   LIG d   1       6.755  78.116 117.983  0.00  0.00    -0.090 HD
ATOM     21  H   LIG d   1       6.932  79.595 117.299  0.00  0.00    -0.090 HD
ENDBRANCH   5  18
BRANCH   3  22
ATOM     22  C   LIG d   1       8.841  75.497 114.728  0.00  0.00     0.382 C 
ATOM     23  O   LIG d   1       9.761  74.674 114.957  0.00  0.00    -0.241 OA
ATOM     24  O   LIG d   1       7.851  75.140 114.062  0.00  0.00    -0.241 OA
ENDBRANCH   3  22
TORSDOF 7
ENDMDL
MODEL 5
REMARK VINA RESULT:      -5.1      2.853      4.384
REMARK  7 active torsions:
REMARK  status: ('A' for Active; 'I' for Inactive)
REMARK    1  A    between atoms: C_2  and  C_3 
REMARK    2  A    between atoms: C_3  and  O_6 
REMARK    3  A    between atoms: C_3  and  C_4 
REMARK    4  A    between atoms: C_7  and  O_6 
REMARK    5  A    between atoms: C_9  and  C_10 
REMARK    6  A    between atoms: N_15  and  C_14 
REMARK    7  A    between atoms: N_20  and  C_19 
REMARK       I    between atoms: C_22  and  N_20 
ROOT
ATOM      1  C   LIG d   1      -1.543  77.702 114.761  0.00  0.00     0.161 C 
ATOM      2  C   LIG d   1      -2.753  77.433 114.100  0.00  0.00     0.016 C 
ATOM      3  C   LIG d   1      -3.433  76.197 114.195  0.00  0.00     0.038 C 
ATOM      4  C   LIG d   1      -3.024  75.192 115.085  0.00  0.00     0.028 C 
ATOM      5  C   LIG d   1      -1.531  75.226 115.392  0.00  0.00    -0.047 C 
ATOM      6  C   LIG d   1      -1.140  76.658 115.823  0.00  0.00     0.091 C 
ENDROOT
BRANCH   1   7
ATOM      7  O   LIG d   1      -1.589  79.019 115.346  0.00  0.00    -0.368 OA
BRANCH   7   8
ATOM      8  C   LIG d   1      -2.848  79.726 115.228  0.00  0.00     0.119 C 
BRANCH   8   9
ATOM      9  C   LIG d   1      -2.550  81.103 114.606  0.00  0.00     0.028 C 
ATOM     10  C   LIG d   1      -2.609  81.078 113.069  0.00  0.00     0.006 C 
ENDBRANCH   8   9
BRANCH   8  11
ATOM     11  C   LIG d   1      -3.450  80.024 116.604  0.00  0.00     0.028 C 
ATOM     12  C   LIG d   1      -4.378  78.906 117.105  0.00  0.00     0.006 C 
ENDBRANCH   8  11
ENDBRANCH   7   8
ENDBRANCH   1   7
BRANCH   6  13
ATOM     13  N   LIG d   1       0.320  76.799 116.061  0.00  0.00    -0.311 N 
ATOM     14  C   LIG d   1       0.888  76.630 117.254  0.00  0.00     0.210 C 
ATOM     15  C   LIG d   1       2.405  76.842 117.283  0.00  0.00     0.109 C 
ATOM     16  O   LIG d   1       0.285  76.292 118.283  0.00  0.00    -0.276 OA
ATOM     17  H   LIG d   1       0.889  77.042 115.274  0.00  0.00     0.149 HD
ENDBRANCH   6  13
BRANCH   5  18
ATOM     18  N   LIG d   1      -1.267  74.216 116.433  0.00  0.00     0.381 N 
ATOM     19  H   LIG d   1      -1.643  74.525 117.308  0.00  0.00    -0.090 HD
ATOM     20  H   LIG d   1      -0.273  74.108 116.537  0.00  0.00    -0.090 HD
ATOM     21  H   LIG d   1      -1.678  73.345 116.176  0.00  0.00    -0.090 HD
ENDBRANCH   5  18
BRANCH   3  22
ATOM     22  C   LIG d   1      -4.514  75.941 113.365  0.00  0.00     0.382 C 
ATOM     23  O   LIG d   1      -5.052  74.808 113.367  0.00  0.00    -0.241 OA
ATOM     24  O   LIG d   1      -4.930  76.816 112.582  0.00  0.00    -0.241 OA
ENDBRANCH   3  22
TORSDOF 7
ENDMDL
MODEL 6
REMARK VINA RESULT:      -5.1      8.792     10.101
REMARK  7 active torsions:
REMARK  status: ('A' for Active; 'I' for Inactive)
REMARK    1  A    between atoms: C_2  and  C_3 
REMARK    2  A    between atoms: C_3  and  O_6 
REMARK    3  A    between atoms: C_3  and  C_4 
REMARK    4  A    between atoms: C_7  and  O_6 
REMARK    5  A    between atoms: C_9  and  C_10 
REMARK    6  A    between atoms: N_15  and  C_14 
REMARK    7  A    between atoms: N_20  and  C_19 
REMARK       I    between atoms: C_22  and  N_20 
ROOT
ATOM      1  C   LIG d   1       0.455  83.556 112.743  0.00  0.00     0.161 C 
ATOM      2  C   LIG d   1      -0.532  82.675 112.268  0.00  0.00     0.016 C 
ATOM      3  C   LIG d   1      -1.562  82.150 113.081  0.00  0.00     0.038 C 
ATOM      4  C   LIG d   1      -1.766  82.590 114.397  0.00  0.00     0.028 C 
ATOM      5  C   LIG d   1      -0.494  83.096 115.071  0.00  0.00    -0.047 C 
ATOM      6  C   LIG d   1       0.183  84.134 114.148  0.00  0.00     0.091 C 
ENDROOT
BRANCH   1   7
ATOM      7  O   LIG d   1       0.658  84.620 111.793  0.00  0.00    -0.368 OA
BRANCH   7   8
ATOM      8  C   LIG d   1       1.906  84.590 111.058  0.00  0.00     0.119 C 
BRANCH   8   9
ATOM      9  C   LIG d   1       2.777  83.477 111.672  0.00  0.00     0.028 C 
ATOM     10  C   LIG d   1       4.103  84.014 112.238  0.00  0.00     0.006 C 
ENDBRANCH   8   9
BRANCH   8  11
ATOM     11  C   LIG d   1       2.702  85.883 111.257  0.00  0.00     0.028 C 
ATOM     12  C   LIG d   1       1.801  87.118 111.421  0.00  0.00     0.006 C 
ENDBRANCH   8  11
ENDBRANCH   7   8
ENDBRANCH   1   7
BRANCH   6  13
ATOM     13  N   LIG d   1       1.479  84.617 114.693  0.00  0.00    -0.311 N 
ATOM     14  C   LIG d   1       1.736  85.900 114.944  0.00  0.00     0.210 C 
ATOM     15  C   LIG d   1       3.141  86.184 115.485  0.00  0.00     0.109 C 
ATOM     16  O   LIG d   1       0.923  86.825 114.800  0.00  0.00    -0.276 OA
ATOM     17  H   LIG d   1       2.184  83.929 114.869  0.00  0.00     0.149 HD
ENDBRANCH   6  13
BRANCH   5  18
ATOM     18  N   LIG d   1      -0.875  83.650 116.383  0.00  0.00     0.381 N 
ATOM     19  H   LIG d   1      -0.115  84.179 116.761  0.00  0.00    -0.090 HD
ATOM     20  H   LIG d   1      -1.075  82.892 117.011  0.00  0.00    -0.090 HD
ATOM     21  H   LIG d   1      -1.678  84.232 116.288  0.00  0.00    -0.090 HD
ENDBRANCH   5  18
BRANCH   3  22
ATOM     22  C   LIG d   1      -2.378  81.142 112.590  0.00  0.00     0.382 C 
ATOM     23  O   LIG d   1      -1.869  80.133 112.046  0.00  0.00    -0.241 OA
ATOM     24  O   LIG d   1      -3.618  81.250 112.645  0.00  0.00    -0.241 OA
ENDBRANCH   3  22
TORSDOF 7
ENDMDL
MODEL 7
REMARK VINA RESULT:      -5.0      7.403      8.480
REMARK  7 active torsions:
REMARK  status: ('A' for Active; 'I' for Inactive)
REMARK    1  A    between atoms: C_2  and  C_3 
REMARK    2  A    between atoms: C_3  and  O_6 
REMARK    3  A    between atoms: C_3  and  C_4 
REMARK    4  A    between atoms: C_7  and  O_6 
REMARK    5  A    between atoms: C_9  and  C_10 
REMARK    6  A    between atoms: N_15  and  C_14 
REMARK    7  A    between atoms: N_20  and  C_19 
REMARK       I    between atoms: C_22  and  N_20 
ROOT
ATOM      1  C   LIG d   1      -1.100  82.348 112.991  0.00  0.00     0.161 C 
ATOM      2  C   LIG d   1      -1.574  81.182 112.366  0.00  0.00     0.016 C 
ATOM      3  C   LIG d   1      -2.324  80.190 113.038  0.00  0.00     0.038 C 
ATOM      4  C   LIG d   1      -2.783  80.369 114.352  0.00  0.00     0.028 C 
ATOM      5  C   LIG d   1      -1.903  81.300 115.179  0.00  0.00    -0.047 C 
ATOM      6  C   LIG d   1      -1.685  82.614 114.394  0.00  0.00     0.091 C 
ENDROOT
BRANCH   1   7
ATOM      7  O   LIG d   1      -1.319  83.485 112.133  0.00  0.00    -0.368 OA
BRANCH   7   8
ATOM      8  C   LIG d   1      -0.140  84.046 111.505  0.00  0.00     0.119 C 
BRANCH   8   9
ATOM      9  C   LIG d   1       1.090  83.359 112.131  0.00  0.00     0.028 C 
ATOM     10  C   LIG d   1       2.242  83.188 111.127  0.00  0.00     0.006 C 
ENDBRANCH   8   9
BRANCH   8  11
ATOM     11  C   LIG d   1       0.014  85.533 111.835  0.00  0.00     0.028 C 
ATOM     12  C   LIG d   1      -0.970  86.421 111.057  0.00  0.00     0.006 C 
ENDBRANCH   8  11
ENDBRANCH   7   8
ENDBRANCH   1   7
BRANCH   6  13
ATOM     13  N   LIG d   1      -0.766  83.547 115.095  0.00  0.00    -0.311 N 
ATOM     14  C   LIG d   1      -1.048  84.831 115.310  0.00  0.00     0.210 C 
ATOM     15  C   LIG d   1       0.047  85.621 116.033  0.00  0.00     0.109 C 
ATOM     16  O   LIG d   1      -2.114  85.382 114.998  0.00  0.00    -0.276 OA
ATOM     17  H   LIG d   1       0.109  83.175 115.410  0.00  0.00     0.149 HD
ENDBRANCH   6  13
BRANCH   5  18
ATOM     18  N   LIG d   1      -2.570  81.506 116.478  0.00  0.00     0.381 N 
ATOM     19  H   LIG d   1      -3.145  80.716 116.693  0.00  0.00    -0.090 HD
ATOM     20  H   LIG d   1      -3.159  82.318 116.416  0.00  0.00    -0.090 HD
ATOM     21  H   LIG d   1      -1.889  81.635 117.194  0.00  0.00    -0.090 HD
ENDBRANCH   5  18
BRANCH   3  22
ATOM     22  C   LIG d   1      -2.589  78.984 112.407  0.00  0.00     0.382 C 
ATOM     23  O   LIG d   1      -3.315  78.128 112.968  0.00  0.00    -0.241 OA
ATOM     24  O   LIG d   1      -2.074  78.722 111.303  0.00  0.00    -0.241 OA
ENDBRANCH   3  22
TORSDOF 7
ENDMDL
MODEL 8
REMARK VINA RESULT:      -5.0      7.553      8.854
REMARK  7 active torsions:
REMARK  status: ('A' for Active; 'I' for Inactive)
REMARK    1  A    between atoms: C_2  and  C_3 
REMARK    2  A    between atoms: C_3  and  O_6 
REMARK    3  A    between atoms: C_3  and  C_4 
REMARK    4  A    between atoms: C_7  and  O_6 
REMARK    5  A    between atoms: C_9  and  C_10 
REMARK    6  A    between atoms: N_15  and  C_14 
REMARK    7  A    between atoms: N_20  and  C_19 
REMARK       I    between atoms: C_22  and  N_20 
ROOT
ATOM      1  C   LIG d   1      -0.548  83.277 112.601  0.00  0.00     0.161 C 
ATOM      2  C   LIG d   1      -1.514  82.268 112.745  0.00  0.00     0.016 C 
ATOM      3  C   LIG d   1      -1.279  80.913 112.417  0.00  0.00     0.038 C 
ATOM      4  C   LIG d   1      -0.005  80.446 112.063  0.00  0.00     0.028 C 
ATOM      5  C   LIG d   1       0.874  81.513 111.419  0.00  0.00    -0.047 C 
ATOM      6  C   LIG d   1       0.882  82.768 112.322  0.00  0.00     0.091 C 
ENDROOT
BRANCH   1   7
ATOM      7  O   LIG d   1      -0.558  84.132 113.761  0.00  0.00    -0.368 OA
BRANCH   7   8
ATOM      8  C   LIG d   1      -0.198  83.506 115.017  0.00  0.00     0.119 C 
BRANCH   8   9
ATOM      9  C   LIG d   1      -1.350  83.759 116.008  0.00  0.00     0.028 C 
ATOM     10  C   LIG d   1      -2.108  82.469 116.369  0.00  0.00     0.006 C 
ENDBRANCH   8   9
BRANCH   8  11
ATOM     11  C   LIG d   1       1.029  84.176 115.643  0.00  0.00     0.028 C 
ATOM     12  C   LIG d   1       0.692  84.961 116.921  0.00  0.00     0.006 C 
ENDBRANCH   8  11
ENDBRANCH   7   8
ENDBRANCH   1   7
BRANCH   6  13
ATOM     13  N   LIG d   1       1.651  83.891 111.725  0.00  0.00    -0.311 N 
ATOM     14  C   LIG d   1       2.929  84.137 112.008  0.00  0.00     0.210 C 
ATOM     15  C   LIG d   1       3.525  85.356 111.298  0.00  0.00     0.109 C 
ATOM     16  O   LIG d   1       3.634  83.441 112.754  0.00  0.00    -0.276 OA
ATOM     17  H   LIG d   1       1.164  84.487 111.084  0.00  0.00     0.149 HD
ENDBRANCH   6  13
BRANCH   5  18
ATOM     18  N   LIG d   1       2.216  80.930 111.228  0.00  0.00     0.381 N 
ATOM     19  H   LIG d   1       2.263  80.474 110.339  0.00  0.00    -0.090 HD
ATOM     20  H   LIG d   1       2.377  80.243 111.944  0.00  0.00    -0.090 HD
ATOM     21  H   LIG d   1       2.908  81.644 111.281  0.00  0.00    -0.090 HD
ENDBRANCH   5  18
BRANCH   3  22
ATOM     22  C   LIG d   1      -2.337  80.016 112.403  0.00  0.00     0.382 C 
ATOM     23  O   LIG d   1      -3.332  80.208 113.142  0.00  0.00    -0.241 OA
ATOM     24  O   LIG d   1      -2.288  78.993 111.693  0.00  0.00    -0.241 OA
ENDBRANCH   3  22
TORSDOF 7
ENDMDL
MODEL 9
REMARK VINA RESULT:      -5.0     11.180     12.489
REMARK  7 active torsions:
REMARK  status: ('A' for Active; 'I' for Inactive)
REMARK    1  A    between atoms: C_2  and  C_3 
REMARK    2  A    between atoms: C_3  and  O_6 
REMARK    3  A    between atoms: C_3  and  C_4 
REMARK    4  A    between atoms: C_7  and  O_6 
REMARK    5  A    between atoms: C_9  and  C_10 
REMARK    6  A    between atoms: N_15  and  C_14 
REMARK    7  A    between atoms: N_20  and  C_19 
REMARK       I    between atoms: C_22  and  N_20 
ROOT
ATOM      1  C   LIG d   1       2.775  85.758 114.211  0.00  0.00     0.161 C 
ATOM      2  C   LIG d   1       3.565  86.892 114.463  0.00  0.00     0.016 C 
ATOM      3  C   LIG d   1       3.539  88.054 113.658  0.00  0.00     0.038 C 
ATOM      4  C   LIG d   1       2.603  88.220 112.626  0.00  0.00     0.028 C 
ATOM      5  C   LIG d   1       2.130  86.903 112.019  0.00  0.00    -0.047 C 
ATOM      6  C   LIG d   1       1.667  85.964 113.156  0.00  0.00     0.091 C 
ENDROOT
BRANCH   1   7
ATOM      7  O   LIG d   1       2.208  85.273 115.444  0.00  0.00    -0.368 OA
BRANCH   7   8
ATOM      8  C   LIG d   1       0.914  85.815 115.807  0.00  0.00     0.119 C 
BRANCH   8   9
ATOM      9  C   LIG d   1       1.107  86.663 117.079  0.00  0.00     0.028 C 
ATOM     10  C   LIG d   1       0.442  88.045 116.969  0.00  0.00     0.006 C 
ENDBRANCH   8   9
BRANCH   8  11
ATOM     11  C   LIG d   1      -0.063  84.704 116.205  0.00  0.00     0.028 C 
ATOM     12  C   LIG d   1      -1.426  84.830 115.507  0.00  0.00     0.006 C 
ENDBRANCH   8  11
ENDBRANCH   7   8
ENDBRANCH   1   7
BRANCH   6  13
ATOM     13  N   LIG d   1       1.268  84.622 112.656  0.00  0.00    -0.311 N 
ATOM     14  C   LIG d   1       0.037  84.332 112.238  0.00  0.00     0.210 C 
ATOM     15  C   LIG d   1      -0.166  82.884 111.781  0.00  0.00     0.109 C 
ATOM     16  O   LIG d   1      -0.897  85.145 112.171  0.00  0.00    -0.276 OA
ATOM     17  H   LIG d   1       1.973  83.911 112.646  0.00  0.00     0.149 HD
ENDBRANCH   6  13
BRANCH   5  18
ATOM     18  N   LIG d   1       1.059  87.216 111.055  0.00  0.00     0.381 N 
ATOM     19  H   LIG d   1       0.903  86.431 110.455  0.00  0.00    -0.090 HD
ATOM     20  H   LIG d   1       1.348  87.994 110.488  0.00  0.00    -0.090 HD
ATOM     21  H   LIG d   1       0.219  87.443 111.540  0.00  0.00    -0.090 HD
ENDBRANCH   5  18
BRANCH   3  22
ATOM     22  C   LIG d   1       4.483  89.049 113.857  0.00  0.00     0.382 C 
ATOM     23  O   LIG d   1       4.402  90.127 113.220  0.00  0.00    -0.241 OA
ATOM     24  O   LIG d   1       5.441  88.866 114.632  0.00  0.00    -0.241 OA
ENDBRANCH   3  22
TORSDOF 7
ENDMDL
