MODEL 1
REMARK VINA RESULT:      -5.4      0.000      0.000
REMARK  7 active torsions:
REMARK  status: ('A' for Active; 'I' for Inactive)
REMARK    1  A    between atoms: C_2  and  C_3 
REMARK    2  A    between atoms: C_3  and  O_6 
REMARK    3  A    between atoms: C_3  and  C_4 
REMARK    4  A    between atoms: C_7  and  O_6 
REMARK    5  A    between atoms: C_9  and  C_10 
REMARK    6  A    between atoms: N_15  and  C_14 
REMARK    7  A    between atoms: N_20  and  C_19 
REMARK       I    between atoms: C_22  and  N_20 
ROOT
ATOM      1  C   LIG d   1       3.374  85.257 112.630  0.00  0.00     0.161 C 
ATOM      2  C   LIG d   1       4.193  86.345 112.973  0.00  0.00     0.016 C 
ATOM      3  C   LIG d   1       3.807  87.694 112.801  0.00  0.00     0.038 C 
ATOM      4  C   LIG d   1       2.507  88.050 112.412  0.00  0.00     0.028 C 
ATOM      5  C   LIG d   1       1.812  86.982 111.574  0.00  0.00    -0.047 C 
ATOM      6  C   LIG d   1       1.910  85.625 112.309  0.00  0.00     0.091 C 
ENDROOT
BRANCH   1   7
ATOM      7  O   LIG d   1       3.423  84.261 113.671  0.00  0.00    -0.368 OA
BRANCH   7   8
ATOM      8  C   LIG d   1       4.290  83.126 113.427  0.00  0.00     0.119 C 
BRANCH   8   9
ATOM      9  C   LIG d   1       4.394  82.943 111.900  0.00  0.00     0.028 C 
ATOM     10  C   LIG d   1       3.749  81.632 111.421  0.00  0.00     0.006 C 
ENDBRANCH   8   9
BRANCH   8  11
ATOM     11  C   LIG d   1       3.668  81.827 113.949  0.00  0.00     0.028 C 
ATOM     12  C   LIG d   1       4.172  81.447 115.350  0.00  0.00     0.006 C 
ENDBRANCH   8  11
ENDBRANCH   7   8
ENDBRANCH   1   7
BRANCH   6  13
ATOM     13  N   LIG d   1       1.329  84.509 111.518  0.00  0.00    -0.311 N 
ATOM     14  C   LIG d   1       0.543  83.570 112.042  0.00  0.00     0.210 C 
ATOM     15  C   LIG d   1       0.067  82.500 111.055  0.00  0.00     0.109 C 
ATOM     16  O   LIG d   1       0.168  83.541 113.224  0.00  0.00    -0.276 OA
ATOM     17  H   LIG d   1       1.556  84.474 110.543  0.00  0.00     0.149 HD
ENDBRANCH   6  13
BRANCH   5  18
ATOM     18  N   LIG d   1       0.421  87.422 111.356  0.00  0.00     0.381 N 
ATOM     19  H   LIG d   1      -0.152  86.633 111.129  0.00  0.00    -0.090 HD
ATOM     20  H   LIG d   1       0.400  88.060 110.581  0.00  0.00    -0.090 HD
ATOM     21  H   LIG d   1       0.073  87.870 112.175  0.00  0.00    -0.090 HD
ENDBRANCH   5  18
BRANCH   3  22
ATOM     22  C   LIG d   1       4.740  88.704 112.981  0.00  0.00     0.382 C 
ATOM     23  O   LIG d   1       4.358  89.871 113.239  0.00  0.00    -0.241 OA
ATOM     24  O   LIG d   1       5.956  88.472 112.846  0.00  0.00    -0.241 OA
ENDBRANCH   3  22
TORSDOF 7
ENDMDL
MODEL 2
REMARK VINA RESULT:      -4.9      1.744      5.209
REMARK  7 active torsions:
REMARK  status: ('A' for Active; 'I' for Inactive)
REMARK    1  A    between atoms: C_2  and  C_3 
REMARK    2  A    between atoms: C_3  and  O_6 
REMARK    3  A    between atoms: C_3  and  C_4 
REMARK    4  A    between atoms: C_7  and  O_6 
REMARK    5  A    between atoms: C_9  and  C_10 
REMARK    6  A    between atoms: N_15  and  C_14 
REMARK    7  A    between atoms: N_20  and  C_19 
REMARK       I    between atoms: C_22  and  N_20 
ROOT
ATOM      1  C   LIG d   1       1.591  84.257 113.610  0.00  0.00     0.161 C 
ATOM      2  C   LIG d   1       0.716  83.203 113.298  0.00  0.00     0.016 C 
ATOM      3  C   LIG d   1      -0.355  83.326 112.383  0.00  0.00     0.038 C 
ATOM      4  C   LIG d   1      -0.533  84.477 111.600  0.00  0.00     0.028 C 
ATOM      5  C   LIG d   1       0.019  85.742 112.248  0.00  0.00    -0.047 C 
ATOM      6  C   LIG d   1       1.480  85.486 112.684  0.00  0.00     0.091 C 
ENDROOT
BRANCH   1   7
ATOM      7  O   LIG d   1       2.948  83.774 113.640  0.00  0.00    -0.368 OA
BRANCH   7   8
ATOM      8  C   LIG d   1       3.112  82.334 113.636  0.00  0.00     0.119 C 
BRANCH   8   9
ATOM      9  C   LIG d   1       3.723  81.934 114.993  0.00  0.00     0.028 C 
ATOM     10  C   LIG d   1       4.778  80.822 114.856  0.00  0.00     0.006 C 
ENDBRANCH   8   9
BRANCH   8  11
ATOM     11  C   LIG d   1       4.134  81.893 112.585  0.00  0.00     0.028 C 
ATOM     12  C   LIG d   1       3.484  81.503 111.248  0.00  0.00     0.006 C 
ENDBRANCH   8  11
ENDBRANCH   7   8
ENDBRANCH   1   7
BRANCH   6  13
ATOM     13  N   LIG d   1       2.068  86.646 113.402  0.00  0.00    -0.311 N 
ATOM     14  C   LIG d   1       2.740  87.622 112.794  0.00  0.00     0.210 C 
ATOM     15  C   LIG d   1       3.280  88.713 113.724  0.00  0.00     0.109 C 
ATOM     16  O   LIG d   1       2.912  87.704 111.568  0.00  0.00    -0.276 OA
ATOM     17  H   LIG d   1       1.949  86.675 114.396  0.00  0.00     0.149 HD
ENDBRANCH   6  13
BRANCH   5  18
ATOM     18  N   LIG d   1      -0.110  86.837 111.269  0.00  0.00     0.381 N 
ATOM     19  H   LIG d   1      -1.018  86.812 110.850  0.00  0.00    -0.090 HD
ATOM     20  H   LIG d   1       0.575  86.707 110.545  0.00  0.00    -0.090 HD
ATOM     21  H   LIG d   1       0.033  87.715 111.718  0.00  0.00    -0.090 HD
ENDBRANCH   5  18
BRANCH   3  22
ATOM     22  C   LIG d   1      -1.286  82.304 112.274  0.00  0.00     0.382 C 
ATOM     23  O   LIG d   1      -1.114  81.386 111.436  0.00  0.00    -0.241 OA
ATOM     24  O   LIG d   1      -2.318  82.313 112.972  0.00  0.00    -0.241 OA
ENDBRANCH   3  22
TORSDOF 7
ENDMDL
MODEL 3
REMARK VINA RESULT:      -4.9      2.089      2.756
REMARK  7 active torsions:
REMARK  status: ('A' for Active; 'I' for Inactive)
REMARK    1  A    between atoms: C_2  and  C_3 
REMARK    2  A    between atoms: C_3  and  O_6 
REMARK    3  A    between atoms: C_3  and  C_4 
REMARK    4  A    between atoms: C_7  and  O_6 
REMARK    5  A    between atoms: C_9  and  C_10 
REMARK    6  A    between atoms: N_15  and  C_14 
REMARK    7  A    between atoms: N_20  and  C_19 
REMARK       I    between atoms: C_22  and  N_20 
ROOT
ATOM      1  C   LIG d   1       3.010  85.326 113.575  0.00  0.00     0.161 C 
ATOM      2  C   LIG d   1       3.901  86.408 113.658  0.00  0.00     0.016 C 
ATOM      3  C   LIG d   1       3.677  87.651 113.024  0.00  0.00     0.038 C 
ATOM      4  C   LIG d   1       2.465  87.949 112.384  0.00  0.00     0.028 C 
ATOM      5  C   LIG d   1       1.746  86.717 111.844  0.00  0.00    -0.047 C 
ATOM      6  C   LIG d   1       1.630  85.669 112.974  0.00  0.00     0.091 C 
ENDROOT
BRANCH   1   7
ATOM      7  O   LIG d   1       2.854  84.721 114.874  0.00  0.00    -0.368 OA
BRANCH   7   8
ATOM      8  C   LIG d   1       3.531  85.382 115.971  0.00  0.00     0.119 C 
BRANCH   8   9
ATOM      9  C   LIG d   1       4.492  84.358 116.606  0.00  0.00     0.028 C 
ATOM     10  C   LIG d   1       5.968  84.763 116.450  0.00  0.00     0.006 C 
ENDBRANCH   8   9
BRANCH   8  11
ATOM     11  C   LIG d   1       2.550  85.762 117.084  0.00  0.00     0.028 C 
ATOM     12  C   LIG d   1       1.442  86.712 116.603  0.00  0.00     0.006 C 
ENDBRANCH   8  11
ENDBRANCH   7   8
ENDBRANCH   1   7
BRANCH   6  13
ATOM     13  N   LIG d   1       1.014  84.399 112.509  0.00  0.00    -0.311 N 
ATOM     14  C   LIG d   1      -0.290  84.144 112.589  0.00  0.00     0.210 C 
ATOM     15  C   LIG d   1      -0.714  82.766 112.070  0.00  0.00     0.109 C 
ATOM     16  O   LIG d   1      -1.142  84.941 113.011  0.00  0.00    -0.276 OA
ATOM     17  H   LIG d   1       1.629  83.708 112.123  0.00  0.00     0.149 HD
ENDBRANCH   6  13
BRANCH   5  18
ATOM     18  N   LIG d   1       0.436  87.156 111.327  0.00  0.00     0.381 N 
ATOM     19  H   LIG d   1      -0.298  86.702 111.834  0.00  0.00    -0.090 HD
ATOM     20  H   LIG d   1       0.363  86.891 110.361  0.00  0.00    -0.090 HD
ATOM     21  H   LIG d   1       0.349  88.144 111.415  0.00  0.00    -0.090 HD
ENDBRANCH   5  18
BRANCH   3  22
ATOM     22  C   LIG d   1       4.689  88.599 112.992  0.00  0.00     0.382 C 
ATOM     23  O   LIG d   1       4.421  89.809 113.187  0.00  0.00    -0.241 OA
ATOM     24  O   LIG d   1       5.859  88.265 112.726  0.00  0.00    -0.241 OA
ENDBRANCH   3  22
TORSDOF 7
ENDMDL
MODEL 4
REMARK VINA RESULT:      -4.6      4.334      6.354
REMARK  7 active torsions:
REMARK  status: ('A' for Active; 'I' for Inactive)
REMARK    1  A    between atoms: C_2  and  C_3 
REMARK    2  A    between atoms: C_3  and  O_6 
REMARK    3  A    between atoms: C_3  and  C_4 
REMARK    4  A    between atoms: C_7  and  O_6 
REMARK    5  A    between atoms: C_9  and  C_10 
REMARK    6  A    between atoms: N_15  and  C_14 
REMARK    7  A    between atoms: N_20  and  C_19 
REMARK       I    between atoms: C_22  and  N_20 
ROOT
ATOM      1  C   LIG d   1       4.979  87.174 115.754  0.00  0.00     0.161 C 
ATOM      2  C   LIG d   1       3.988  88.165 115.650  0.00  0.00     0.016 C 
ATOM      3  C   LIG d   1       4.196  89.514 116.018  0.00  0.00     0.038 C 
ATOM      4  C   LIG d   1       5.463  89.998 116.376  0.00  0.00     0.028 C 
ATOM      5  C   LIG d   1       6.371  88.932 116.978  0.00  0.00    -0.047 C 
ATOM      6  C   LIG d   1       6.399  87.706 116.037  0.00  0.00     0.091 C 
ENDROOT
BRANCH   1   7
ATOM      7  O   LIG d   1       4.978  86.356 114.567  0.00  0.00    -0.368 OA
BRANCH   7   8
ATOM      8  C   LIG d   1       3.928  86.627 113.607  0.00  0.00     0.119 C 
BRANCH   8   9
ATOM      9  C   LIG d   1       3.045  85.367 113.517  0.00  0.00     0.028 C 
ATOM     10  C   LIG d   1       1.688  85.549 114.217  0.00  0.00     0.006 C 
ENDBRANCH   8   9
BRANCH   8  11
ATOM     11  C   LIG d   1       4.497  86.824 112.199  0.00  0.00     0.028 C 
ATOM     12  C   LIG d   1       4.048  85.732 111.216  0.00  0.00     0.006 C 
ENDBRANCH   8  11
ENDBRANCH   7   8
ENDBRANCH   1   7
BRANCH   6  13
ATOM     13  N   LIG d   1       7.198  86.583 116.592  0.00  0.00    -0.311 N 
ATOM     14  C   LIG d   1       8.486  86.390 116.311  0.00  0.00     0.210 C 
ATOM     15  C   LIG d   1       9.115  85.160 116.973  0.00  0.00     0.109 C 
ATOM     16  O   LIG d   1       9.175  87.138 115.601  0.00  0.00    -0.276 OA
ATOM     17  H   LIG d   1       6.726  85.945 117.202  0.00  0.00     0.149 HD
ENDBRANCH   6  13
BRANCH   5  18
ATOM     18  N   LIG d   1       7.701  89.539 117.177  0.00  0.00     0.381 N 
ATOM     19  H   LIG d   1       8.212  89.523 116.317  0.00  0.00    -0.090 HD
ATOM     20  H   LIG d   1       8.207  88.998 117.856  0.00  0.00    -0.090 HD
ATOM     21  H   LIG d   1       7.603  90.478 117.495  0.00  0.00    -0.090 HD
ENDBRANCH   5  18
BRANCH   3  22
ATOM     22  C   LIG d   1       3.119  90.386 116.069  0.00  0.00     0.382 C 
ATOM     23  O   LIG d   1       3.230  91.485 116.663  0.00  0.00    -0.241 OA
ATOM     24  O   LIG d   1       2.024  90.068 115.566  0.00  0.00    -0.241 OA
ENDBRANCH   3  22
TORSDOF 7
ENDMDL
MODEL 5
REMARK VINA RESULT:      -4.6      2.932      4.627
REMARK  7 active torsions:
REMARK  status: ('A' for Active; 'I' for Inactive)
REMARK    1  A    between atoms: C_2  and  C_3 
REMARK    2  A    between atoms: C_3  and  O_6 
REMARK    3  A    between atoms: C_3  and  C_4 
REMARK    4  A    between atoms: C_7  and  O_6 
REMARK    5  A    between atoms: C_9  and  C_10 
REMARK    6  A    between atoms: N_15  and  C_14 
REMARK    7  A    between atoms: N_20  and  C_19 
REMARK       I    between atoms: C_22  and  N_20 
ROOT
ATOM      1  C   LIG d   1       3.168  85.493 114.822  0.00  0.00     0.161 C 
ATOM      2  C   LIG d   1       2.985  86.603 113.982  0.00  0.00     0.016 C 
ATOM      3  C   LIG d   1       3.924  87.653 113.864  0.00  0.00     0.038 C 
ATOM      4  C   LIG d   1       5.188  87.589 114.470  0.00  0.00     0.028 C 
ATOM      5  C   LIG d   1       5.214  86.727 115.728  0.00  0.00    -0.047 C 
ATOM      6  C   LIG d   1       4.589  85.350 115.405  0.00  0.00     0.091 C 
ENDROOT
BRANCH   1   7
ATOM      7  O   LIG d   1       2.787  84.287 114.129  0.00  0.00    -0.368 OA
BRANCH   7   8
ATOM      8  C   LIG d   1       2.158  84.467 112.836  0.00  0.00     0.119 C 
BRANCH   8   9
ATOM      9  C   LIG d   1       0.726  83.905 112.937  0.00  0.00     0.028 C 
ATOM     10  C   LIG d   1      -0.341  85.013 112.927  0.00  0.00     0.006 C 
ENDBRANCH   8   9
BRANCH   8  11
ATOM     11  C   LIG d   1       2.848  83.627 111.758  0.00  0.00     0.028 C 
ATOM     12  C   LIG d   1       4.379  83.617 111.900  0.00  0.00     0.006 C 
ENDBRANCH   8  11
ENDBRANCH   7   8
ENDBRANCH   1   7
BRANCH   6  13
ATOM     13  N   LIG d   1       4.498  84.475 116.603  0.00  0.00    -0.311 N 
ATOM     14  C   LIG d   1       5.447  83.606 116.950  0.00  0.00     0.210 C 
ATOM     15  C   LIG d   1       5.144  82.787 118.209  0.00  0.00     0.109 C 
ATOM     16  O   LIG d   1       6.524  83.459 116.353  0.00  0.00    -0.276 OA
ATOM     17  H   LIG d   1       3.671  84.551 117.162  0.00  0.00     0.149 HD
ENDBRANCH   6  13
BRANCH   5  18
ATOM     18  N   LIG d   1       6.616  86.635 116.176  0.00  0.00     0.381 N 
ATOM     19  H   LIG d   1       6.920  85.682 116.145  0.00  0.00    -0.090 HD
ATOM     20  H   LIG d   1       6.674  86.954 117.128  0.00  0.00    -0.090 HD
ATOM     21  H   LIG d   1       7.198  87.196 115.594  0.00  0.00    -0.090 HD
ENDBRANCH   5  18
BRANCH   3  22
ATOM     22  C   LIG d   1       3.586  88.803 113.166  0.00  0.00     0.382 C 
ATOM     23  O   LIG d   1       2.440  88.921 112.670  0.00  0.00    -0.241 OA
ATOM     24  O   LIG d   1       4.427  89.704 112.989  0.00  0.00    -0.241 OA
ENDBRANCH   3  22
TORSDOF 7
ENDMDL
MODEL 6
REMARK VINA RESULT:      -4.4     10.551     13.299
REMARK  7 active torsions:
REMARK  status: ('A' for Active; 'I' for Inactive)
REMARK    1  A    between atoms: C_2  and  C_3 
REMARK    2  A    between atoms: C_3  and  O_6 
REMARK    3  A    between atoms: C_3  and  C_4 
REMARK    4  A    between atoms: C_7  and  O_6 
REMARK    5  A    between atoms: C_9  and  C_10 
REMARK    6  A    between atoms: N_15  and  C_14 
REMARK    7  A    between atoms: N_20  and  C_19 
REMARK       I    between atoms: C_22  and  N_20 
ROOT
ATOM      1  C   LIG d   1      11.273  76.040 115.125  0.00  0.00     0.161 C 
ATOM      2  C   LIG d   1       9.968  76.560 115.126  0.00  0.00     0.016 C 
ATOM      3  C   LIG d   1       9.662  77.896 114.777  0.00  0.00     0.038 C 
ATOM      4  C   LIG d   1      10.630  78.766 114.253  0.00  0.00     0.028 C 
ATOM      5  C   LIG d   1      12.048  78.440 114.711  0.00  0.00    -0.047 C 
ATOM      6  C   LIG d   1      12.328  76.942 114.450  0.00  0.00     0.091 C 
ENDROOT
BRANCH   1   7
ATOM      7  O   LIG d   1      11.277  74.730 114.524  0.00  0.00    -0.368 OA
BRANCH   7   8
ATOM      8  C   LIG d   1      11.063  73.616 115.425  0.00  0.00     0.119 C 
BRANCH   8   9
ATOM      9  C   LIG d   1      12.390  73.357 116.164  0.00  0.00     0.028 C 
ATOM     10  C   LIG d   1      13.508  72.890 115.217  0.00  0.00     0.006 C 
ENDBRANCH   8   9
BRANCH   8  11
ATOM     11  C   LIG d   1      10.769  72.325 114.654  0.00  0.00     0.028 C 
ATOM     12  C   LIG d   1       9.815  71.385 115.408  0.00  0.00     0.006 C 
ENDBRANCH   8  11
ENDBRANCH   7   8
ENDBRANCH   1   7
BRANCH   6  13
ATOM     13  N   LIG d   1      13.664  76.521 114.946  0.00  0.00    -0.311 N 
ATOM     14  C   LIG d   1      14.777  76.609 114.220  0.00  0.00     0.210 C 
ATOM     15  C   LIG d   1      16.044  76.100 114.915  0.00  0.00     0.109 C 
ATOM     16  O   LIG d   1      14.840  77.090 113.079  0.00  0.00    -0.276 OA
ATOM     17  H   LIG d   1      13.709  76.148 115.874  0.00  0.00     0.149 HD
ENDBRANCH   6  13
BRANCH   5  18
ATOM     18  N   LIG d   1      12.967  79.336 113.984  0.00  0.00     0.381 N 
ATOM     19  H   LIG d   1      12.537  79.647 113.136  0.00  0.00    -0.090 HD
ATOM     20  H   LIG d   1      13.799  78.824 113.746  0.00  0.00    -0.090 HD
ATOM     21  H   LIG d   1      13.202  80.119 114.554  0.00  0.00    -0.090 HD
ENDBRANCH   5  18
BRANCH   3  22
ATOM     22  C   LIG d   1       8.382  78.385 114.988  0.00  0.00     0.382 C 
ATOM     23  O   LIG d   1       7.385  77.693 114.669  0.00  0.00    -0.241 OA
ATOM     24  O   LIG d   1       8.211  79.528 115.452  0.00  0.00    -0.241 OA
ENDBRANCH   3  22
TORSDOF 7
ENDMDL
MODEL 7
REMARK VINA RESULT:      -4.4      4.599      7.729
REMARK  7 active torsions:
REMARK  status: ('A' for Active; 'I' for Inactive)
REMARK    1  A    between atoms: C_2  and  C_3 
REMARK    2  A    between atoms: C_3  and  O_6 
REMARK    3  A    between atoms: C_3  and  C_4 
REMARK    4  A    between atoms: C_7  and  O_6 
REMARK    5  A    between atoms: C_9  and  C_10 
REMARK    6  A    between atoms: N_15  and  C_14 
REMARK    7  A    between atoms: N_20  and  C_19 
REMARK       I    between atoms: C_22  and  N_20 
ROOT
ATOM      1  C   LIG d   1       5.177  89.848 115.044  0.00  0.00     0.161 C 
ATOM      2  C   LIG d   1       4.209  89.596 114.058  0.00  0.00     0.016 C 
ATOM      3  C   LIG d   1       3.783  88.296 113.699  0.00  0.00     0.038 C 
ATOM      4  C   LIG d   1       4.190  87.159 114.414  0.00  0.00     0.028 C 
ATOM      5  C   LIG d   1       5.550  87.320 115.085  0.00  0.00    -0.047 C 
ATOM      6  C   LIG d   1       5.550  88.627 115.911  0.00  0.00     0.091 C 
ENDROOT
BRANCH   1   7
ATOM      7  O   LIG d   1       4.750  90.943 115.878  0.00  0.00    -0.368 OA
BRANCH   7   8
ATOM      8  C   LIG d   1       3.999  90.586 117.065  0.00  0.00     0.119 C 
BRANCH   8   9
ATOM      9  C   LIG d   1       2.514  90.881 116.778  0.00  0.00     0.028 C 
ATOM     10  C   LIG d   1       1.604  89.685 117.107  0.00  0.00     0.006 C 
ENDBRANCH   8   9
BRANCH   8  11
ATOM     11  C   LIG d   1       4.369  91.482 118.250  0.00  0.00     0.028 C 
ATOM     12  C   LIG d   1       3.832  92.915 118.104  0.00  0.00     0.006 C 
ENDBRANCH   8  11
ENDBRANCH   7   8
ENDBRANCH   1   7
BRANCH   6  13
ATOM     13  N   LIG d   1       6.871  88.904 116.533  0.00  0.00    -0.311 N 
ATOM     14  C   LIG d   1       7.107  88.783 117.838  0.00  0.00     0.210 C 
ATOM     15  C   LIG d   1       8.532  89.138 118.274  0.00  0.00     0.109 C 
ATOM     16  O   LIG d   1       6.280  88.385 118.672  0.00  0.00    -0.276 OA
ATOM     17  H   LIG d   1       7.608  89.203 115.925  0.00  0.00     0.149 HD
ENDBRANCH   6  13
BRANCH   5  18
ATOM     18  N   LIG d   1       5.787  86.118 115.906  0.00  0.00     0.381 N 
ATOM     19  H   LIG d   1       5.718  85.299 115.335  0.00  0.00    -0.090 HD
ATOM     20  H   LIG d   1       5.081  86.066 116.619  0.00  0.00    -0.090 HD
ATOM     21  H   LIG d   1       6.690  86.164 116.325  0.00  0.00    -0.090 HD
ENDBRANCH   5  18
BRANCH   3  22
ATOM     22  C   LIG d   1       2.972  88.120 112.589  0.00  0.00     0.382 C 
ATOM     23  O   LIG d   1       3.225  87.209 111.765  0.00  0.00    -0.241 OA
ATOM     24  O   LIG d   1       2.015  88.889 112.378  0.00  0.00    -0.241 OA
ENDBRANCH   3  22
TORSDOF 7
ENDMDL
MODEL 8
REMARK VINA RESULT:      -4.4     25.356     27.598
REMARK  7 active torsions:
REMARK  status: ('A' for Active; 'I' for Inactive)
REMARK    1  A    between atoms: C_2  and  C_3 
REMARK    2  A    between atoms: C_3  and  O_6 
REMARK    3  A    between atoms: C_3  and  C_4 
REMARK    4  A    between atoms: C_7  and  O_6 
REMARK    5  A    between atoms: C_9  and  C_10 
REMARK    6  A    between atoms: N_15  and  C_14 
REMARK    7  A    between atoms: N_20  and  C_19 
REMARK       I    between atoms: C_22  and  N_20 
ROOT
ATOM      1  C   LIG d   1     -24.840  84.479 116.205  0.00  0.00     0.161 C 
ATOM      2  C   LIG d   1     -23.759  84.660 117.084  0.00  0.00     0.016 C 
ATOM      3  C   LIG d   1     -22.711  83.722 117.233  0.00  0.00     0.038 C 
ATOM      4  C   LIG d   1     -22.595  82.602 116.396  0.00  0.00     0.028 C 
ATOM      5  C   LIG d   1     -23.931  82.119 115.841  0.00  0.00    -0.047 C 
ATOM      6  C   LIG d   1     -24.672  83.316 115.205  0.00  0.00     0.091 C 
ENDROOT
BRANCH   1   7
ATOM      7  O   LIG d   1     -25.110  85.709 115.504  0.00  0.00    -0.368 OA
BRANCH   7   8
ATOM      8  C   LIG d   1     -24.655  85.772 114.130  0.00  0.00     0.119 C 
BRANCH   8   9
ATOM      9  C   LIG d   1     -23.307  86.520 114.123  0.00  0.00     0.028 C 
ATOM     10  C   LIG d   1     -22.125  85.595 113.788  0.00  0.00     0.006 C 
ENDBRANCH   8   9
BRANCH   8  11
ATOM     11  C   LIG d   1     -25.595  86.622 113.270  0.00  0.00     0.028 C 
ATOM     12  C   LIG d   1     -25.854  86.008 111.885  0.00  0.00     0.006 C 
ENDBRANCH   8  11
ENDBRANCH   7   8
ENDBRANCH   1   7
BRANCH   6  13
ATOM     13  N   LIG d   1     -26.025  82.948 114.712  0.00  0.00    -0.311 N 
ATOM     14  C   LIG d   1     -26.270  82.564 113.460  0.00  0.00     0.210 C 
ATOM     15  C   LIG d   1     -27.738  82.249 113.156  0.00  0.00     0.109 C 
ATOM     16  O   LIG d   1     -25.406  82.423 112.582  0.00  0.00    -0.276 OA
ATOM     17  H   LIG d   1     -26.780  83.005 115.367  0.00  0.00     0.149 HD
ENDBRANCH   6  13
BRANCH   5  18
ATOM     18  N   LIG d   1     -23.649  81.036 114.880  0.00  0.00     0.381 N 
ATOM     19  H   LIG d   1     -23.013  81.362 114.180  0.00  0.00    -0.090 HD
ATOM     20  H   LIG d   1     -24.506  80.770 114.429  0.00  0.00    -0.090 HD
ATOM     21  H   LIG d   1     -23.258  80.252 115.355  0.00  0.00    -0.090 HD
ENDBRANCH   5  18
BRANCH   3  22
ATOM     22  C   LIG d   1     -21.787  83.880 118.255  0.00  0.00     0.382 C 
ATOM     23  O   LIG d   1     -21.933  84.800 119.095  0.00  0.00    -0.241 OA
ATOM     24  O   LIG d   1     -20.787  83.141 118.321  0.00  0.00    -0.241 OA
ENDBRANCH   3  22
TORSDOF 7
ENDMDL
MODEL 9
REMARK VINA RESULT:      -4.3     25.086     27.262
REMARK  7 active torsions:
REMARK  status: ('A' for Active; 'I' for Inactive)
REMARK    1  A    between atoms: C_2  and  C_3 
REMARK    2  A    between atoms: C_3  and  O_6 
REMARK    3  A    between atoms: C_3  and  C_4 
REMARK    4  A    between atoms: C_7  and  O_6 
REMARK    5  A    between atoms: C_9  and  C_10 
REMARK    6  A    between atoms: N_15  and  C_14 
REMARK    7  A    between atoms: N_20  and  C_19 
REMARK       I    between atoms: C_22  and  N_20 
ROOT
ATOM      1  C   LIG d   1     -23.436  82.799 116.333  0.00  0.00     0.161 C 
ATOM      2  C   LIG d   1     -24.010  81.538 116.569  0.00  0.00     0.016 C 
ATOM      3  C   LIG d   1     -24.721  80.811 115.587  0.00  0.00     0.038 C 
ATOM      4  C   LIG d   1     -24.778  81.231 114.250  0.00  0.00     0.028 C 
ATOM      5  C   LIG d   1     -24.645  82.741 114.082  0.00  0.00    -0.047 C 
ATOM      6  C   LIG d   1     -23.392  83.222 114.850  0.00  0.00     0.091 C 
ENDROOT
BRANCH   1   7
ATOM      7  O   LIG d   1     -22.116  82.850 116.908  0.00  0.00    -0.368 OA
BRANCH   7   8
ATOM      8  C   LIG d   1     -21.968  83.671 118.093  0.00  0.00     0.119 C 
BRANCH   8   9
ATOM      9  C   LIG d   1     -21.879  82.723 119.305  0.00  0.00     0.028 C 
ATOM     10  C   LIG d   1     -20.651  81.799 119.238  0.00  0.00     0.006 C 
ENDBRANCH   8   9
BRANCH   8  11
ATOM     11  C   LIG d   1     -23.215  84.526 118.338  0.00  0.00     0.028 C 
ATOM     12  C   LIG d   1     -22.918  86.033 118.313  0.00  0.00     0.006 C 
ENDBRANCH   8  11
ENDBRANCH   7   8
ENDBRANCH   1   7
BRANCH   6  13
ATOM     13  N   LIG d   1     -23.235  84.699 114.808  0.00  0.00    -0.311 N 
ATOM     14  C   LIG d   1     -22.521  85.335 113.881  0.00  0.00     0.210 C 
ATOM     15  C   LIG d   1     -22.472  86.858 114.033  0.00  0.00     0.109 C 
ATOM     16  O   LIG d   1     -21.949  84.784 112.928  0.00  0.00    -0.276 OA
ATOM     17  H   LIG d   1     -23.692  85.227 115.526  0.00  0.00     0.149 HD
ENDBRANCH   6  13
BRANCH   5  18
ATOM     18  N   LIG d   1     -24.581  83.025 112.636  0.00  0.00     0.381 N 
ATOM     19  H   LIG d   1     -24.894  82.227 112.120  0.00  0.00    -0.090 HD
ATOM     20  H   LIG d   1     -23.627  83.210 112.383  0.00  0.00    -0.090 HD
ATOM     21  H   LIG d   1     -25.150  83.814 112.419  0.00  0.00    -0.090 HD
ENDBRANCH   5  18
BRANCH   3  22
ATOM     22  C   LIG d   1     -25.419  79.669 115.949  0.00  0.00     0.382 C 
ATOM     23  O   LIG d   1     -25.115  78.562 115.445  0.00  0.00    -0.241 OA
ATOM     24  O   LIG d   1     -26.379  79.740 116.740  0.00  0.00    -0.241 OA
ENDBRANCH   3  22
TORSDOF 7
ENDMDL
