MODEL 1
REMARK VINA RESULT:      -5.9      0.000      0.000
REMARK  7 active torsions:
REMARK  status: ('A' for Active; 'I' for Inactive)
REMARK    1  A    between atoms: C_2  and  C_3 
REMARK    2  A    between atoms: C_3  and  O_6 
REMARK    3  A    between atoms: C_3  and  C_4 
REMARK    4  A    between atoms: C_7  and  O_6 
REMARK    5  A    between atoms: C_9  and  C_10 
REMARK    6  A    between atoms: N_15  and  C_14 
REMARK    7  A    between atoms: N_20  and  C_19 
REMARK       I    between atoms: C_22  and  N_20 
ROOT
ATOM      1  C   LIG d   1      -3.156  77.528 114.715  0.00  0.00     0.161 C 
ATOM      2  C   LIG d   1      -3.313  78.673 113.916  0.00  0.00     0.016 C 
ATOM      3  C   LIG d   1      -2.241  79.519 113.550  0.00  0.00     0.038 C 
ATOM      4  C   LIG d   1      -0.907  79.192 113.835  0.00  0.00     0.028 C 
ATOM      5  C   LIG d   1      -0.750  78.312 115.070  0.00  0.00    -0.047 C 
ATOM      6  C   LIG d   1      -1.693  77.093 114.942  0.00  0.00     0.091 C 
ENDROOT
BRANCH   1   7
ATOM      7  O   LIG d   1      -3.923  76.439 114.163  0.00  0.00    -0.368 OA
BRANCH   7   8
ATOM      8  C   LIG d   1      -5.099  76.044 114.912  0.00  0.00     0.119 C 
BRANCH   8   9
ATOM      9  C   LIG d   1      -5.029  76.740 116.285  0.00  0.00     0.028 C 
ATOM     10  C   LIG d   1      -6.325  77.494 116.627  0.00  0.00     0.006 C 
ENDBRANCH   8   9
BRANCH   8  11
ATOM     11  C   LIG d   1      -5.087  74.543 115.217  0.00  0.00     0.028 C 
ATOM     12  C   LIG d   1      -6.467  74.008 115.632  0.00  0.00     0.006 C 
ENDBRANCH   8  11
ENDBRANCH   7   8
ENDBRANCH   1   7
BRANCH   6  13
ATOM     13  N   LIG d   1      -1.664  76.225 116.147  0.00  0.00    -0.311 N 
ATOM     14  C   LIG d   1      -1.426  74.915 116.102  0.00  0.00     0.210 C 
ATOM     15  C   LIG d   1      -1.462  74.203 117.458  0.00  0.00     0.109 C 
ATOM     16  O   LIG d   1      -1.157  74.281 115.070  0.00  0.00    -0.276 OA
ATOM     17  H   LIG d   1      -1.842  76.663 117.030  0.00  0.00     0.149 HD
ENDBRANCH   6  13
BRANCH   5  18
ATOM     18  N   LIG d   1       0.672  77.934 115.171  0.00  0.00     0.381 N 
ATOM     19  H   LIG d   1       0.927  77.827 116.132  0.00  0.00    -0.090 HD
ATOM     20  H   LIG d   1       1.232  78.668 114.775  0.00  0.00    -0.090 HD
ATOM     21  H   LIG d   1       0.834  77.082 114.680  0.00  0.00    -0.090 HD
ENDBRANCH   5  18
BRANCH   3  22
ATOM     22  C   LIG d   1      -2.503  80.729 112.926  0.00  0.00     0.382 C 
ATOM     23  O   LIG d   1      -1.569  81.374 112.390  0.00  0.00    -0.241 OA
ATOM     24  O   LIG d   1      -3.654  81.206 112.930  0.00  0.00    -0.241 OA
ENDBRANCH   3  22
TORSDOF 7
ENDMDL
MODEL 2
REMARK VINA RESULT:      -5.3      7.847     10.828
REMARK  7 active torsions:
REMARK  status: ('A' for Active; 'I' for Inactive)
REMARK    1  A    between atoms: C_2  and  C_3 
REMARK    2  A    between atoms: C_3  and  O_6 
REMARK    3  A    between atoms: C_3  and  C_4 
REMARK    4  A    between atoms: C_7  and  O_6 
REMARK    5  A    between atoms: C_9  and  C_10 
REMARK    6  A    between atoms: N_15  and  C_14 
REMARK    7  A    between atoms: N_20  and  C_19 
REMARK       I    between atoms: C_22  and  N_20 
ROOT
ATOM      1  C   LIG d   1       3.546  85.333 113.038  0.00  0.00     0.161 C 
ATOM      2  C   LIG d   1       4.290  86.501 113.274  0.00  0.00     0.016 C 
ATOM      3  C   LIG d   1       3.895  87.780 112.818  0.00  0.00     0.038 C 
ATOM      4  C   LIG d   1       2.645  88.001 112.221  0.00  0.00     0.028 C 
ATOM      5  C   LIG d   1       2.086  86.772 111.512  0.00  0.00    -0.047 C 
ATOM      6  C   LIG d   1       2.125  85.571 112.485  0.00  0.00     0.091 C 
ENDROOT
BRANCH   1   7
ATOM      7  O   LIG d   1       3.490  84.538 114.239  0.00  0.00    -0.368 OA
BRANCH   7   8
ATOM      8  C   LIG d   1       4.226  83.291 114.213  0.00  0.00     0.119 C 
BRANCH   8   9
ATOM      9  C   LIG d   1       4.858  83.155 112.815  0.00  0.00     0.028 C 
ATOM     10  C   LIG d   1       4.391  81.887 112.080  0.00  0.00     0.006 C 
ENDBRANCH   8   9
BRANCH   8  11
ATOM     11  C   LIG d   1       3.288  82.088 114.353  0.00  0.00     0.028 C 
ATOM     12  C   LIG d   1       1.920  82.464 114.944  0.00  0.00     0.006 C 
ENDBRANCH   8  11
ENDBRANCH   7   8
ENDBRANCH   1   7
BRANCH   6  13
ATOM     13  N   LIG d   1       1.674  84.308 111.845  0.00  0.00    -0.311 N 
ATOM     14  C   LIG d   1       0.423  83.857 111.913  0.00  0.00     0.210 C 
ATOM     15  C   LIG d   1       0.175  82.524 111.200  0.00  0.00     0.109 C 
ATOM     16  O   LIG d   1      -0.513  84.451 112.470  0.00  0.00    -0.276 OA
ATOM     17  H   LIG d   1       2.362  83.778 111.346  0.00  0.00     0.149 HD
ENDBRANCH   6  13
BRANCH   5  18
ATOM     18  N   LIG d   1       0.723  87.102 111.056  0.00  0.00     0.381 N 
ATOM     19  H   LIG d   1       0.757  87.475 110.129  0.00  0.00    -0.090 HD
ATOM     20  H   LIG d   1       0.337  87.802 111.664  0.00  0.00    -0.090 HD
ATOM     21  H   LIG d   1       0.151  86.286 111.072  0.00  0.00    -0.090 HD
ENDBRANCH   5  18
BRANCH   3  22
ATOM     22  C   LIG d   1       4.773  88.848 112.922  0.00  0.00     0.382 C 
ATOM     23  O   LIG d   1       4.420  89.894 113.519  0.00  0.00    -0.241 OA
ATOM     24  O   LIG d   1       5.898  88.795 112.389  0.00  0.00    -0.241 OA
ENDBRANCH   3  22
TORSDOF 7
ENDMDL
MODEL 3
REMARK VINA RESULT:      -5.2     11.683     13.512
REMARK  7 active torsions:
REMARK  status: ('A' for Active; 'I' for Inactive)
REMARK    1  A    between atoms: C_2  and  C_3 
REMARK    2  A    between atoms: C_3  and  O_6 
REMARK    3  A    between atoms: C_3  and  C_4 
REMARK    4  A    between atoms: C_7  and  O_6 
REMARK    5  A    between atoms: C_9  and  C_10 
REMARK    6  A    between atoms: N_15  and  C_14 
REMARK    7  A    between atoms: N_20  and  C_19 
REMARK       I    between atoms: C_22  and  N_20 
ROOT
ATOM      1  C   LIG d   1       3.295  88.520 114.993  0.00  0.00     0.161 C 
ATOM      2  C   LIG d   1       2.892  87.707 113.920  0.00  0.00     0.016 C 
ATOM      3  C   LIG d   1       3.656  87.536 112.743  0.00  0.00     0.038 C 
ATOM      4  C   LIG d   1       4.956  88.050 112.622  0.00  0.00     0.028 C 
ATOM      5  C   LIG d   1       5.197  89.293 113.472  0.00  0.00    -0.047 C 
ATOM      6  C   LIG d   1       4.760  89.000 114.925  0.00  0.00     0.091 C 
ENDROOT
BRANCH   1   7
ATOM      7  O   LIG d   1       3.048  87.841 116.240  0.00  0.00    -0.368 OA
BRANCH   7   8
ATOM      8  C   LIG d   1       1.952  88.354 117.038  0.00  0.00     0.119 C 
BRANCH   8   9
ATOM      9  C   LIG d   1       0.789  87.350 116.927  0.00  0.00     0.028 C 
ATOM     10  C   LIG d   1      -0.458  87.808 117.703  0.00  0.00     0.006 C 
ENDBRANCH   8   9
BRANCH   8  11
ATOM     11  C   LIG d   1       1.412  89.667 116.464  0.00  0.00     0.028 C 
ATOM     12  C   LIG d   1       1.636  90.864 117.401  0.00  0.00     0.006 C 
ENDBRANCH   8  11
ENDBRANCH   7   8
ENDBRANCH   1   7
BRANCH   6  13
ATOM     13  N   LIG d   1       4.884  90.191 115.805  0.00  0.00    -0.311 N 
ATOM     14  C   LIG d   1       5.417  90.149 117.025  0.00  0.00     0.210 C 
ATOM     15  C   LIG d   1       5.430  91.486 117.772  0.00  0.00     0.109 C 
ATOM     16  O   LIG d   1       5.909  89.137 117.548  0.00  0.00    -0.276 OA
ATOM     17  H   LIG d   1       4.539  91.060 115.448  0.00  0.00     0.149 HD
ENDBRANCH   6  13
BRANCH   5  18
ATOM     18  N   LIG d   1       6.626  89.641 113.356  0.00  0.00     0.381 N 
ATOM     19  H   LIG d   1       6.720  90.591 113.057  0.00  0.00    -0.090 HD
ATOM     20  H   LIG d   1       7.050  89.049 112.664  0.00  0.00    -0.090 HD
ATOM     21  H   LIG d   1       7.079  89.516 114.235  0.00  0.00    -0.090 HD
ENDBRANCH   5  18
BRANCH   3  22
ATOM     22  C   LIG d   1       3.105  86.876 111.656  0.00  0.00     0.382 C 
ATOM     23  O   LIG d   1       3.623  85.811 111.240  0.00  0.00    -0.241 OA
ATOM     24  O   LIG d   1       2.123  87.355 111.058  0.00  0.00    -0.241 OA
ENDBRANCH   3  22
TORSDOF 7
ENDMDL
MODEL 4
REMARK VINA RESULT:      -4.9      7.751     10.405
REMARK  7 active torsions:
REMARK  status: ('A' for Active; 'I' for Inactive)
REMARK    1  A    between atoms: C_2  and  C_3 
REMARK    2  A    between atoms: C_3  and  O_6 
REMARK    3  A    between atoms: C_3  and  C_4 
REMARK    4  A    between atoms: C_7  and  O_6 
REMARK    5  A    between atoms: C_9  and  C_10 
REMARK    6  A    between atoms: N_15  and  C_14 
REMARK    7  A    between atoms: N_20  and  C_19 
REMARK       I    between atoms: C_22  and  N_20 
ROOT
ATOM      1  C   LIG d   1       2.620  84.518 113.501  0.00  0.00     0.161 C 
ATOM      2  C   LIG d   1       1.589  83.628 113.160  0.00  0.00     0.016 C 
ATOM      3  C   LIG d   1       0.596  83.920 112.196  0.00  0.00     0.038 C 
ATOM      4  C   LIG d   1       0.656  85.069 111.395  0.00  0.00     0.028 C 
ATOM      5  C   LIG d   1       1.392  86.230 112.055  0.00  0.00    -0.047 C 
ATOM      6  C   LIG d   1       2.766  85.731 112.559  0.00  0.00     0.091 C 
ENDROOT
BRANCH   1   7
ATOM      7  O   LIG d   1       3.869  83.806 113.598  0.00  0.00    -0.368 OA
BRANCH   7   8
ATOM      8  C   LIG d   1       3.783  82.360 113.555  0.00  0.00     0.119 C 
BRANCH   8   9
ATOM      9  C   LIG d   1       4.319  81.825 114.897  0.00  0.00     0.028 C 
ATOM     10  C   LIG d   1       3.214  81.687 115.958  0.00  0.00     0.006 C 
ENDBRANCH   8   9
BRANCH   8  11
ATOM     11  C   LIG d   1       4.713  81.778 112.486  0.00  0.00     0.028 C 
ATOM     12  C   LIG d   1       4.246  82.091 111.056  0.00  0.00     0.006 C 
ENDBRANCH   8  11
ENDBRANCH   7   8
ENDBRANCH   1   7
BRANCH   6  13
ATOM     13  N   LIG d   1       3.517  86.783 113.292  0.00  0.00    -0.311 N 
ATOM     14  C   LIG d   1       4.436  87.561 112.721  0.00  0.00     0.210 C 
ATOM     15  C   LIG d   1       5.105  88.567 113.662  0.00  0.00     0.109 C 
ATOM     16  O   LIG d   1       4.737  87.534 111.519  0.00  0.00    -0.276 OA
ATOM     17  H   LIG d   1       3.313  86.894 114.266  0.00  0.00     0.149 HD
ENDBRANCH   6  13
BRANCH   5  18
ATOM     18  N   LIG d   1       1.500  87.313 111.060  0.00  0.00     0.381 N 
ATOM     19  H   LIG d   1       0.682  87.889 111.096  0.00  0.00    -0.090 HD
ATOM     20  H   LIG d   1       1.560  86.907 110.143  0.00  0.00    -0.090 HD
ATOM     21  H   LIG d   1       2.311  87.864 111.241  0.00  0.00    -0.090 HD
ENDBRANCH   5  18
BRANCH   3  22
ATOM     22  C   LIG d   1      -0.494  83.074 112.055  0.00  0.00     0.382 C 
ATOM     23  O   LIG d   1      -0.485  82.182 111.173  0.00  0.00    -0.241 OA
ATOM     24  O   LIG d   1      -1.504  83.221 112.769  0.00  0.00    -0.241 OA
ENDBRANCH   3  22
TORSDOF 7
ENDMDL
MODEL 5
REMARK VINA RESULT:      -4.9      8.409     11.540
REMARK  7 active torsions:
REMARK  status: ('A' for Active; 'I' for Inactive)
REMARK    1  A    between atoms: C_2  and  C_3 
REMARK    2  A    between atoms: C_3  and  O_6 
REMARK    3  A    between atoms: C_3  and  C_4 
REMARK    4  A    between atoms: C_7  and  O_6 
REMARK    5  A    between atoms: C_9  and  C_10 
REMARK    6  A    between atoms: N_15  and  C_14 
REMARK    7  A    between atoms: N_20  and  C_19 
REMARK       I    between atoms: C_22  and  N_20 
ROOT
ATOM      1  C   LIG d   1       2.726  85.895 114.086  0.00  0.00     0.161 C 
ATOM      2  C   LIG d   1       3.663  86.940 114.033  0.00  0.00     0.016 C 
ATOM      3  C   LIG d   1       3.618  87.978 113.074  0.00  0.00     0.038 C 
ATOM      4  C   LIG d   1       2.537  88.125 112.192  0.00  0.00     0.028 C 
ATOM      5  C   LIG d   1       1.830  86.812 111.876  0.00  0.00    -0.047 C 
ATOM      6  C   LIG d   1       1.478  86.100 113.202  0.00  0.00     0.091 C 
ENDROOT
BRANCH   1   7
ATOM      7  O   LIG d   1       2.338  85.656 115.453  0.00  0.00    -0.368 OA
BRANCH   7   8
ATOM      8  C   LIG d   1       2.851  86.591 116.434  0.00  0.00     0.119 C 
BRANCH   8   9
ATOM      9  C   LIG d   1       3.331  85.772 117.648  0.00  0.00     0.028 C 
ATOM     10  C   LIG d   1       4.239  86.587 118.584  0.00  0.00     0.006 C 
ENDBRANCH   8   9
BRANCH   8  11
ATOM     11  C   LIG d   1       1.740  87.499 116.971  0.00  0.00     0.028 C 
ATOM     12  C   LIG d   1       1.787  88.915 116.374  0.00  0.00     0.006 C 
ENDBRANCH   8  11
ENDBRANCH   7   8
ENDBRANCH   1   7
BRANCH   6  13
ATOM     13  N   LIG d   1       0.858  84.767 112.983  0.00  0.00    -0.311 N 
ATOM     14  C   LIG d   1      -0.458  84.572 112.919  0.00  0.00     0.210 C 
ATOM     15  C   LIG d   1      -0.886  83.116 112.707  0.00  0.00     0.109 C 
ATOM     16  O   LIG d   1      -1.310  85.470 112.986  0.00  0.00    -0.276 OA
ATOM     17  H   LIG d   1       1.478  83.986 112.887  0.00  0.00     0.149 HD
ENDBRANCH   6  13
BRANCH   5  18
ATOM     18  N   LIG d   1       0.644  87.130 111.058  0.00  0.00     0.381 N 
ATOM     19  H   LIG d   1       0.873  87.838 110.390  0.00  0.00    -0.090 HD
ATOM     20  H   LIG d   1      -0.079  87.485 111.659  0.00  0.00    -0.090 HD
ATOM     21  H   LIG d   1       0.324  86.311 110.589  0.00  0.00    -0.090 HD
ENDBRANCH   5  18
BRANCH   3  22
ATOM     22  C   LIG d   1       4.682  88.861 112.966  0.00  0.00     0.382 C 
ATOM     23  O   LIG d   1       5.701  88.536 112.309  0.00  0.00    -0.241 OA
ATOM     24  O   LIG d   1       4.654  89.959 113.552  0.00  0.00    -0.241 OA
ENDBRANCH   3  22
TORSDOF 7
ENDMDL
MODEL 6
REMARK VINA RESULT:      -4.9      3.126      4.074
REMARK  7 active torsions:
REMARK  status: ('A' for Active; 'I' for Inactive)
REMARK    1  A    between atoms: C_2  and  C_3 
REMARK    2  A    between atoms: C_3  and  O_6 
REMARK    3  A    between atoms: C_3  and  C_4 
REMARK    4  A    between atoms: C_7  and  O_6 
REMARK    5  A    between atoms: C_9  and  C_10 
REMARK    6  A    between atoms: N_15  and  C_14 
REMARK    7  A    between atoms: N_20  and  C_19 
REMARK       I    between atoms: C_22  and  N_20 
ROOT
ATOM      1  C   LIG d   1      -5.388  77.363 116.682  0.00  0.00     0.161 C 
ATOM      2  C   LIG d   1      -6.231  78.435 117.021  0.00  0.00     0.016 C 
ATOM      3  C   LIG d   1      -5.817  79.531 117.813  0.00  0.00     0.038 C 
ATOM      4  C   LIG d   1      -4.479  79.703 118.197  0.00  0.00     0.028 C 
ATOM      5  C   LIG d   1      -3.706  78.393 118.306  0.00  0.00    -0.047 C 
ATOM      6  C   LIG d   1      -3.895  77.589 116.999  0.00  0.00     0.091 C 
ENDROOT
BRANCH   1   7
ATOM      7  O   LIG d   1      -5.560  77.028 115.291  0.00  0.00    -0.368 OA
BRANCH   7   8
ATOM      8  C   LIG d   1      -6.381  75.867 115.012  0.00  0.00     0.119 C 
BRANCH   8   9
ATOM      9  C   LIG d   1      -7.105  75.487 116.318  0.00  0.00     0.028 C 
ATOM     10  C   LIG d   1      -8.577  75.931 116.324  0.00  0.00     0.006 C 
ENDBRANCH   8   9
BRANCH   8  11
ATOM     11  C   LIG d   1      -5.523  74.650 114.655  0.00  0.00     0.028 C 
ATOM     12  C   LIG d   1      -5.956  73.377 115.399  0.00  0.00     0.006 C 
ENDBRANCH   8  11
ENDBRANCH   7   8
ENDBRANCH   1   7
BRANCH   6  13
ATOM     13  N   LIG d   1      -3.241  76.256 117.054  0.00  0.00    -0.311 N 
ATOM     14  C   LIG d   1      -2.473  75.776 116.077  0.00  0.00     0.210 C 
ATOM     15  C   LIG d   1      -1.912  74.373 116.327  0.00  0.00     0.109 C 
ATOM     16  O   LIG d   1      -2.178  76.392 115.042  0.00  0.00    -0.276 OA
ATOM     17  H   LIG d   1      -3.401  75.702 117.872  0.00  0.00     0.149 HD
ENDBRANCH   6  13
BRANCH   5  18
ATOM     18  N   LIG d   1      -2.295  78.730 118.578  0.00  0.00     0.381 N 
ATOM     19  H   LIG d   1      -1.958  79.364 117.882  0.00  0.00    -0.090 HD
ATOM     20  H   LIG d   1      -1.746  77.889 118.531  0.00  0.00    -0.090 HD
ATOM     21  H   LIG d   1      -2.211  79.140 119.482  0.00  0.00    -0.090 HD
ENDBRANCH   5  18
BRANCH   3  22
ATOM     22  C   LIG d   1      -6.755  80.447 118.263  0.00  0.00     0.382 C 
ATOM     23  O   LIG d   1      -6.521  81.133 119.287  0.00  0.00    -0.241 OA
ATOM     24  O   LIG d   1      -7.851  80.566 117.683  0.00  0.00    -0.241 OA
ENDBRANCH   3  22
TORSDOF 7
ENDMDL
MODEL 7
REMARK VINA RESULT:      -4.9      7.801     10.938
REMARK  7 active torsions:
REMARK  status: ('A' for Active; 'I' for Inactive)
REMARK    1  A    between atoms: C_2  and  C_3 
REMARK    2  A    between atoms: C_3  and  O_6 
REMARK    3  A    between atoms: C_3  and  C_4 
REMARK    4  A    between atoms: C_7  and  O_6 
REMARK    5  A    between atoms: C_9  and  C_10 
REMARK    6  A    between atoms: N_15  and  C_14 
REMARK    7  A    between atoms: N_20  and  C_19 
REMARK       I    between atoms: C_22  and  N_20 
ROOT
ATOM      1  C   LIG d   1       2.805  85.662 113.755  0.00  0.00     0.161 C 
ATOM      2  C   LIG d   1       3.739  86.712 113.750  0.00  0.00     0.016 C 
ATOM      3  C   LIG d   1       3.623  87.852 112.922  0.00  0.00     0.038 C 
ATOM      4  C   LIG d   1       2.478  88.093 112.147  0.00  0.00     0.028 C 
ATOM      5  C   LIG d   1       1.745  86.820 111.739  0.00  0.00    -0.047 C 
ATOM      6  C   LIG d   1       1.494  85.959 112.998  0.00  0.00     0.091 C 
ENDROOT
BRANCH   1   7
ATOM      7  O   LIG d   1       2.522  85.266 115.112  0.00  0.00    -0.368 OA
BRANCH   7   8
ATOM      8  C   LIG d   1       3.092  84.005 115.540  0.00  0.00     0.119 C 
BRANCH   8   9
ATOM      9  C   LIG d   1       4.362  84.324 116.353  0.00  0.00     0.028 C 
ATOM     10  C   LIG d   1       4.048  85.045 117.674  0.00  0.00     0.006 C 
ENDBRANCH   8   9
BRANCH   8  11
ATOM     11  C   LIG d   1       3.572  83.176 114.345  0.00  0.00     0.028 C 
ATOM     12  C   LIG d   1       4.763  82.268 114.690  0.00  0.00     0.006 C 
ENDBRANCH   8  11
ENDBRANCH   7   8
ENDBRANCH   1   7
BRANCH   6  13
ATOM     13  N   LIG d   1       0.856  84.656 112.676  0.00  0.00    -0.311 N 
ATOM     14  C   LIG d   1      -0.458  84.446 112.744  0.00  0.00     0.210 C 
ATOM     15  C   LIG d   1      -0.905  83.024 112.389  0.00  0.00     0.109 C 
ATOM     16  O   LIG d   1      -1.298  85.311 113.033  0.00  0.00    -0.276 OA
ATOM     17  H   LIG d   1       1.461  83.907 112.401  0.00  0.00     0.149 HD
ENDBRANCH   6  13
BRANCH   5  18
ATOM     18  N   LIG d   1       0.501  87.221 111.055  0.00  0.00     0.381 N 
ATOM     19  H   LIG d   1      -0.177  86.489 111.128  0.00  0.00    -0.090 HD
ATOM     20  H   LIG d   1       0.699  87.372 110.082  0.00  0.00    -0.090 HD
ATOM     21  H   LIG d   1       0.143  88.057 111.462  0.00  0.00    -0.090 HD
ENDBRANCH   5  18
BRANCH   3  22
ATOM     22  C   LIG d   1       4.678  88.748 112.834  0.00  0.00     0.382 C 
ATOM     23  O   LIG d   1       5.756  88.395 112.300  0.00  0.00    -0.241 OA
ATOM     24  O   LIG d   1       4.579  89.890 113.322  0.00  0.00    -0.241 OA
ENDBRANCH   3  22
TORSDOF 7
ENDMDL
MODEL 8
REMARK VINA RESULT:      -4.8      4.109      6.131
REMARK  7 active torsions:
REMARK  status: ('A' for Active; 'I' for Inactive)
REMARK    1  A    between atoms: C_2  and  C_3 
REMARK    2  A    between atoms: C_3  and  O_6 
REMARK    3  A    between atoms: C_3  and  C_4 
REMARK    4  A    between atoms: C_7  and  O_6 
REMARK    5  A    between atoms: C_9  and  C_10 
REMARK    6  A    between atoms: N_15  and  C_14 
REMARK    7  A    between atoms: N_20  and  C_19 
REMARK       I    between atoms: C_22  and  N_20 
ROOT
ATOM      1  C   LIG d   1      -7.098  77.642 117.532  0.00  0.00     0.161 C 
ATOM      2  C   LIG d   1      -8.406  78.156 117.525  0.00  0.00     0.016 C 
ATOM      3  C   LIG d   1      -8.749  79.419 118.060  0.00  0.00     0.038 C 
ATOM      4  C   LIG d   1      -7.775  80.324 118.508  0.00  0.00     0.028 C 
ATOM      5  C   LIG d   1      -6.499  79.648 118.998  0.00  0.00    -0.047 C 
ATOM      6  C   LIG d   1      -6.005  78.662 117.915  0.00  0.00     0.091 C 
ENDROOT
BRANCH   1   7
ATOM      7  O   LIG d   1      -6.801  77.045 116.255  0.00  0.00    -0.368 OA
BRANCH   7   8
ATOM      8  C   LIG d   1      -6.118  75.768 116.292  0.00  0.00     0.119 C 
BRANCH   8   9
ATOM      9  C   LIG d   1      -5.142  75.729 115.100  0.00  0.00     0.028 C 
ATOM     10  C   LIG d   1      -3.675  75.611 115.547  0.00  0.00     0.006 C 
ENDBRANCH   8   9
BRANCH   8  11
ATOM     11  C   LIG d   1      -7.091  74.608 116.057  0.00  0.00     0.028 C 
ATOM     12  C   LIG d   1      -6.380  73.305 115.658  0.00  0.00     0.006 C 
ENDBRANCH   8  11
ENDBRANCH   7   8
ENDBRANCH   1   7
BRANCH   6  13
ATOM     13  N   LIG d   1      -4.808  77.896 118.349  0.00  0.00    -0.311 N 
ATOM     14  C   LIG d   1      -3.560  78.330 118.182  0.00  0.00     0.210 C 
ATOM     15  C   LIG d   1      -2.471  77.376 118.684  0.00  0.00     0.109 C 
ATOM     16  O   LIG d   1      -3.252  79.428 117.696  0.00  0.00    -0.276 OA
ATOM     17  H   LIG d   1      -4.967  77.007 118.782  0.00  0.00     0.149 HD
ENDBRANCH   6  13
BRANCH   5  18
ATOM     18  N   LIG d   1      -5.522  80.709 119.304  0.00  0.00     0.381 N 
ATOM     19  H   LIG d   1      -4.630  80.470 118.918  0.00  0.00    -0.090 HD
ATOM     20  H   LIG d   1      -5.423  80.783 120.301  0.00  0.00    -0.090 HD
ATOM     21  H   LIG d   1      -5.832  81.577 118.928  0.00  0.00    -0.090 HD
ENDBRANCH   5  18
BRANCH   3  22
ATOM     22  C   LIG d   1     -10.084  79.771 118.190  0.00  0.00     0.382 C 
ATOM     23  O   LIG d   1     -10.921  78.922 118.582  0.00  0.00    -0.241 OA
ATOM     24  O   LIG d   1     -10.469  80.913 117.876  0.00  0.00    -0.241 OA
ENDBRANCH   3  22
TORSDOF 7
ENDMDL
MODEL 9
REMARK VINA RESULT:      -4.8     11.284     13.151
REMARK  7 active torsions:
REMARK  status: ('A' for Active; 'I' for Inactive)
REMARK    1  A    between atoms: C_2  and  C_3 
REMARK    2  A    between atoms: C_3  and  O_6 
REMARK    3  A    between atoms: C_3  and  C_4 
REMARK    4  A    between atoms: C_7  and  O_6 
REMARK    5  A    between atoms: C_9  and  C_10 
REMARK    6  A    between atoms: N_15  and  C_14 
REMARK    7  A    between atoms: N_20  and  C_19 
REMARK       I    between atoms: C_22  and  N_20 
ROOT
ATOM      1  C   LIG d   1       3.442  88.699 115.281  0.00  0.00     0.161 C 
ATOM      2  C   LIG d   1       2.752  88.083 114.224  0.00  0.00     0.016 C 
ATOM      3  C   LIG d   1       3.289  87.941 112.923  0.00  0.00     0.038 C 
ATOM      4  C   LIG d   1       4.620  88.273 112.631  0.00  0.00     0.028 C 
ATOM      5  C   LIG d   1       5.187  89.361 113.536  0.00  0.00    -0.047 C 
ATOM      6  C   LIG d   1       4.937  88.967 115.010  0.00  0.00     0.091 C 
ENDROOT
BRANCH   1   7
ATOM      7  O   LIG d   1       3.282  87.924 116.486  0.00  0.00    -0.368 OA
BRANCH   7   8
ATOM      8  C   LIG d   1       3.115  86.496 116.307  0.00  0.00     0.119 C 
BRANCH   8   9
ATOM      9  C   LIG d   1       1.957  86.047 117.220  0.00  0.00     0.028 C 
ATOM     10  C   LIG d   1       0.741  86.985 117.129  0.00  0.00     0.006 C 
ENDBRANCH   8   9
BRANCH   8  11
ATOM     11  C   LIG d   1       4.342  85.725 116.801  0.00  0.00     0.028 C 
ATOM     12  C   LIG d   1       3.982  84.588 117.770  0.00  0.00     0.006 C 
ENDBRANCH   8  11
ENDBRANCH   7   8
ENDBRANCH   1   7
BRANCH   6  13
ATOM     13  N   LIG d   1       5.385  90.018 115.961  0.00  0.00    -0.311 N 
ATOM     14  C   LIG d   1       6.265  89.796 116.936  0.00  0.00     0.210 C 
ATOM     15  C   LIG d   1       6.574  91.011 117.816  0.00  0.00     0.109 C 
ATOM     16  O   LIG d   1       6.843  88.717 117.136  0.00  0.00    -0.276 OA
ATOM     17  H   LIG d   1       4.990  90.931 115.852  0.00  0.00     0.149 HD
ENDBRANCH   6  13
BRANCH   5  18
ATOM     18  N   LIG d   1       6.618  89.509 113.213  0.00  0.00     0.381 N 
ATOM     19  H   LIG d   1       6.810  89.093 112.324  0.00  0.00    -0.090 HD
ATOM     20  H   LIG d   1       7.161  89.029 113.909  0.00  0.00    -0.090 HD
ATOM     21  H   LIG d   1       6.866  90.474 113.195  0.00  0.00    -0.090 HD
ENDBRANCH   5  18
BRANCH   3  22
ATOM     22  C   LIG d   1       2.478  87.499 111.890  0.00  0.00     0.382 C 
ATOM     23  O   LIG d   1       1.288  87.890 111.815  0.00  0.00    -0.241 OA
ATOM     24  O   LIG d   1       2.907  86.679 111.056  0.00  0.00    -0.241 OA
ENDBRANCH   3  22
TORSDOF 7
ENDMDL
