MODEL 1
REMARK VINA RESULT:      -5.6      0.000      0.000
REMARK  7 active torsions:
REMARK  status: ('A' for Active; 'I' for Inactive)
REMARK    1  A    between atoms: C_2  and  C_3 
REMARK    2  A    between atoms: C_3  and  O_6 
REMARK    3  A    between atoms: C_3  and  C_4 
REMARK    4  A    between atoms: C_7  and  O_6 
REMARK    5  A    between atoms: C_9  and  C_10 
REMARK    6  A    between atoms: N_15  and  C_14 
REMARK    7  A    between atoms: N_20  and  C_19 
REMARK       I    between atoms: C_22  and  N_20 
ROOT
ATOM      1  C   LIG d   1      -3.165  76.931 116.269  0.00  0.00     0.161 C 
ATOM      2  C   LIG d   1      -3.356  77.945 115.317  0.00  0.00     0.016 C 
ATOM      3  C   LIG d   1      -2.387  78.297 114.349  0.00  0.00     0.038 C 
ATOM      4  C   LIG d   1      -1.213  77.551 114.170  0.00  0.00     0.028 C 
ATOM      5  C   LIG d   1      -0.751  76.836 115.436  0.00  0.00    -0.047 C 
ATOM      6  C   LIG d   1      -1.935  76.032 116.019  0.00  0.00     0.091 C 
ENDROOT
BRANCH   1   7
ATOM      7  O   LIG d   1      -4.358  76.129 116.376  0.00  0.00    -0.368 OA
BRANCH   7   8
ATOM      8  C   LIG d   1      -5.546  76.669 115.748  0.00  0.00     0.119 C 
BRANCH   8   9
ATOM      9  C   LIG d   1      -6.608  76.855 116.849  0.00  0.00     0.028 C 
ATOM     10  C   LIG d   1      -7.814  75.918 116.666  0.00  0.00     0.006 C 
ENDBRANCH   8   9
BRANCH   8  11
ATOM     11  C   LIG d   1      -6.157  75.670 114.761  0.00  0.00     0.028 C 
ATOM     12  C   LIG d   1      -5.215  74.499 114.438  0.00  0.00     0.006 C 
ENDBRANCH   8  11
ENDBRANCH   7   8
ENDBRANCH   1   7
BRANCH   6  13
ATOM     13  N   LIG d   1      -1.593  75.370 117.304  0.00  0.00    -0.311 N 
ATOM     14  C   LIG d   1      -1.268  74.082 117.402  0.00  0.00     0.210 C 
ATOM     15  C   LIG d   1      -0.970  73.596 118.824  0.00  0.00     0.109 C 
ATOM     16  O   LIG d   1      -1.168  73.303 116.442  0.00  0.00    -0.276 OA
ATOM     17  H   LIG d   1      -1.619  75.936 118.130  0.00  0.00     0.149 HD
ENDBRANCH   6  13
BRANCH   5  18
ATOM     18  N   LIG d   1       0.401  75.989 115.074  0.00  0.00     0.381 N 
ATOM     19  H   LIG d   1       0.146  75.024 115.141  0.00  0.00    -0.090 HD
ATOM     20  H   LIG d   1       1.149  76.163 115.721  0.00  0.00    -0.090 HD
ATOM     21  H   LIG d   1       0.699  76.197 114.146  0.00  0.00    -0.090 HD
ENDBRANCH   5  18
BRANCH   3  22
ATOM     22  C   LIG d   1      -2.571  79.431 113.573  0.00  0.00     0.382 C 
ATOM     23  O   LIG d   1      -2.089  79.485 112.416  0.00  0.00    -0.241 OA
ATOM     24  O   LIG d   1      -3.176  80.419 114.032  0.00  0.00    -0.241 OA
ENDBRANCH   3  22
TORSDOF 7
ENDMDL
MODEL 2
REMARK VINA RESULT:      -5.4      3.416      6.048
REMARK  7 active torsions:
REMARK  status: ('A' for Active; 'I' for Inactive)
REMARK    1  A    between atoms: C_2  and  C_3 
REMARK    2  A    between atoms: C_3  and  O_6 
REMARK    3  A    between atoms: C_3  and  C_4 
REMARK    4  A    between atoms: C_7  and  O_6 
REMARK    5  A    between atoms: C_9  and  C_10 
REMARK    6  A    between atoms: N_15  and  C_14 
REMARK    7  A    between atoms: N_20  and  C_19 
REMARK       I    between atoms: C_22  and  N_20 
ROOT
ATOM      1  C   LIG d   1      -6.204  77.578 117.051  0.00  0.00     0.161 C 
ATOM      2  C   LIG d   1      -7.570  77.474 117.366  0.00  0.00     0.016 C 
ATOM      3  C   LIG d   1      -8.312  78.519 117.963  0.00  0.00     0.038 C 
ATOM      4  C   LIG d   1      -7.772  79.800 118.150  0.00  0.00     0.028 C 
ATOM      5  C   LIG d   1      -6.255  79.800 118.312  0.00  0.00    -0.047 C 
ATOM      6  C   LIG d   1      -5.626  79.006 117.145  0.00  0.00     0.091 C 
ENDROOT
BRANCH   1   7
ATOM      7  O   LIG d   1      -5.961  77.024 115.743  0.00  0.00    -0.368 OA
BRANCH   7   8
ATOM      8  C   LIG d   1      -5.172  75.810 115.702  0.00  0.00     0.119 C 
BRANCH   8   9
ATOM      9  C   LIG d   1      -3.880  76.123 114.922  0.00  0.00     0.028 C 
ATOM     10  C   LIG d   1      -2.657  75.386 115.492  0.00  0.00     0.006 C 
ENDBRANCH   8   9
BRANCH   8  11
ATOM     11  C   LIG d   1      -5.876  74.714 114.897  0.00  0.00     0.028 C 
ATOM     12  C   LIG d   1      -6.315  73.524 115.766  0.00  0.00     0.006 C 
ENDBRANCH   8  11
ENDBRANCH   7   8
ENDBRANCH   1   7
BRANCH   6  13
ATOM     13  N   LIG d   1      -4.150  78.885 117.273  0.00  0.00    -0.311 N 
ATOM     14  C   LIG d   1      -3.298  79.267 116.323  0.00  0.00     0.210 C 
ATOM     15  C   LIG d   1      -1.819  79.036 116.649  0.00  0.00     0.109 C 
ATOM     16  O   LIG d   1      -3.626  79.805 115.254  0.00  0.00    -0.276 OA
ATOM     17  H   LIG d   1      -3.796  78.488 118.121  0.00  0.00     0.149 HD
ENDBRANCH   6  13
BRANCH   5  18
ATOM     18  N   LIG d   1      -5.812  81.206 118.359  0.00  0.00     0.381 N 
ATOM     19  H   LIG d   1      -6.155  81.641 119.193  0.00  0.00    -0.090 HD
ATOM     20  H   LIG d   1      -6.195  81.694 117.569  0.00  0.00    -0.090 HD
ATOM     21  H   LIG d   1      -4.817  81.251 118.338  0.00  0.00    -0.090 HD
ENDBRANCH   5  18
BRANCH   3  22
ATOM     22  C   LIG d   1      -9.599  78.274 118.418  0.00  0.00     0.382 C 
ATOM     23  O   LIG d   1     -10.152  77.175 118.173  0.00  0.00    -0.241 OA
ATOM     24  O   LIG d   1     -10.230  79.155 119.031  0.00  0.00    -0.241 OA
ENDBRANCH   3  22
TORSDOF 7
ENDMDL
MODEL 3
REMARK VINA RESULT:      -5.4     15.061     17.605
REMARK  7 active torsions:
REMARK  status: ('A' for Active; 'I' for Inactive)
REMARK    1  A    between atoms: C_2  and  C_3 
REMARK    2  A    between atoms: C_3  and  O_6 
REMARK    3  A    between atoms: C_3  and  C_4 
REMARK    4  A    between atoms: C_7  and  O_6 
REMARK    5  A    between atoms: C_9  and  C_10 
REMARK    6  A    between atoms: N_15  and  C_14 
REMARK    7  A    between atoms: N_20  and  C_19 
REMARK       I    between atoms: C_22  and  N_20 
ROOT
ATOM      1  C   LIG d   1     -16.570  65.086 114.412  0.00  0.00     0.161 C 
ATOM      2  C   LIG d   1     -16.219  65.997 113.402  0.00  0.00     0.016 C 
ATOM      3  C   LIG d   1     -15.231  66.995 113.562  0.00  0.00     0.038 C 
ATOM      4  C   LIG d   1     -14.414  67.052 114.701  0.00  0.00     0.028 C 
ATOM      5  C   LIG d   1     -15.072  66.473 115.949  0.00  0.00    -0.047 C 
ATOM      6  C   LIG d   1     -15.612  65.062 115.622  0.00  0.00     0.091 C 
ENDROOT
BRANCH   1   7
ATOM      7  O   LIG d   1     -16.704  63.764 113.853  0.00  0.00    -0.368 OA
BRANCH   7   8
ATOM      8  C   LIG d   1     -18.058  63.281 113.677  0.00  0.00     0.119 C 
BRANCH   8   9
ATOM      9  C   LIG d   1     -19.002  64.292 114.355  0.00  0.00     0.028 C 
ATOM     10  C   LIG d   1     -20.121  64.773 113.415  0.00  0.00     0.006 C 
ENDBRANCH   8   9
BRANCH   8  11
ATOM     11  C   LIG d   1     -18.279  61.959 114.418  0.00  0.00     0.028 C 
ATOM     12  C   LIG d   1     -16.976  61.362 114.973  0.00  0.00     0.006 C 
ENDBRANCH   8  11
ENDBRANCH   7   8
ENDBRANCH   1   7
BRANCH   6  13
ATOM     13  N   LIG d   1     -16.346  64.457 116.764  0.00  0.00    -0.311 N 
ATOM     14  C   LIG d   1     -15.778  63.643 117.652  0.00  0.00     0.210 C 
ATOM     15  C   LIG d   1     -16.718  63.115 118.739  0.00  0.00     0.109 C 
ATOM     16  O   LIG d   1     -14.576  63.335 117.661  0.00  0.00    -0.276 OA
ATOM     17  H   LIG d   1     -17.318  64.679 116.851  0.00  0.00     0.149 HD
ENDBRANCH   6  13
BRANCH   5  18
ATOM     18  N   LIG d   1     -14.063  66.471 117.025  0.00  0.00     0.381 N 
ATOM     19  H   LIG d   1     -13.647  65.564 117.097  0.00  0.00    -0.090 HD
ATOM     20  H   LIG d   1     -14.517  66.679 117.897  0.00  0.00    -0.090 HD
ATOM     21  H   LIG d   1     -13.362  67.153 116.836  0.00  0.00    -0.090 HD
ENDBRANCH   5  18
BRANCH   3  22
ATOM     22  C   LIG d   1     -15.079  67.974 112.592  0.00  0.00     0.382 C 
ATOM     23  O   LIG d   1     -15.244  67.688 111.382  0.00  0.00    -0.241 OA
ATOM     24  O   LIG d   1     -14.735  69.129 112.909  0.00  0.00    -0.241 OA
ENDBRANCH   3  22
TORSDOF 7
ENDMDL
MODEL 4
REMARK VINA RESULT:      -5.3      1.718      4.904
REMARK  7 active torsions:
REMARK  status: ('A' for Active; 'I' for Inactive)
REMARK    1  A    between atoms: C_2  and  C_3 
REMARK    2  A    between atoms: C_3  and  O_6 
REMARK    3  A    between atoms: C_3  and  C_4 
REMARK    4  A    between atoms: C_7  and  O_6 
REMARK    5  A    between atoms: C_9  and  C_10 
REMARK    6  A    between atoms: N_15  and  C_14 
REMARK    7  A    between atoms: N_20  and  C_19 
REMARK       I    between atoms: C_22  and  N_20 
ROOT
ATOM      1  C   LIG d   1      -1.889  75.424 114.983  0.00  0.00     0.161 C 
ATOM      2  C   LIG d   1      -1.726  74.636 116.135  0.00  0.00     0.016 C 
ATOM      3  C   LIG d   1      -0.868  74.986 117.202  0.00  0.00     0.038 C 
ATOM      4  C   LIG d   1      -0.224  76.231 117.258  0.00  0.00     0.028 C 
ATOM      5  C   LIG d   1       0.038  76.840 115.885  0.00  0.00    -0.047 C 
ATOM      6  C   LIG d   1      -1.280  76.839 115.076  0.00  0.00     0.091 C 
ENDROOT
BRANCH   1   7
ATOM      7  O   LIG d   1      -3.286  75.502 114.637  0.00  0.00    -0.368 OA
BRANCH   7   8
ATOM      8  C   LIG d   1      -4.223  75.358 115.733  0.00  0.00     0.119 C 
BRANCH   8   9
ATOM      9  C   LIG d   1      -5.417  74.533 115.216  0.00  0.00     0.028 C 
ATOM     10  C   LIG d   1      -6.769  75.109 115.672  0.00  0.00     0.006 C 
ENDBRANCH   8   9
BRANCH   8  11
ATOM     11  C   LIG d   1      -4.811  76.711 116.145  0.00  0.00     0.028 C 
ATOM     12  C   LIG d   1      -4.174  77.274 117.425  0.00  0.00     0.006 C 
ENDBRANCH   8  11
ENDBRANCH   7   8
ENDBRANCH   1   7
BRANCH   6  13
ATOM     13  N   LIG d   1      -1.094  77.341 113.690  0.00  0.00    -0.311 N 
ATOM     14  C   LIG d   1      -1.910  78.222 113.114  0.00  0.00     0.210 C 
ATOM     15  C   LIG d   1      -1.549  78.591 111.672  0.00  0.00     0.109 C 
ATOM     16  O   LIG d   1      -2.879  78.759 113.672  0.00  0.00    -0.276 OA
ATOM     17  H   LIG d   1      -0.314  76.982 113.175  0.00  0.00     0.149 HD
ENDBRANCH   6  13
BRANCH   5  18
ATOM     18  N   LIG d   1       0.587  78.193 116.094  0.00  0.00     0.381 N 
ATOM     19  H   LIG d   1       1.483  78.267 115.656  0.00  0.00    -0.090 HD
ATOM     20  H   LIG d   1       0.705  78.347 117.080  0.00  0.00    -0.090 HD
ATOM     21  H   LIG d   1      -0.034  78.875 115.716  0.00  0.00    -0.090 HD
ENDBRANCH   5  18
BRANCH   3  22
ATOM     22  C   LIG d   1      -0.616  74.068 118.210  0.00  0.00     0.382 C 
ATOM     23  O   LIG d   1      -1.360  73.067 118.348  0.00  0.00    -0.241 OA
ATOM     24  O   LIG d   1       0.320  74.251 119.012  0.00  0.00    -0.241 OA
ENDBRANCH   3  22
TORSDOF 7
ENDMDL
MODEL 5
REMARK VINA RESULT:      -5.3      8.715     10.839
REMARK  7 active torsions:
REMARK  status: ('A' for Active; 'I' for Inactive)
REMARK    1  A    between atoms: C_2  and  C_3 
REMARK    2  A    between atoms: C_3  and  O_6 
REMARK    3  A    between atoms: C_3  and  C_4 
REMARK    4  A    between atoms: C_7  and  O_6 
REMARK    5  A    between atoms: C_9  and  C_10 
REMARK    6  A    between atoms: N_15  and  C_14 
REMARK    7  A    between atoms: N_20  and  C_19 
REMARK       I    between atoms: C_22  and  N_20 
ROOT
ATOM      1  C   LIG d   1       1.997  85.181 114.025  0.00  0.00     0.161 C 
ATOM      2  C   LIG d   1       2.177  86.270 113.157  0.00  0.00     0.016 C 
ATOM      3  C   LIG d   1       3.276  87.156 113.237  0.00  0.00     0.038 C 
ATOM      4  C   LIG d   1       4.355  86.922 114.102  0.00  0.00     0.028 C 
ATOM      5  C   LIG d   1       3.975  86.120 115.343  0.00  0.00    -0.047 C 
ATOM      6  C   LIG d   1       3.220  84.844 114.904  0.00  0.00     0.091 C 
ENDROOT
BRANCH   1   7
ATOM      7  O   LIG d   1       1.584  84.021 113.276  0.00  0.00    -0.368 OA
BRANCH   7   8
ATOM      8  C   LIG d   1       2.029  83.961 111.898  0.00  0.00     0.119 C 
BRANCH   8   9
ATOM      9  C   LIG d   1       0.853  83.431 111.055  0.00  0.00     0.028 C 
ATOM     10  C   LIG d   1      -0.512  83.721 111.703  0.00  0.00     0.006 C 
ENDBRANCH   8   9
BRANCH   8  11
ATOM     11  C   LIG d   1       3.151  82.935 111.718  0.00  0.00     0.028 C 
ATOM     12  C   LIG d   1       4.547  83.577 111.697  0.00  0.00     0.006 C 
ENDBRANCH   8  11
ENDBRANCH   7   8
ENDBRANCH   1   7
BRANCH   6  13
ATOM     13  N   LIG d   1       2.738  84.045 116.060  0.00  0.00    -0.311 N 
ATOM     14  C   LIG d   1       3.241  82.857 116.391  0.00  0.00     0.210 C 
ATOM     15  C   LIG d   1       2.586  82.193 117.606  0.00  0.00     0.109 C 
ATOM     16  O   LIG d   1       4.189  82.305 115.814  0.00  0.00    -0.276 OA
ATOM     17  H   LIG d   1       1.991  84.433 116.603  0.00  0.00     0.149 HD
ENDBRANCH   6  13
BRANCH   5  18
ATOM     18  N   LIG d   1       5.216  85.831 116.085  0.00  0.00     0.381 N 
ATOM     19  H   LIG d   1       5.468  84.871 115.963  0.00  0.00    -0.090 HD
ATOM     20  H   LIG d   1       5.055  85.993 117.064  0.00  0.00    -0.090 HD
ATOM     21  H   LIG d   1       5.952  86.419 115.761  0.00  0.00    -0.090 HD
ENDBRANCH   5  18
BRANCH   3  22
ATOM     22  C   LIG d   1       3.284  88.313 112.473  0.00  0.00     0.382 C 
ATOM     23  O   LIG d   1       4.202  89.155 112.620  0.00  0.00    -0.241 OA
ATOM     24  O   LIG d   1       2.360  88.546 111.671  0.00  0.00    -0.241 OA
ENDBRANCH   3  22
TORSDOF 7
ENDMDL
MODEL 6
REMARK VINA RESULT:      -5.1      2.481      3.295
REMARK  7 active torsions:
REMARK  status: ('A' for Active; 'I' for Inactive)
REMARK    1  A    between atoms: C_2  and  C_3 
REMARK    2  A    between atoms: C_3  and  O_6 
REMARK    3  A    between atoms: C_3  and  C_4 
REMARK    4  A    between atoms: C_7  and  O_6 
REMARK    5  A    between atoms: C_9  and  C_10 
REMARK    6  A    between atoms: N_15  and  C_14 
REMARK    7  A    between atoms: N_20  and  C_19 
REMARK       I    between atoms: C_22  and  N_20 
ROOT
ATOM      1  C   LIG d   1      -4.653  77.008 117.191  0.00  0.00     0.161 C 
ATOM      2  C   LIG d   1      -5.492  78.102 117.463  0.00  0.00     0.016 C 
ATOM      3  C   LIG d   1      -5.167  79.435 117.122  0.00  0.00     0.038 C 
ATOM      4  C   LIG d   1      -4.041  79.749 116.347  0.00  0.00     0.028 C 
ATOM      5  C   LIG d   1      -2.909  78.737 116.485  0.00  0.00    -0.047 C 
ATOM      6  C   LIG d   1      -3.473  77.318 116.246  0.00  0.00     0.091 C 
ENDROOT
BRANCH   1   7
ATOM      7  O   LIG d   1      -5.433  75.911 116.675  0.00  0.00    -0.368 OA
BRANCH   7   8
ATOM      8  C   LIG d   1      -6.572  76.269 115.855  0.00  0.00     0.119 C 
BRANCH   8   9
ATOM      9  C   LIG d   1      -7.779  75.453 116.358  0.00  0.00     0.028 C 
ATOM     10  C   LIG d   1      -8.706  76.277 117.267  0.00  0.00     0.006 C 
ENDBRANCH   8   9
BRANCH   8  11
ATOM     11  C   LIG d   1      -6.369  75.836 114.400  0.00  0.00     0.028 C 
ATOM     12  C   LIG d   1      -5.269  74.774 114.242  0.00  0.00     0.006 C 
ENDBRANCH   8  11
ENDBRANCH   7   8
ENDBRANCH   1   7
BRANCH   6  13
ATOM     13  N   LIG d   1      -2.448  76.260 116.446  0.00  0.00    -0.311 N 
ATOM     14  C   LIG d   1      -1.726  75.742 115.454  0.00  0.00     0.210 C 
ATOM     15  C   LIG d   1      -0.740  74.648 115.874  0.00  0.00     0.109 C 
ATOM     16  O   LIG d   1      -1.786  76.108 114.270  0.00  0.00    -0.276 OA
ATOM     17  H   LIG d   1      -2.312  75.927 117.380  0.00  0.00     0.149 HD
ENDBRANCH   6  13
BRANCH   5  18
ATOM     18  N   LIG d   1      -1.857  79.111 115.521  0.00  0.00     0.381 N 
ATOM     19  H   LIG d   1      -2.007  78.635 114.654  0.00  0.00    -0.090 HD
ATOM     20  H   LIG d   1      -0.965  78.825 115.886  0.00  0.00    -0.090 HD
ATOM     21  H   LIG d   1      -1.863  80.096 115.374  0.00  0.00    -0.090 HD
ENDBRANCH   5  18
BRANCH   3  22
ATOM     22  C   LIG d   1      -5.952  80.476 117.594  0.00  0.00     0.382 C 
ATOM     23  O   LIG d   1      -6.995  80.804 116.978  0.00  0.00    -0.241 OA
ATOM     24  O   LIG d   1      -5.608  81.120 118.603  0.00  0.00    -0.241 OA
ENDBRANCH   3  22
TORSDOF 7
ENDMDL
MODEL 7
REMARK VINA RESULT:      -5.0     15.458     18.427
REMARK  7 active torsions:
REMARK  status: ('A' for Active; 'I' for Inactive)
REMARK    1  A    between atoms: C_2  and  C_3 
REMARK    2  A    between atoms: C_3  and  O_6 
REMARK    3  A    between atoms: C_3  and  C_4 
REMARK    4  A    between atoms: C_7  and  O_6 
REMARK    5  A    between atoms: C_9  and  C_10 
REMARK    6  A    between atoms: N_15  and  C_14 
REMARK    7  A    between atoms: N_20  and  C_19 
REMARK       I    between atoms: C_22  and  N_20 
ROOT
ATOM      1  C   LIG d   1     -16.067  64.384 114.585  0.00  0.00     0.161 C 
ATOM      2  C   LIG d   1     -17.078  64.467 113.613  0.00  0.00     0.016 C 
ATOM      3  C   LIG d   1     -18.452  64.311 113.905  0.00  0.00     0.038 C 
ATOM      4  C   LIG d   1     -18.924  64.211 115.223  0.00  0.00     0.028 C 
ATOM      5  C   LIG d   1     -17.903  63.618 116.188  0.00  0.00    -0.047 C 
ATOM      6  C   LIG d   1     -16.570  64.387 116.044  0.00  0.00     0.091 C 
ENDROOT
BRANCH   1   7
ATOM      7  O   LIG d   1     -15.108  65.442 114.384  0.00  0.00    -0.368 OA
BRANCH   7   8
ATOM      8  C   LIG d   1     -15.655  66.771 114.198  0.00  0.00     0.119 C 
BRANCH   8   9
ATOM      9  C   LIG d   1     -15.114  67.311 112.861  0.00  0.00     0.028 C 
ATOM     10  C   LIG d   1     -14.187  68.524 113.049  0.00  0.00     0.006 C 
ENDBRANCH   8   9
BRANCH   8  11
ATOM     11  C   LIG d   1     -15.139  67.740 115.266  0.00  0.00     0.028 C 
ATOM     12  C   LIG d   1     -16.147  67.965 116.404  0.00  0.00     0.006 C 
ENDBRANCH   8  11
ENDBRANCH   7   8
ENDBRANCH   1   7
BRANCH   6  13
ATOM     13  N   LIG d   1     -15.492  63.816 116.892  0.00  0.00    -0.311 N 
ATOM     14  C   LIG d   1     -15.216  64.253 118.120  0.00  0.00     0.210 C 
ATOM     15  C   LIG d   1     -14.052  63.540 118.814  0.00  0.00     0.109 C 
ATOM     16  O   LIG d   1     -15.846  65.143 118.712  0.00  0.00    -0.276 OA
ATOM     17  H   LIG d   1     -14.951  63.069 116.502  0.00  0.00     0.149 HD
ENDBRANCH   6  13
BRANCH   5  18
ATOM     18  N   LIG d   1     -18.474  63.699 117.546  0.00  0.00     0.381 N 
ATOM     19  H   LIG d   1     -18.999  64.546 117.642  0.00  0.00    -0.090 HD
ATOM     20  H   LIG d   1     -17.723  63.715 118.213  0.00  0.00    -0.090 HD
ATOM     21  H   LIG d   1     -19.063  62.914 117.716  0.00  0.00    -0.090 HD
ENDBRANCH   5  18
BRANCH   3  22
ATOM     22  C   LIG d   1     -19.368  64.214 112.869  0.00  0.00     0.382 C 
ATOM     23  O   LIG d   1     -19.055  63.619 111.809  0.00  0.00    -0.241 OA
ATOM     24  O   LIG d   1     -20.488  64.751 112.962  0.00  0.00    -0.241 OA
ENDBRANCH   3  22
TORSDOF 7
ENDMDL
MODEL 8
REMARK VINA RESULT:      -4.9      9.491     11.806
REMARK  7 active torsions:
REMARK  status: ('A' for Active; 'I' for Inactive)
REMARK    1  A    between atoms: C_2  and  C_3 
REMARK    2  A    between atoms: C_3  and  O_6 
REMARK    3  A    between atoms: C_3  and  C_4 
REMARK    4  A    between atoms: C_7  and  O_6 
REMARK    5  A    between atoms: C_9  and  C_10 
REMARK    6  A    between atoms: N_15  and  C_14 
REMARK    7  A    between atoms: N_20  and  C_19 
REMARK       I    between atoms: C_22  and  N_20 
ROOT
ATOM      1  C   LIG d   1       4.513  85.985 115.258  0.00  0.00     0.161 C 
ATOM      2  C   LIG d   1       4.515  87.386 115.158  0.00  0.00     0.016 C 
ATOM      3  C   LIG d   1       4.119  88.083 113.993  0.00  0.00     0.038 C 
ATOM      4  C   LIG d   1       3.548  87.426 112.893  0.00  0.00     0.028 C 
ATOM      5  C   LIG d   1       3.995  85.975 112.755  0.00  0.00    -0.047 C 
ATOM      6  C   LIG d   1       3.788  85.255 114.108  0.00  0.00     0.091 C 
ENDROOT
BRANCH   1   7
ATOM      7  O   LIG d   1       3.964  85.586 116.529  0.00  0.00    -0.368 OA
BRANCH   7   8
ATOM      8  C   LIG d   1       2.536  85.341 116.558  0.00  0.00     0.119 C 
BRANCH   8   9
ATOM      9  C   LIG d   1       1.889  86.473 117.379  0.00  0.00     0.028 C 
ATOM     10  C   LIG d   1       1.133  87.480 116.496  0.00  0.00     0.006 C 
ENDBRANCH   8   9
BRANCH   8  11
ATOM     11  C   LIG d   1       2.208  84.051 117.316  0.00  0.00     0.028 C 
ATOM     12  C   LIG d   1       1.211  84.273 118.465  0.00  0.00     0.006 C 
ENDBRANCH   8  11
ENDBRANCH   7   8
ENDBRANCH   1   7
BRANCH   6  13
ATOM     13  N   LIG d   1       4.280  83.852 114.084  0.00  0.00    -0.311 N 
ATOM     14  C   LIG d   1       3.492  82.803 113.853  0.00  0.00     0.210 C 
ATOM     15  C   LIG d   1       4.197  81.444 113.894  0.00  0.00     0.109 C 
ATOM     16  O   LIG d   1       2.283  82.872 113.587  0.00  0.00    -0.276 OA
ATOM     17  H   LIG d   1       5.255  83.708 114.260  0.00  0.00     0.149 HD
ENDBRANCH   6  13
BRANCH   5  18
ATOM     18  N   LIG d   1       3.220  85.372 111.655  0.00  0.00     0.381 N 
ATOM     19  H   LIG d   1       3.791  84.718 111.157  0.00  0.00    -0.090 HD
ATOM     20  H   LIG d   1       2.943  86.097 111.017  0.00  0.00    -0.090 HD
ATOM     21  H   LIG d   1       2.415  84.911 112.017  0.00  0.00    -0.090 HD
ENDBRANCH   5  18
BRANCH   3  22
ATOM     22  C   LIG d   1       4.331  89.451 113.906  0.00  0.00     0.382 C 
ATOM     23  O   LIG d   1       4.342  90.151 114.946  0.00  0.00    -0.241 OA
ATOM     24  O   LIG d   1       4.467  89.999 112.795  0.00  0.00    -0.241 OA
ENDBRANCH   3  22
TORSDOF 7
ENDMDL
MODEL 9
REMARK VINA RESULT:      -4.8     21.600     24.139
REMARK  7 active torsions:
REMARK  status: ('A' for Active; 'I' for Inactive)
REMARK    1  A    between atoms: C_2  and  C_3 
REMARK    2  A    between atoms: C_3  and  O_6 
REMARK    3  A    between atoms: C_3  and  C_4 
REMARK    4  A    between atoms: C_7  and  O_6 
REMARK    5  A    between atoms: C_9  and  C_10 
REMARK    6  A    between atoms: N_15  and  C_14 
REMARK    7  A    between atoms: N_20  and  C_19 
REMARK       I    between atoms: C_22  and  N_20 
ROOT
ATOM      1  C   LIG d   1     -25.437  85.804 113.951  0.00  0.00     0.161 C 
ATOM      2  C   LIG d   1     -24.345  86.684 114.032  0.00  0.00     0.016 C 
ATOM      3  C   LIG d   1     -23.007  86.288 113.800  0.00  0.00     0.038 C 
ATOM      4  C   LIG d   1     -22.685  85.010 113.319  0.00  0.00     0.028 C 
ATOM      5  C   LIG d   1     -23.703  83.943 113.707  0.00  0.00    -0.047 C 
ATOM      6  C   LIG d   1     -25.117  84.433 113.320  0.00  0.00     0.091 C 
ENDROOT
BRANCH   1   7
ATOM      7  O   LIG d   1     -26.524  86.438 113.248  0.00  0.00    -0.368 OA
BRANCH   7   8
ATOM      8  C   LIG d   1     -26.634  86.132 111.836  0.00  0.00     0.119 C 
BRANCH   8   9
ATOM      9  C   LIG d   1     -26.123  87.358 111.055  0.00  0.00     0.028 C 
ATOM     10  C   LIG d   1     -26.733  88.675 111.565  0.00  0.00     0.006 C 
ENDBRANCH   8   9
BRANCH   8  11
ATOM     11  C   LIG d   1     -28.097  85.964 111.415  0.00  0.00     0.028 C 
ATOM     12  C   LIG d   1     -28.985  85.424 112.547  0.00  0.00     0.006 C 
ENDBRANCH   8  11
ENDBRANCH   7   8
ENDBRANCH   1   7
BRANCH   6  13
ATOM     13  N   LIG d   1     -26.181  83.485 113.741  0.00  0.00    -0.311 N 
ATOM     14  C   LIG d   1     -26.661  82.525 112.952  0.00  0.00     0.210 C 
ATOM     15  C   LIG d   1     -27.769  81.670 113.576  0.00  0.00     0.109 C 
ATOM     16  O   LIG d   1     -26.253  82.279 111.807  0.00  0.00    -0.276 OA
ATOM     17  H   LIG d   1     -26.547  83.592 114.666  0.00  0.00     0.149 HD
ENDBRANCH   6  13
BRANCH   5  18
ATOM     18  N   LIG d   1     -23.318  82.692 113.028  0.00  0.00     0.381 N 
ATOM     19  H   LIG d   1     -22.323  82.591 113.041  0.00  0.00    -0.090 HD
ATOM     20  H   LIG d   1     -23.617  82.737 112.069  0.00  0.00    -0.090 HD
ATOM     21  H   LIG d   1     -23.744  81.913 113.480  0.00  0.00    -0.090 HD
ENDBRANCH   5  18
BRANCH   3  22
ATOM     22  C   LIG d   1     -21.972  87.164 114.087  0.00  0.00     0.382 C 
ATOM     23  O   LIG d   1     -20.966  87.214 113.338  0.00  0.00    -0.241 OA
ATOM     24  O   LIG d   1     -22.010  87.874 115.110  0.00  0.00    -0.241 OA
ENDBRANCH   3  22
TORSDOF 7
ENDMDL
