MODEL 1
REMARK VINA RESULT:      -5.7      0.000      0.000
REMARK  7 active torsions:
REMARK  status: ('A' for Active; 'I' for Inactive)
REMARK    1  A    between atoms: C_2  and  C_3 
REMARK    2  A    between atoms: C_3  and  O_6 
REMARK    3  A    between atoms: C_3  and  C_4 
REMARK    4  A    between atoms: C_7  and  O_6 
REMARK    5  A    between atoms: C_9  and  C_10 
REMARK    6  A    between atoms: N_15  and  C_14 
REMARK    7  A    between atoms: N_20  and  C_19 
REMARK       I    between atoms: C_22  and  N_20 
ROOT
ATOM      1  C   LIG d   1      -2.765  75.742 115.067  0.00  0.00     0.161 C 
ATOM      2  C   LIG d   1      -3.178  76.424 113.910  0.00  0.00     0.016 C 
ATOM      3  C   LIG d   1      -2.279  77.026 113.000  0.00  0.00     0.038 C 
ATOM      4  C   LIG d   1      -0.891  76.857 113.107  0.00  0.00     0.028 C 
ATOM      5  C   LIG d   1      -0.419  76.604 114.535  0.00  0.00    -0.047 C 
ATOM      6  C   LIG d   1      -1.251  75.452 115.141  0.00  0.00     0.091 C 
ENDROOT
BRANCH   1   7
ATOM      7  O   LIG d   1      -3.517  74.521 115.210  0.00  0.00    -0.368 OA
BRANCH   7   8
ATOM      8  C   LIG d   1      -4.442  74.468 116.323  0.00  0.00     0.119 C 
BRANCH   8   9
ATOM      9  C   LIG d   1      -5.867  74.590 115.747  0.00  0.00     0.028 C 
ATOM     10  C   LIG d   1      -6.682  73.297 115.921  0.00  0.00     0.006 C 
ENDBRANCH   8   9
BRANCH   8  11
ATOM     11  C   LIG d   1      -4.274  75.679 117.246  0.00  0.00     0.028 C 
ATOM     12  C   LIG d   1      -5.610  76.195 117.801  0.00  0.00     0.006 C 
ENDBRANCH   8  11
ENDBRANCH   7   8
ENDBRANCH   1   7
BRANCH   6  13
ATOM     13  N   LIG d   1      -0.911  75.196 116.565  0.00  0.00    -0.311 N 
ATOM     14  C   LIG d   1      -0.465  74.024 117.013  0.00  0.00     0.210 C 
ATOM     15  C   LIG d   1      -0.194  73.968 118.520  0.00  0.00     0.109 C 
ATOM     16  O   LIG d   1      -0.237  73.034 116.301  0.00  0.00    -0.276 OA
ATOM     17  H   LIG d   1      -1.037  75.954 117.208  0.00  0.00     0.149 HD
ENDBRANCH   6  13
BRANCH   5  18
ATOM     18  N   LIG d   1       1.025  76.310 114.482  0.00  0.00     0.381 N 
ATOM     19  H   LIG d   1       1.264  75.947 113.580  0.00  0.00    -0.090 HD
ATOM     20  H   LIG d   1       1.240  75.609 115.170  0.00  0.00    -0.090 HD
ATOM     21  H   LIG d   1       1.549  77.137 114.665  0.00  0.00    -0.090 HD
ENDBRANCH   5  18
BRANCH   3  22
ATOM     22  C   LIG d   1      -2.768  77.842 111.991  0.00  0.00     0.382 C 
ATOM     23  O   LIG d   1      -3.579  77.383 111.151  0.00  0.00    -0.241 OA
ATOM     24  O   LIG d   1      -2.373  79.019 111.884  0.00  0.00    -0.241 OA
ENDBRANCH   3  22
TORSDOF 7
ENDMDL
MODEL 2
REMARK VINA RESULT:      -5.5      1.794      2.320
REMARK  7 active torsions:
REMARK  status: ('A' for Active; 'I' for Inactive)
REMARK    1  A    between atoms: C_2  and  C_3 
REMARK    2  A    between atoms: C_3  and  O_6 
REMARK    3  A    between atoms: C_3  and  C_4 
REMARK    4  A    between atoms: C_7  and  O_6 
REMARK    5  A    between atoms: C_9  and  C_10 
REMARK    6  A    between atoms: N_15  and  C_14 
REMARK    7  A    between atoms: N_20  and  C_19 
REMARK       I    between atoms: C_22  and  N_20 
ROOT
ATOM      1  C   LIG d   1      -2.712  77.644 115.674  0.00  0.00     0.161 C 
ATOM      2  C   LIG d   1      -2.931  78.753 114.840  0.00  0.00     0.016 C 
ATOM      3  C   LIG d   1      -2.152  79.030 113.692  0.00  0.00     0.038 C 
ATOM      4  C   LIG d   1      -1.191  78.127 113.214  0.00  0.00     0.028 C 
ATOM      5  C   LIG d   1      -0.592  77.245 114.304  0.00  0.00    -0.047 C 
ATOM      6  C   LIG d   1      -1.739  76.589 115.105  0.00  0.00     0.091 C 
ENDROOT
BRANCH   1   7
ATOM      7  O   LIG d   1      -3.971  77.032 116.014  0.00  0.00    -0.368 OA
BRANCH   7   8
ATOM      8  C   LIG d   1      -4.734  76.485 114.910  0.00  0.00     0.119 C 
BRANCH   8   9
ATOM      9  C   LIG d   1      -6.226  76.706 115.224  0.00  0.00     0.028 C 
ATOM     10  C   LIG d   1      -6.441  77.573 116.476  0.00  0.00     0.006 C 
ENDBRANCH   8   9
BRANCH   8  11
ATOM     11  C   LIG d   1      -4.561  74.967 114.811  0.00  0.00     0.028 C 
ATOM     12  C   LIG d   1      -4.715  74.260 116.167  0.00  0.00     0.006 C 
ENDBRANCH   8  11
ENDBRANCH   7   8
ENDBRANCH   1   7
BRANCH   6  13
ATOM     13  N   LIG d   1      -1.242  75.775 116.245  0.00  0.00    -0.311 N 
ATOM     14  C   LIG d   1      -1.026  74.463 116.170  0.00  0.00     0.210 C 
ATOM     15  C   LIG d   1      -0.532  73.814 117.467  0.00  0.00     0.109 C 
ATOM     16  O   LIG d   1      -1.167  73.781 115.144  0.00  0.00    -0.276 OA
ATOM     17  H   LIG d   1      -1.072  76.255 117.107  0.00  0.00     0.149 HD
ENDBRANCH   6  13
BRANCH   5  18
ATOM     18  N   LIG d   1       0.290  76.262 113.647  0.00  0.00     0.381 N 
ATOM     19  H   LIG d   1      -0.171  75.376 113.593  0.00  0.00    -0.090 HD
ATOM     20  H   LIG d   1       1.122  76.152 114.200  0.00  0.00    -0.090 HD
ATOM     21  H   LIG d   1       0.530  76.576 112.732  0.00  0.00    -0.090 HD
ENDBRANCH   5  18
BRANCH   3  22
ATOM     22  C   LIG d   1      -2.305  80.240 113.034  0.00  0.00     0.382 C 
ATOM     23  O   LIG d   1      -1.301  80.833 112.571  0.00  0.00    -0.241 OA
ATOM     24  O   LIG d   1      -3.429  80.768 112.936  0.00  0.00    -0.241 OA
ENDBRANCH   3  22
TORSDOF 7
ENDMDL
MODEL 3
REMARK VINA RESULT:      -5.3     14.493     16.232
REMARK  7 active torsions:
REMARK  status: ('A' for Active; 'I' for Inactive)
REMARK    1  A    between atoms: C_2  and  C_3 
REMARK    2  A    between atoms: C_3  and  O_6 
REMARK    3  A    between atoms: C_3  and  C_4 
REMARK    4  A    between atoms: C_7  and  O_6 
REMARK    5  A    between atoms: C_9  and  C_10 
REMARK    6  A    between atoms: N_15  and  C_14 
REMARK    7  A    between atoms: N_20  and  C_19 
REMARK       I    between atoms: C_22  and  N_20 
ROOT
ATOM      1  C   LIG d   1     -15.199  66.989 115.449  0.00  0.00     0.161 C 
ATOM      2  C   LIG d   1     -14.848  68.025 114.567  0.00  0.00     0.016 C 
ATOM      3  C   LIG d   1     -14.990  67.933 113.163  0.00  0.00     0.038 C 
ATOM      4  C   LIG d   1     -15.638  66.848 112.553  0.00  0.00     0.028 C 
ATOM      5  C   LIG d   1     -15.551  65.558 113.361  0.00  0.00    -0.047 C 
ATOM      6  C   LIG d   1     -16.010  65.842 114.810  0.00  0.00     0.091 C 
ENDROOT
BRANCH   1   7
ATOM      7  O   LIG d   1     -15.904  67.531 116.583  0.00  0.00    -0.368 OA
BRANCH   7   8
ATOM      8  C   LIG d   1     -15.174  67.559 117.834  0.00  0.00     0.119 C 
BRANCH   8   9
ATOM      9  C   LIG d   1     -14.050  66.510 117.737  0.00  0.00     0.028 C 
ATOM     10  C   LIG d   1     -14.101  65.488 118.886  0.00  0.00     0.006 C 
ENDBRANCH   8   9
BRANCH   8  11
ATOM     11  C   LIG d   1     -16.054  67.104 119.002  0.00  0.00     0.028 C 
ATOM     12  C   LIG d   1     -17.525  67.518 118.837  0.00  0.00     0.006 C 
ENDBRANCH   8  11
ENDBRANCH   7   8
ENDBRANCH   1   7
BRANCH   6  13
ATOM     13  N   LIG d   1     -15.876  64.652 115.690  0.00  0.00    -0.311 N 
ATOM     14  C   LIG d   1     -16.831  64.248 116.526  0.00  0.00     0.210 C 
ATOM     15  C   LIG d   1     -16.481  63.009 117.357  0.00  0.00     0.109 C 
ATOM     16  O   LIG d   1     -17.947  64.778 116.634  0.00  0.00    -0.276 OA
ATOM     17  H   LIG d   1     -15.014  64.145 115.644  0.00  0.00     0.149 HD
ENDBRANCH   6  13
BRANCH   5  18
ATOM     18  N   LIG d   1     -16.383  64.548 112.679  0.00  0.00     0.381 N 
ATOM     19  H   LIG d   1     -16.087  64.453 111.728  0.00  0.00    -0.090 HD
ATOM     20  H   LIG d   1     -17.339  64.858 112.683  0.00  0.00    -0.090 HD
ATOM     21  H   LIG d   1     -16.308  63.672 113.147  0.00  0.00    -0.090 HD
ENDBRANCH   5  18
BRANCH   3  22
ATOM     22  C   LIG d   1     -14.445  68.916 112.351  0.00  0.00     0.382 C 
ATOM     23  O   LIG d   1     -15.189  69.776 111.822  0.00  0.00    -0.241 OA
ATOM     24  O   LIG d   1     -13.224  68.927 112.106  0.00  0.00    -0.241 OA
ENDBRANCH   3  22
TORSDOF 7
ENDMDL
MODEL 4
REMARK VINA RESULT:      -5.0     14.443     16.239
REMARK  7 active torsions:
REMARK  status: ('A' for Active; 'I' for Inactive)
REMARK    1  A    between atoms: C_2  and  C_3 
REMARK    2  A    between atoms: C_3  and  O_6 
REMARK    3  A    between atoms: C_3  and  C_4 
REMARK    4  A    between atoms: C_7  and  O_6 
REMARK    5  A    between atoms: C_9  and  C_10 
REMARK    6  A    between atoms: N_15  and  C_14 
REMARK    7  A    between atoms: N_20  and  C_19 
REMARK       I    between atoms: C_22  and  N_20 
ROOT
ATOM      1  C   LIG d   1     -15.122  67.067 115.436  0.00  0.00     0.161 C 
ATOM      2  C   LIG d   1     -14.775  68.095 114.543  0.00  0.00     0.016 C 
ATOM      3  C   LIG d   1     -14.953  68.002 113.144  0.00  0.00     0.038 C 
ATOM      4  C   LIG d   1     -15.633  66.928 112.552  0.00  0.00     0.028 C 
ATOM      5  C   LIG d   1     -15.549  65.638 113.362  0.00  0.00    -0.047 C 
ATOM      6  C   LIG d   1     -15.968  65.933 114.820  0.00  0.00     0.091 C 
ENDROOT
BRANCH   1   7
ATOM      7  O   LIG d   1     -15.791  67.624 116.585  0.00  0.00    -0.368 OA
BRANCH   7   8
ATOM      8  C   LIG d   1     -15.607  66.914 117.835  0.00  0.00     0.119 C 
BRANCH   8   9
ATOM      9  C   LIG d   1     -16.102  67.835 118.967  0.00  0.00     0.028 C 
ATOM     10  C   LIG d   1     -17.606  68.136 118.863  0.00  0.00     0.006 C 
ENDBRANCH   8   9
BRANCH   8  11
ATOM     11  C   LIG d   1     -14.122  66.675 118.127  0.00  0.00     0.028 C 
ATOM     12  C   LIG d   1     -13.880  65.439 119.009  0.00  0.00     0.006 C 
ENDBRANCH   8  11
ENDBRANCH   7   8
ENDBRANCH   1   7
BRANCH   6  13
ATOM     13  N   LIG d   1     -15.833  64.743 115.700  0.00  0.00    -0.311 N 
ATOM     14  C   LIG d   1     -16.841  63.916 115.973  0.00  0.00     0.210 C 
ATOM     15  C   LIG d   1     -16.492  62.762 116.919  0.00  0.00     0.109 C 
ATOM     16  O   LIG d   1     -17.982  64.009 115.497  0.00  0.00    -0.276 OA
ATOM     17  H   LIG d   1     -14.933  64.574 116.105  0.00  0.00     0.149 HD
ENDBRANCH   6  13
BRANCH   5  18
ATOM     18  N   LIG d   1     -16.414  64.641 112.703  0.00  0.00     0.381 N 
ATOM     19  H   LIG d   1     -15.967  63.746 112.713  0.00  0.00    -0.090 HD
ATOM     20  H   LIG d   1     -16.553  64.914 111.746  0.00  0.00    -0.090 HD
ATOM     21  H   LIG d   1     -17.292  64.588 113.171  0.00  0.00    -0.090 HD
ENDBRANCH   5  18
BRANCH   3  22
ATOM     22  C   LIG d   1     -14.411  68.974 112.316  0.00  0.00     0.382 C 
ATOM     23  O   LIG d   1     -15.156  69.833 111.786  0.00  0.00    -0.241 OA
ATOM     24  O   LIG d   1     -13.192  68.977 112.059  0.00  0.00    -0.241 OA
ENDBRANCH   3  22
TORSDOF 7
ENDMDL
MODEL 5
REMARK VINA RESULT:      -4.5     15.637     18.350
REMARK  7 active torsions:
REMARK  status: ('A' for Active; 'I' for Inactive)
REMARK    1  A    between atoms: C_2  and  C_3 
REMARK    2  A    between atoms: C_3  and  O_6 
REMARK    3  A    between atoms: C_3  and  C_4 
REMARK    4  A    between atoms: C_7  and  O_6 
REMARK    5  A    between atoms: C_9  and  C_10 
REMARK    6  A    between atoms: N_15  and  C_14 
REMARK    7  A    between atoms: N_20  and  C_19 
REMARK       I    between atoms: C_22  and  N_20 
ROOT
ATOM      1  C   LIG d   1     -16.328  64.674 115.379  0.00  0.00     0.161 C 
ATOM      2  C   LIG d   1     -17.257  65.045 114.393  0.00  0.00     0.016 C 
ATOM      3  C   LIG d   1     -18.321  64.213 113.974  0.00  0.00     0.038 C 
ATOM      4  C   LIG d   1     -18.620  63.008 114.626  0.00  0.00     0.028 C 
ATOM      5  C   LIG d   1     -17.409  62.360 115.288  0.00  0.00    -0.047 C 
ATOM      6  C   LIG d   1     -16.704  63.409 116.179  0.00  0.00     0.091 C 
ENDROOT
BRANCH   1   7
ATOM      7  O   LIG d   1     -16.095  65.781 116.272  0.00  0.00    -0.368 OA
BRANCH   7   8
ATOM      8  C   LIG d   1     -14.883  66.541 116.043  0.00  0.00     0.119 C 
BRANCH   8   9
ATOM      9  C   LIG d   1     -14.123  66.614 117.382  0.00  0.00     0.028 C 
ATOM     10  C   LIG d   1     -15.024  67.064 118.544  0.00  0.00     0.006 C 
ENDBRANCH   8   9
BRANCH   8  11
ATOM     11  C   LIG d   1     -15.198  67.994 115.676  0.00  0.00     0.028 C 
ATOM     12  C   LIG d   1     -14.772  68.351 114.242  0.00  0.00     0.006 C 
ENDBRANCH   8  11
ENDBRANCH   7   8
ENDBRANCH   1   7
BRANCH   6  13
ATOM     13  N   LIG d   1     -15.460  62.882 116.798  0.00  0.00    -0.311 N 
ATOM     14  C   LIG d   1     -15.150  63.055 118.082  0.00  0.00     0.210 C 
ATOM     15  C   LIG d   1     -13.810  62.448 118.511  0.00  0.00     0.109 C 
ATOM     16  O   LIG d   1     -15.872  63.626 118.913  0.00  0.00    -0.276 OA
ATOM     17  H   LIG d   1     -14.831  62.379 116.202  0.00  0.00     0.149 HD
ENDBRANCH   6  13
BRANCH   5  18
ATOM     18  N   LIG d   1     -17.888  61.188 116.044  0.00  0.00     0.381 N 
ATOM     19  H   LIG d   1     -18.860  61.040 115.860  0.00  0.00    -0.090 HD
ATOM     20  H   LIG d   1     -17.777  61.367 117.027  0.00  0.00    -0.090 HD
ATOM     21  H   LIG d   1     -17.366  60.379 115.786  0.00  0.00    -0.090 HD
ENDBRANCH   5  18
BRANCH   3  22
ATOM     22  C   LIG d   1     -19.076  64.568 112.866  0.00  0.00     0.382 C 
ATOM     23  O   LIG d   1     -19.073  63.838 111.846  0.00  0.00    -0.241 OA
ATOM     24  O   LIG d   1     -19.724  65.632 112.858  0.00  0.00    -0.241 OA
ENDBRANCH   3  22
TORSDOF 7
ENDMDL
MODEL 6
REMARK VINA RESULT:      -4.4     15.704     18.983
REMARK  7 active torsions:
REMARK  status: ('A' for Active; 'I' for Inactive)
REMARK    1  A    between atoms: C_2  and  C_3 
REMARK    2  A    between atoms: C_3  and  O_6 
REMARK    3  A    between atoms: C_3  and  C_4 
REMARK    4  A    between atoms: C_7  and  O_6 
REMARK    5  A    between atoms: C_9  and  C_10 
REMARK    6  A    between atoms: N_15  and  C_14 
REMARK    7  A    between atoms: N_20  and  C_19 
REMARK       I    between atoms: C_22  and  N_20 
ROOT
ATOM      1  C   LIG d   1     -17.604  64.437 116.123  0.00  0.00     0.161 C 
ATOM      2  C   LIG d   1     -16.762  65.364 116.759  0.00  0.00     0.016 C 
ATOM      3  C   LIG d   1     -15.772  66.111 116.079  0.00  0.00     0.038 C 
ATOM      4  C   LIG d   1     -15.659  66.091 114.681  0.00  0.00     0.028 C 
ATOM      5  C   LIG d   1     -16.151  64.792 114.052  0.00  0.00    -0.047 C 
ATOM      6  C   LIG d   1     -17.570  64.484 114.581  0.00  0.00     0.091 C 
ENDROOT
BRANCH   1   7
ATOM      7  O   LIG d   1     -18.955  64.597 116.600  0.00  0.00    -0.368 OA
BRANCH   7   8
ATOM      8  C   LIG d   1     -19.659  65.774 116.134  0.00  0.00     0.119 C 
BRANCH   8   9
ATOM      9  C   LIG d   1     -20.169  66.530 117.377  0.00  0.00     0.028 C 
ATOM     10  C   LIG d   1     -19.412  67.847 117.615  0.00  0.00     0.006 C 
ENDBRANCH   8   9
BRANCH   8  11
ATOM     11  C   LIG d   1     -20.916  65.396 115.345  0.00  0.00     0.028 C 
ATOM     12  C   LIG d   1     -21.367  63.949 115.600  0.00  0.00     0.006 C 
ENDBRANCH   8  11
ENDBRANCH   7   8
ENDBRANCH   1   7
BRANCH   6  13
ATOM     13  N   LIG d   1     -18.092  63.186 114.080  0.00  0.00    -0.311 N 
ATOM     14  C   LIG d   1     -18.891  63.077 113.019  0.00  0.00     0.210 C 
ATOM     15  C   LIG d   1     -19.330  61.649 112.685  0.00  0.00     0.109 C 
ATOM     16  O   LIG d   1     -19.250  64.025 112.305  0.00  0.00    -0.276 OA
ATOM     17  H   LIG d   1     -17.825  62.362 114.582  0.00  0.00     0.149 HD
ENDBRANCH   6  13
BRANCH   5  18
ATOM     18  N   LIG d   1     -16.104  64.961 112.587  0.00  0.00     0.381 N 
ATOM     19  H   LIG d   1     -15.726  65.860 112.362  0.00  0.00    -0.090 HD
ATOM     20  H   LIG d   1     -17.040  64.912 112.224  0.00  0.00    -0.090 HD
ATOM     21  H   LIG d   1     -15.544  64.245 112.179  0.00  0.00    -0.090 HD
ENDBRANCH   5  18
BRANCH   3  22
ATOM     22  C   LIG d   1     -14.856  66.858 116.804  0.00  0.00     0.382 C 
ATOM     23  O   LIG d   1     -15.252  67.795 117.539  0.00  0.00    -0.241 OA
ATOM     24  O   LIG d   1     -13.635  66.636 116.698  0.00  0.00    -0.241 OA
ENDBRANCH   3  22
TORSDOF 7
ENDMDL
MODEL 7
REMARK VINA RESULT:      -4.4     14.114     17.053
REMARK  7 active torsions:
REMARK  status: ('A' for Active; 'I' for Inactive)
REMARK    1  A    between atoms: C_2  and  C_3 
REMARK    2  A    between atoms: C_3  and  O_6 
REMARK    3  A    between atoms: C_3  and  C_4 
REMARK    4  A    between atoms: C_7  and  O_6 
REMARK    5  A    between atoms: C_9  and  C_10 
REMARK    6  A    between atoms: N_15  and  C_14 
REMARK    7  A    between atoms: N_20  and  C_19 
REMARK       I    between atoms: C_22  and  N_20 
ROOT
ATOM      1  C   LIG d   1      14.061  77.082 114.725  0.00  0.00     0.161 C 
ATOM      2  C   LIG d   1      13.636  75.756 114.912  0.00  0.00     0.016 C 
ATOM      3  C   LIG d   1      12.276  75.377 114.982  0.00  0.00     0.038 C 
ATOM      4  C   LIG d   1      11.239  76.284 114.718  0.00  0.00     0.028 C 
ATOM      5  C   LIG d   1      11.608  77.731 115.025  0.00  0.00    -0.047 C 
ATOM      6  C   LIG d   1      12.944  78.068 114.324  0.00  0.00     0.091 C 
ENDROOT
BRANCH   1   7
ATOM      7  O   LIG d   1      15.133  77.121 113.763  0.00  0.00    -0.368 OA
BRANCH   7   8
ATOM      8  C   LIG d   1      15.051  76.164 112.678  0.00  0.00     0.119 C 
BRANCH   8   9
ATOM      9  C   LIG d   1      16.474  75.629 112.425  0.00  0.00     0.028 C 
ATOM     10  C   LIG d   1      17.157  75.143 113.714  0.00  0.00     0.006 C 
ENDBRANCH   8   9
BRANCH   8  11
ATOM     11  C   LIG d   1      14.633  76.840 111.369  0.00  0.00     0.028 C 
ATOM     12  C   LIG d   1      15.089  78.305 111.282  0.00  0.00     0.006 C 
ENDBRANCH   8  11
ENDBRANCH   7   8
ENDBRANCH   1   7
BRANCH   6  13
ATOM     13  N   LIG d   1      13.420  79.440 114.641  0.00  0.00    -0.311 N 
ATOM     14  C   LIG d   1      13.094  80.513 113.922  0.00  0.00     0.210 C 
ATOM     15  C   LIG d   1      13.709  81.829 114.410  0.00  0.00     0.109 C 
ATOM     16  O   LIG d   1      12.328  80.505 112.947  0.00  0.00    -0.276 OA
ATOM     17  H   LIG d   1      14.021  79.542 115.435  0.00  0.00     0.149 HD
ENDBRANCH   6  13
BRANCH   5  18
ATOM     18  N   LIG d   1      10.489  78.581 114.575  0.00  0.00     0.381 N 
ATOM     19  H   LIG d   1       9.707  78.464 115.189  0.00  0.00    -0.090 HD
ATOM     20  H   LIG d   1      10.212  78.293 113.654  0.00  0.00    -0.090 HD
ATOM     21  H   LIG d   1      10.770  79.537 114.562  0.00  0.00    -0.090 HD
ENDBRANCH   5  18
BRANCH   3  22
ATOM     22  C   LIG d   1      11.942  74.085 115.360  0.00  0.00     0.382 C 
ATOM     23  O   LIG d   1      12.778  73.159 115.233  0.00  0.00    -0.241 OA
ATOM     24  O   LIG d   1      10.799  73.827 115.784  0.00  0.00    -0.241 OA
ENDBRANCH   3  22
TORSDOF 7
ENDMDL
MODEL 8
REMARK VINA RESULT:      -4.4      2.586      5.032
REMARK  7 active torsions:
REMARK  status: ('A' for Active; 'I' for Inactive)
REMARK    1  A    between atoms: C_2  and  C_3 
REMARK    2  A    between atoms: C_3  and  O_6 
REMARK    3  A    between atoms: C_3  and  C_4 
REMARK    4  A    between atoms: C_7  and  O_6 
REMARK    5  A    between atoms: C_9  and  C_10 
REMARK    6  A    between atoms: N_15  and  C_14 
REMARK    7  A    between atoms: N_20  and  C_19 
REMARK       I    between atoms: C_22  and  N_20 
ROOT
ATOM      1  C   LIG d   1      -2.314  76.493 114.564  0.00  0.00     0.161 C 
ATOM      2  C   LIG d   1      -3.651  76.184 114.266  0.00  0.00     0.016 C 
ATOM      3  C   LIG d   1      -4.726  76.451 115.145  0.00  0.00     0.038 C 
ATOM      4  C   LIG d   1      -4.552  77.187 116.327  0.00  0.00     0.028 C 
ATOM      5  C   LIG d   1      -3.147  77.075 116.908  0.00  0.00    -0.047 C 
ATOM      6  C   LIG d   1      -2.118  77.396 115.800  0.00  0.00     0.091 C 
ENDROOT
BRANCH   1   7
ATOM      7  O   LIG d   1      -1.678  77.078 113.410  0.00  0.00    -0.368 OA
BRANCH   7   8
ATOM      8  C   LIG d   1      -2.553  77.764 112.481  0.00  0.00     0.119 C 
BRANCH   8   9
ATOM      9  C   LIG d   1      -2.082  77.412 111.056  0.00  0.00     0.028 C 
ATOM     10  C   LIG d   1      -0.819  76.535 111.055  0.00  0.00     0.006 C 
ENDBRANCH   8   9
BRANCH   8  11
ATOM     11  C   LIG d   1      -2.403  79.284 112.593  0.00  0.00     0.028 C 
ATOM     12  C   LIG d   1      -1.017  79.710 113.102  0.00  0.00     0.006 C 
ENDBRANCH   8  11
ENDBRANCH   7   8
ENDBRANCH   1   7
BRANCH   6  13
ATOM     13  N   LIG d   1      -0.716  77.228 116.262  0.00  0.00    -0.311 N 
ATOM     14  C   LIG d   1       0.044  78.239 116.680  0.00  0.00     0.210 C 
ATOM     15  C   LIG d   1       1.467  77.850 117.094  0.00  0.00     0.109 C 
ATOM     16  O   LIG d   1      -0.335  79.416 116.777  0.00  0.00    -0.276 OA
ATOM     17  H   LIG d   1      -0.338  76.301 116.245  0.00  0.00     0.149 HD
ENDBRANCH   6  13
BRANCH   5  18
ATOM     18  N   LIG d   1      -3.065  77.998 118.056  0.00  0.00     0.381 N 
ATOM     19  H   LIG d   1      -2.533  77.577 118.792  0.00  0.00    -0.090 HD
ATOM     20  H   LIG d   1      -3.994  78.172 118.400  0.00  0.00    -0.090 HD
ATOM     21  H   LIG d   1      -2.640  78.854 117.777  0.00  0.00    -0.090 HD
ENDBRANCH   5  18
BRANCH   3  22
ATOM     22  C   LIG d   1      -5.986  75.944 114.864  0.00  0.00     0.382 C 
ATOM     23  O   LIG d   1      -6.803  76.628 114.201  0.00  0.00    -0.241 OA
ATOM     24  O   LIG d   1      -6.331  74.831 115.303  0.00  0.00    -0.241 OA
ENDBRANCH   3  22
TORSDOF 7
ENDMDL
MODEL 9
REMARK VINA RESULT:      -4.3     15.254     17.710
REMARK  7 active torsions:
REMARK  status: ('A' for Active; 'I' for Inactive)
REMARK    1  A    between atoms: C_2  and  C_3 
REMARK    2  A    between atoms: C_3  and  O_6 
REMARK    3  A    between atoms: C_3  and  C_4 
REMARK    4  A    between atoms: C_7  and  O_6 
REMARK    5  A    between atoms: C_9  and  C_10 
REMARK    6  A    between atoms: N_15  and  C_14 
REMARK    7  A    between atoms: N_20  and  C_19 
REMARK       I    between atoms: C_22  and  N_20 
ROOT
ATOM      1  C   LIG d   1     -15.565  65.172 115.380  0.00  0.00     0.161 C 
ATOM      2  C   LIG d   1     -15.122  66.441 114.972  0.00  0.00     0.016 C 
ATOM      3  C   LIG d   1     -15.416  66.998 113.706  0.00  0.00     0.038 C 
ATOM      4  C   LIG d   1     -16.306  66.382 112.814  0.00  0.00     0.028 C 
ATOM      5  C   LIG d   1     -16.375  64.867 112.976  0.00  0.00    -0.047 C 
ATOM      6  C   LIG d   1     -16.629  64.533 114.464  0.00  0.00     0.091 C 
ENDROOT
BRANCH   1   7
ATOM      7  O   LIG d   1     -16.046  65.236 116.737  0.00  0.00    -0.368 OA
BRANCH   7   8
ATOM      8  C   LIG d   1     -17.315  65.906 116.933  0.00  0.00     0.119 C 
BRANCH   8   9
ATOM      9  C   LIG d   1     -17.135  66.913 118.086  0.00  0.00     0.028 C 
ATOM     10  C   LIG d   1     -16.508  68.236 117.616  0.00  0.00     0.006 C 
ENDBRANCH   8   9
BRANCH   8  11
ATOM     11  C   LIG d   1     -18.393  64.929 117.413  0.00  0.00     0.028 C 
ATOM     12  C   LIG d   1     -17.810  63.719 118.159  0.00  0.00     0.006 C 
ENDBRANCH   8  11
ENDBRANCH   7   8
ENDBRANCH   1   7
BRANCH   6  13
ATOM     13  N   LIG d   1     -16.626  63.070 114.724  0.00  0.00    -0.311 N 
ATOM     14  C   LIG d   1     -17.723  62.315 114.677  0.00  0.00     0.210 C 
ATOM     15  C   LIG d   1     -17.502  60.833 114.998  0.00  0.00     0.109 C 
ATOM     16  O   LIG d   1     -18.851  62.725 114.367  0.00  0.00    -0.276 OA
ATOM     17  H   LIG d   1     -15.747  62.649 114.952  0.00  0.00     0.149 HD
ENDBRANCH   6  13
BRANCH   5  18
ATOM     18  N   LIG d   1     -17.438  64.371 112.082  0.00  0.00     0.381 N 
ATOM     19  H   LIG d   1     -17.042  63.774 111.384  0.00  0.00    -0.090 HD
ATOM     20  H   LIG d   1     -17.867  65.154 111.621  0.00  0.00    -0.090 HD
ATOM     21  H   LIG d   1     -18.121  63.872 112.608  0.00  0.00    -0.090 HD
ENDBRANCH   5  18
BRANCH   3  22
ATOM     22  C   LIG d   1     -14.785  68.166 113.306  0.00  0.00     0.382 C 
ATOM     23  O   LIG d   1     -14.221  68.222 112.186  0.00  0.00    -0.241 OA
ATOM     24  O   LIG d   1     -14.735  69.150 114.068  0.00  0.00    -0.241 OA
ENDBRANCH   3  22
TORSDOF 7
ENDMDL
