MODEL 1
REMARK VINA RESULT:      -6.2      0.000      0.000
REMARK  7 active torsions:
REMARK  status: ('A' for Active; 'I' for Inactive)
REMARK    1  A    between atoms: C_2  and  C_3 
REMARK    2  A    between atoms: C_3  and  O_6 
REMARK    3  A    between atoms: C_3  and  C_4 
REMARK    4  A    between atoms: C_7  and  O_6 
REMARK    5  A    between atoms: C_9  and  C_10 
REMARK    6  A    between atoms: N_15  and  C_14 
REMARK    7  A    between atoms: N_20  and  C_19 
REMARK       I    between atoms: C_22  and  N_20 
ROOT
ATOM      1  C   LIG d   1      -7.292  77.493 117.248  0.00  0.00     0.161 C 
ATOM      2  C   LIG d   1      -8.511  78.163 117.444  0.00  0.00     0.016 C 
ATOM      3  C   LIG d   1      -8.604  79.548 117.714  0.00  0.00     0.038 C 
ATOM      4  C   LIG d   1      -7.484  80.390 117.656  0.00  0.00     0.028 C 
ATOM      5  C   LIG d   1      -6.171  79.676 117.960  0.00  0.00    -0.047 C 
ATOM      6  C   LIG d   1      -6.068  78.415 117.071  0.00  0.00     0.091 C 
ENDROOT
BRANCH   1   7
ATOM      7  O   LIG d   1      -7.405  76.590 116.130  0.00  0.00    -0.368 OA
BRANCH   7   8
ATOM      8  C   LIG d   1      -7.627  75.196 116.457  0.00  0.00     0.119 C 
BRANCH   8   9
ATOM      9  C   LIG d   1      -6.576  74.368 115.692  0.00  0.00     0.028 C 
ATOM     10  C   LIG d   1      -5.959  75.145 114.517  0.00  0.00     0.006 C 
ENDBRANCH   8   9
BRANCH   8  11
ATOM     11  C   LIG d   1      -8.983  74.710 115.936  0.00  0.00     0.028 C 
ATOM     12  C   LIG d   1      -9.084  73.178 115.876  0.00  0.00     0.006 C 
ENDBRANCH   8  11
ENDBRANCH   7   8
ENDBRANCH   1   7
BRANCH   6  13
ATOM     13  N   LIG d   1      -4.853  77.612 117.366  0.00  0.00    -0.311 N 
ATOM     14  C   LIG d   1      -3.872  77.417 116.486  0.00  0.00     0.210 C 
ATOM     15  C   LIG d   1      -2.720  76.541 116.986  0.00  0.00     0.109 C 
ATOM     16  O   LIG d   1      -3.832  77.913 115.350  0.00  0.00    -0.276 OA
ATOM     17  H   LIG d   1      -4.789  77.198 118.275  0.00  0.00     0.149 HD
ENDBRANCH   6  13
BRANCH   5  18
ATOM     18  N   LIG d   1      -5.077  80.637 117.730  0.00  0.00     0.381 N 
ATOM     19  H   LIG d   1      -4.547  80.361 116.927  0.00  0.00    -0.090 HD
ATOM     20  H   LIG d   1      -4.466  80.631 118.528  0.00  0.00    -0.090 HD
ATOM     21  H   LIG d   1      -5.448  81.551 117.594  0.00  0.00    -0.090 HD
ENDBRANCH   5  18
BRANCH   3  22
ATOM     22  C   LIG d   1      -9.822  80.096 118.085  0.00  0.00     0.382 C 
ATOM     23  O   LIG d   1     -10.368  79.742 119.158  0.00  0.00    -0.241 OA
ATOM     24  O   LIG d   1     -10.404  80.906 117.339  0.00  0.00    -0.241 OA
ENDBRANCH   3  22
TORSDOF 7
ENDMDL
MODEL 2
REMARK VINA RESULT:      -5.8      2.134      5.317
REMARK  7 active torsions:
REMARK  status: ('A' for Active; 'I' for Inactive)
REMARK    1  A    between atoms: C_2  and  C_3 
REMARK    2  A    between atoms: C_3  and  O_6 
REMARK    3  A    between atoms: C_3  and  C_4 
REMARK    4  A    between atoms: C_7  and  O_6 
REMARK    5  A    between atoms: C_9  and  C_10 
REMARK    6  A    between atoms: N_15  and  C_14 
REMARK    7  A    between atoms: N_20  and  C_19 
REMARK       I    between atoms: C_22  and  N_20 
ROOT
ATOM      1  C   LIG d   1      -6.680  76.297 116.551  0.00  0.00     0.161 C 
ATOM      2  C   LIG d   1      -7.605  75.242 116.479  0.00  0.00     0.016 C 
ATOM      3  C   LIG d   1      -7.239  73.902 116.213  0.00  0.00     0.038 C 
ATOM      4  C   LIG d   1      -5.897  73.499 116.150  0.00  0.00     0.028 C 
ATOM      5  C   LIG d   1      -4.950  74.612 115.715  0.00  0.00    -0.047 C 
ATOM      6  C   LIG d   1      -5.201  75.858 116.595  0.00  0.00     0.091 C 
ENDROOT
BRANCH   1   7
ATOM      7  O   LIG d   1      -6.986  77.139 117.680  0.00  0.00    -0.368 OA
BRANCH   7   8
ATOM      8  C   LIG d   1      -7.294  78.522 117.378  0.00  0.00     0.119 C 
BRANCH   8   9
ATOM      9  C   LIG d   1      -6.414  79.402 118.287  0.00  0.00     0.028 C 
ATOM     10  C   LIG d   1      -5.442  80.285 117.487  0.00  0.00     0.006 C 
ENDBRANCH   8   9
BRANCH   8  11
ATOM     11  C   LIG d   1      -8.738  78.867 117.754  0.00  0.00     0.028 C 
ATOM     12  C   LIG d   1      -9.066  80.356 117.558  0.00  0.00     0.006 C 
ENDBRANCH   8  11
ENDBRANCH   7   8
ENDBRANCH   1   7
BRANCH   6  13
ATOM     13  N   LIG d   1      -4.374  77.021 116.181  0.00  0.00    -0.311 N 
ATOM     14  C   LIG d   1      -3.176  77.289 116.696  0.00  0.00     0.210 C 
ATOM     15  C   LIG d   1      -2.501  78.548 116.142  0.00  0.00     0.109 C 
ATOM     16  O   LIG d   1      -2.593  76.586 117.535  0.00  0.00    -0.276 OA
ATOM     17  H   LIG d   1      -4.757  77.627 115.482  0.00  0.00     0.149 HD
ENDBRANCH   6  13
BRANCH   5  18
ATOM     18  N   LIG d   1      -3.573  74.095 115.825  0.00  0.00     0.381 N 
ATOM     19  H   LIG d   1      -2.921  74.806 115.560  0.00  0.00    -0.090 HD
ATOM     20  H   LIG d   1      -3.466  73.319 115.195  0.00  0.00    -0.090 HD
ATOM     21  H   LIG d   1      -3.393  73.800 116.760  0.00  0.00    -0.090 HD
ENDBRANCH   5  18
BRANCH   3  22
ATOM     22  C   LIG d   1      -8.223  72.957 115.968  0.00  0.00     0.382 C 
ATOM     23  O   LIG d   1      -9.414  73.318 115.810  0.00  0.00    -0.241 OA
ATOM     24  O   LIG d   1      -7.942  71.744 115.945  0.00  0.00    -0.241 OA
ENDBRANCH   3  22
TORSDOF 7
ENDMDL
MODEL 3
REMARK VINA RESULT:      -5.6      2.285      5.700
REMARK  7 active torsions:
REMARK  status: ('A' for Active; 'I' for Inactive)
REMARK    1  A    between atoms: C_2  and  C_3 
REMARK    2  A    between atoms: C_3  and  O_6 
REMARK    3  A    between atoms: C_3  and  C_4 
REMARK    4  A    between atoms: C_7  and  O_6 
REMARK    5  A    between atoms: C_9  and  C_10 
REMARK    6  A    between atoms: N_15  and  C_14 
REMARK    7  A    between atoms: N_20  and  C_19 
REMARK       I    between atoms: C_22  and  N_20 
ROOT
ATOM      1  C   LIG d   1      -5.155  75.576 116.111  0.00  0.00     0.161 C 
ATOM      2  C   LIG d   1      -4.067  74.737 115.816  0.00  0.00     0.016 C 
ATOM      3  C   LIG d   1      -2.729  75.053 116.143  0.00  0.00     0.038 C 
ATOM      4  C   LIG d   1      -2.402  76.169 116.929  0.00  0.00     0.028 C 
ATOM      5  C   LIG d   1      -3.412  77.306 116.817  0.00  0.00    -0.047 C 
ATOM      6  C   LIG d   1      -4.830  76.744 117.066  0.00  0.00     0.091 C 
ENDROOT
BRANCH   1   7
ATOM      7  O   LIG d   1      -6.248  74.794 116.630  0.00  0.00    -0.368 OA
BRANCH   7   8
ATOM      8  C   LIG d   1      -7.003  74.028 115.658  0.00  0.00     0.119 C 
BRANCH   8   9
ATOM      9  C   LIG d   1      -8.489  74.400 115.829  0.00  0.00     0.028 C 
ATOM     10  C   LIG d   1      -8.678  75.816 116.398  0.00  0.00     0.006 C 
ENDBRANCH   8   9
BRANCH   8  11
ATOM     11  C   LIG d   1      -6.924  72.527 115.948  0.00  0.00     0.028 C 
ATOM     12  C   LIG d   1      -8.298  71.904 116.244  0.00  0.00     0.006 C 
ENDBRANCH   8  11
ENDBRANCH   7   8
ENDBRANCH   1   7
BRANCH   6  13
ATOM     13  N   LIG d   1      -5.887  77.774 116.892  0.00  0.00    -0.311 N 
ATOM     14  C   LIG d   1      -6.442  78.434 117.907  0.00  0.00     0.210 C 
ATOM     15  C   LIG d   1      -7.526  79.439 117.509  0.00  0.00     0.109 C 
ATOM     16  O   LIG d   1      -6.116  78.305 119.097  0.00  0.00    -0.276 OA
ATOM     17  H   LIG d   1      -6.189  77.964 115.956  0.00  0.00     0.149 HD
ENDBRANCH   6  13
BRANCH   5  18
ATOM     18  N   LIG d   1      -3.023  78.345 117.789  0.00  0.00     0.381 N 
ATOM     19  H   LIG d   1      -3.626  79.137 117.697  0.00  0.00    -0.090 HD
ATOM     20  H   LIG d   1      -2.083  78.640 117.591  0.00  0.00    -0.090 HD
ATOM     21  H   LIG d   1      -3.077  77.982 118.715  0.00  0.00    -0.090 HD
ENDBRANCH   5  18
BRANCH   3  22
ATOM     22  C   LIG d   1      -1.697  74.270 115.649  0.00  0.00     0.382 C 
ATOM     23  O   LIG d   1      -1.023  74.667 114.668  0.00  0.00    -0.241 OA
ATOM     24  O   LIG d   1      -1.460  73.152 116.145  0.00  0.00    -0.241 OA
ENDBRANCH   3  22
TORSDOF 7
ENDMDL
MODEL 4
REMARK VINA RESULT:      -5.2      3.069      5.319
REMARK  7 active torsions:
REMARK  status: ('A' for Active; 'I' for Inactive)
REMARK    1  A    between atoms: C_2  and  C_3 
REMARK    2  A    between atoms: C_3  and  O_6 
REMARK    3  A    between atoms: C_3  and  C_4 
REMARK    4  A    between atoms: C_7  and  O_6 
REMARK    5  A    between atoms: C_9  and  C_10 
REMARK    6  A    between atoms: N_15  and  C_14 
REMARK    7  A    between atoms: N_20  and  C_19 
REMARK       I    between atoms: C_22  and  N_20 
ROOT
ATOM      1  C   LIG d   1      -4.774  75.554 116.429  0.00  0.00     0.161 C 
ATOM      2  C   LIG d   1      -5.551  74.450 116.042  0.00  0.00     0.016 C 
ATOM      3  C   LIG d   1      -6.964  74.435 116.096  0.00  0.00     0.038 C 
ATOM      4  C   LIG d   1      -7.706  75.586 116.398  0.00  0.00     0.028 C 
ATOM      5  C   LIG d   1      -6.955  76.576 117.282  0.00  0.00    -0.047 C 
ATOM      6  C   LIG d   1      -5.570  76.857 116.656  0.00  0.00     0.091 C 
ENDROOT
BRANCH   1   7
ATOM      7  O   LIG d   1      -3.722  75.771 115.468  0.00  0.00    -0.368 OA
BRANCH   7   8
ATOM      8  C   LIG d   1      -2.368  75.715 115.982  0.00  0.00     0.119 C 
BRANCH   8   9
ATOM      9  C   LIG d   1      -1.569  76.847 115.307  0.00  0.00     0.028 C 
ATOM     10  C   LIG d   1      -0.050  76.675 115.477  0.00  0.00     0.006 C 
ENDBRANCH   8   9
BRANCH   8  11
ATOM     11  C   LIG d   1      -1.667  74.419 115.565  0.00  0.00     0.028 C 
ATOM     12  C   LIG d   1      -1.325  73.515 116.760  0.00  0.00     0.006 C 
ENDBRANCH   8  11
ENDBRANCH   7   8
ENDBRANCH   1   7
BRANCH   6  13
ATOM     13  N   LIG d   1      -4.736  77.751 117.501  0.00  0.00    -0.311 N 
ATOM     14  C   LIG d   1      -4.152  78.857 117.044  0.00  0.00     0.210 C 
ATOM     15  C   LIG d   1      -3.321  79.624 118.077  0.00  0.00     0.109 C 
ATOM     16  O   LIG d   1      -4.269  79.293 115.889  0.00  0.00    -0.276 OA
ATOM     17  H   LIG d   1      -4.614  77.489 118.460  0.00  0.00     0.149 HD
ENDBRANCH   6  13
BRANCH   5  18
ATOM     18  N   LIG d   1      -7.790  77.786 117.405  0.00  0.00     0.381 N 
ATOM     19  H   LIG d   1      -8.428  77.837 116.636  0.00  0.00    -0.090 HD
ATOM     20  H   LIG d   1      -7.195  78.596 117.374  0.00  0.00    -0.090 HD
ATOM     21  H   LIG d   1      -8.294  77.768 118.264  0.00  0.00    -0.090 HD
ENDBRANCH   5  18
BRANCH   3  22
ATOM     22  C   LIG d   1      -7.648  73.248 115.883  0.00  0.00     0.382 C 
ATOM     23  O   LIG d   1      -8.898  73.253 115.786  0.00  0.00    -0.241 OA
ATOM     24  O   LIG d   1      -7.033  72.165 115.831  0.00  0.00    -0.241 OA
ENDBRANCH   3  22
TORSDOF 7
ENDMDL
MODEL 5
REMARK VINA RESULT:      -5.1      4.408      7.004
REMARK  7 active torsions:
REMARK  status: ('A' for Active; 'I' for Inactive)
REMARK    1  A    between atoms: C_2  and  C_3 
REMARK    2  A    between atoms: C_3  and  O_6 
REMARK    3  A    between atoms: C_3  and  C_4 
REMARK    4  A    between atoms: C_7  and  O_6 
REMARK    5  A    between atoms: C_9  and  C_10 
REMARK    6  A    between atoms: N_15  and  C_14 
REMARK    7  A    between atoms: N_20  and  C_19 
REMARK       I    between atoms: C_22  and  N_20 
ROOT
ATOM      1  C   LIG d   1      -1.607  75.416 115.286  0.00  0.00     0.161 C 
ATOM      2  C   LIG d   1      -1.275  74.710 116.454  0.00  0.00     0.016 C 
ATOM      3  C   LIG d   1      -0.489  75.254 117.496  0.00  0.00     0.038 C 
ATOM      4  C   LIG d   1      -0.107  76.604 117.508  0.00  0.00     0.028 C 
ATOM      5  C   LIG d   1       0.009  77.213 116.115  0.00  0.00    -0.047 C 
ATOM      6  C   LIG d   1      -1.292  76.926 115.332  0.00  0.00     0.091 C 
ENDROOT
BRANCH   1   7
ATOM      7  O   LIG d   1      -2.996  75.203 114.965  0.00  0.00    -0.368 OA
BRANCH   7   8
ATOM      8  C   LIG d   1      -3.908  75.146 116.089  0.00  0.00     0.119 C 
BRANCH   8   9
ATOM      9  C   LIG d   1      -4.954  74.056 115.782  0.00  0.00     0.028 C 
ATOM     10  C   LIG d   1      -6.217  74.626 115.115  0.00  0.00     0.006 C 
ENDBRANCH   8   9
BRANCH   8  11
ATOM     11  C   LIG d   1      -4.706  76.446 116.226  0.00  0.00     0.028 C 
ATOM     12  C   LIG d   1      -4.267  77.290 117.433  0.00  0.00     0.006 C 
ENDBRANCH   8  11
ENDBRANCH   7   8
ENDBRANCH   1   7
BRANCH   6  13
ATOM     13  N   LIG d   1      -1.230  77.414 113.930  0.00  0.00    -0.311 N 
ATOM     14  C   LIG d   1      -2.137  78.232 113.397  0.00  0.00     0.210 C 
ATOM     15  C   LIG d   1      -1.895  78.598 111.929  0.00  0.00     0.109 C 
ATOM     16  O   LIG d   1      -3.101  78.714 114.010  0.00  0.00    -0.276 OA
ATOM     17  H   LIG d   1      -0.463  77.097 113.370  0.00  0.00     0.149 HD
ENDBRANCH   6  13
BRANCH   5  18
ATOM     18  N   LIG d   1       0.278  78.654 116.279  0.00  0.00     0.381 N 
ATOM     19  H   LIG d   1       0.055  79.139 115.433  0.00  0.00    -0.090 HD
ATOM     20  H   LIG d   1       1.257  78.782 116.468  0.00  0.00    -0.090 HD
ATOM     21  H   LIG d   1      -0.263  79.018 117.033  0.00  0.00    -0.090 HD
ENDBRANCH   5  18
BRANCH   3  22
ATOM     22  C   LIG d   1      -0.044  74.435 118.522  0.00  0.00     0.382 C 
ATOM     23  O   LIG d   1       1.040  74.686 119.100  0.00  0.00    -0.241 OA
ATOM     24  O   LIG d   1      -0.692  73.421 118.847  0.00  0.00    -0.241 OA
ENDBRANCH   3  22
TORSDOF 7
ENDMDL
MODEL 6
REMARK VINA RESULT:      -4.9      3.578      5.661
REMARK  7 active torsions:
REMARK  status: ('A' for Active; 'I' for Inactive)
REMARK    1  A    between atoms: C_2  and  C_3 
REMARK    2  A    between atoms: C_3  and  O_6 
REMARK    3  A    between atoms: C_3  and  C_4 
REMARK    4  A    between atoms: C_7  and  O_6 
REMARK    5  A    between atoms: C_9  and  C_10 
REMARK    6  A    between atoms: N_15  and  C_14 
REMARK    7  A    between atoms: N_20  and  C_19 
REMARK       I    between atoms: C_22  and  N_20 
ROOT
ATOM      1  C   LIG d   1      -2.938  77.508 116.816  0.00  0.00     0.161 C 
ATOM      2  C   LIG d   1      -3.177  78.602 115.967  0.00  0.00     0.016 C 
ATOM      3  C   LIG d   1      -2.340  78.940 114.879  0.00  0.00     0.038 C 
ATOM      4  C   LIG d   1      -1.284  78.112 114.471  0.00  0.00     0.028 C 
ATOM      5  C   LIG d   1      -0.702  77.271 115.602  0.00  0.00    -0.047 C 
ATOM      6  C   LIG d   1      -1.854  76.529 116.319  0.00  0.00     0.091 C 
ENDROOT
BRANCH   1   7
ATOM      7  O   LIG d   1      -4.171  76.805 117.065  0.00  0.00    -0.368 OA
BRANCH   7   8
ATOM      8  C   LIG d   1      -4.743  76.101 115.936  0.00  0.00     0.119 C 
BRANCH   8   9
ATOM      9  C   LIG d   1      -6.198  76.584 115.777  0.00  0.00     0.028 C 
ATOM     10  C   LIG d   1      -6.713  77.315 117.029  0.00  0.00     0.006 C 
ENDBRANCH   8   9
BRANCH   8  11
ATOM     11  C   LIG d   1      -4.843  74.597 116.209  0.00  0.00     0.028 C 
ATOM     12  C   LIG d   1      -6.011  73.932 115.463  0.00  0.00     0.006 C 
ENDBRANCH   8  11
ENDBRANCH   7   8
ENDBRANCH   1   7
BRANCH   6  13
ATOM     13  N   LIG d   1      -1.381  75.749 117.492  0.00  0.00    -0.311 N 
ATOM     14  C   LIG d   1      -1.104  74.447 117.443  0.00  0.00     0.210 C 
ATOM     15  C   LIG d   1      -0.651  73.831 118.770  0.00  0.00     0.109 C 
ATOM     16  O   LIG d   1      -1.160  73.750 116.418  0.00  0.00    -0.276 OA
ATOM     17  H   LIG d   1      -1.278  76.242 118.357  0.00  0.00     0.149 HD
ENDBRANCH   6  13
BRANCH   5  18
ATOM     18  N   LIG d   1       0.294  76.357 115.011  0.00  0.00     0.381 N 
ATOM     19  H   LIG d   1       0.266  75.475 115.482  0.00  0.00    -0.090 HD
ATOM     20  H   LIG d   1       1.210  76.752 115.133  0.00  0.00    -0.090 HD
ATOM     21  H   LIG d   1       0.106  76.230 114.040  0.00  0.00    -0.090 HD
ENDBRANCH   5  18
BRANCH   3  22
ATOM     22  C   LIG d   1      -2.533  80.140 114.211  0.00  0.00     0.382 C 
ATOM     23  O   LIG d   1      -1.794  80.444 113.243  0.00  0.00    -0.241 OA
ATOM     24  O   LIG d   1      -3.408  80.941 114.590  0.00  0.00    -0.241 OA
ENDBRANCH   3  22
TORSDOF 7
ENDMDL
MODEL 7
REMARK VINA RESULT:      -4.9      8.887     11.409
REMARK  7 active torsions:
REMARK  status: ('A' for Active; 'I' for Inactive)
REMARK    1  A    between atoms: C_2  and  C_3 
REMARK    2  A    between atoms: C_3  and  O_6 
REMARK    3  A    between atoms: C_3  and  C_4 
REMARK    4  A    between atoms: C_7  and  O_6 
REMARK    5  A    between atoms: C_9  and  C_10 
REMARK    6  A    between atoms: N_15  and  C_14 
REMARK    7  A    between atoms: N_20  and  C_19 
REMARK       I    between atoms: C_22  and  N_20 
ROOT
ATOM      1  C   LIG d   1       0.408  83.790 112.820  0.00  0.00     0.161 C 
ATOM      2  C   LIG d   1      -0.623  82.964 112.342  0.00  0.00     0.016 C 
ATOM      3  C   LIG d   1      -1.663  82.465 113.160  0.00  0.00     0.038 C 
ATOM      4  C   LIG d   1      -1.827  82.884 114.488  0.00  0.00     0.028 C 
ATOM      5  C   LIG d   1      -0.525  83.319 115.152  0.00  0.00    -0.047 C 
ATOM      6  C   LIG d   1       0.183  84.348 114.241  0.00  0.00     0.091 C 
ENDROOT
BRANCH   1   7
ATOM      7  O   LIG d   1       0.642  84.867 111.890  0.00  0.00    -0.368 OA
BRANCH   7   8
ATOM      8  C   LIG d   1       1.838  84.760 111.080  0.00  0.00     0.119 C 
BRANCH   8   9
ATOM      9  C   LIG d   1       2.775  83.749 111.769  0.00  0.00     0.028 C 
ATOM     10  C   LIG d   1       4.047  84.413 112.325  0.00  0.00     0.006 C 
ENDBRANCH   8   9
BRANCH   8  11
ATOM     11  C   LIG d   1       2.614  86.081 111.055  0.00  0.00     0.028 C 
ATOM     12  C   LIG d   1       1.739  87.292 111.413  0.00  0.00     0.006 C 
ENDBRANCH   8  11
ENDBRANCH   7   8
ENDBRANCH   1   7
BRANCH   6  13
ATOM     13  N   LIG d   1       1.507  84.763 114.775  0.00  0.00    -0.311 N 
ATOM     14  C   LIG d   1       1.840  86.032 115.003  0.00  0.00     0.210 C 
ATOM     15  C   LIG d   1       3.261  86.241 115.536  0.00  0.00     0.109 C 
ATOM     16  O   LIG d   1       1.084  87.002 114.844  0.00  0.00    -0.276 OA
ATOM     17  H   LIG d   1       2.171  84.037 114.962  0.00  0.00     0.149 HD
ENDBRANCH   6  13
BRANCH   5  18
ATOM     18  N   LIG d   1      -0.861  83.860 116.482  0.00  0.00     0.381 N 
ATOM     19  H   LIG d   1      -0.072  84.346 116.860  0.00  0.00    -0.090 HD
ATOM     20  H   LIG d   1      -1.084  83.097 117.096  0.00  0.00    -0.090 HD
ATOM     21  H   LIG d   1      -1.639  84.478 116.412  0.00  0.00    -0.090 HD
ENDBRANCH   5  18
BRANCH   3  22
ATOM     22  C   LIG d   1      -2.529  81.505 112.660  0.00  0.00     0.382 C 
ATOM     23  O   LIG d   1      -2.072  80.458 112.140  0.00  0.00    -0.241 OA
ATOM     24  O   LIG d   1      -3.760  81.691 112.683  0.00  0.00    -0.241 OA
ENDBRANCH   3  22
TORSDOF 7
ENDMDL
MODEL 8
REMARK VINA RESULT:      -4.9     11.061     13.606
REMARK  7 active torsions:
REMARK  status: ('A' for Active; 'I' for Inactive)
REMARK    1  A    between atoms: C_2  and  C_3 
REMARK    2  A    between atoms: C_3  and  O_6 
REMARK    3  A    between atoms: C_3  and  C_4 
REMARK    4  A    between atoms: C_7  and  O_6 
REMARK    5  A    between atoms: C_9  and  C_10 
REMARK    6  A    between atoms: N_15  and  C_14 
REMARK    7  A    between atoms: N_20  and  C_19 
REMARK       I    between atoms: C_22  and  N_20 
ROOT
ATOM      1  C   LIG d   1       2.202  86.432 114.338  0.00  0.00     0.161 C 
ATOM      2  C   LIG d   1       2.937  87.624 114.231  0.00  0.00     0.016 C 
ATOM      3  C   LIG d   1       3.848  87.885 113.181  0.00  0.00     0.038 C 
ATOM      4  C   LIG d   1       3.973  87.027 112.078  0.00  0.00     0.028 C 
ATOM      5  C   LIG d   1       3.625  85.577 112.396  0.00  0.00    -0.047 C 
ATOM      6  C   LIG d   1       2.242  85.532 113.085  0.00  0.00     0.091 C 
ENDROOT
BRANCH   1   7
ATOM      7  O   LIG d   1       0.838  86.729 114.698  0.00  0.00    -0.368 OA
BRANCH   7   8
ATOM      8  C   LIG d   1       0.472  86.472 116.076  0.00  0.00     0.119 C 
BRANCH   8   9
ATOM      9  C   LIG d   1       1.603  85.638 116.707  0.00  0.00     0.028 C 
ATOM     10  C   LIG d   1       1.082  84.356 117.380  0.00  0.00     0.006 C 
ENDBRANCH   8   9
BRANCH   8  11
ATOM     11  C   LIG d   1      -0.779  85.593 116.165  0.00  0.00     0.028 C 
ATOM     12  C   LIG d   1      -1.367  85.252 114.786  0.00  0.00     0.006 C 
ENDBRANCH   8  11
ENDBRANCH   7   8
ENDBRANCH   1   7
BRANCH   6  13
ATOM     13  N   LIG d   1       1.863  84.158 113.506  0.00  0.00    -0.311 N 
ATOM     14  C   LIG d   1       1.130  83.338 112.756  0.00  0.00     0.210 C 
ATOM     15  C   LIG d   1       0.837  81.973 113.387  0.00  0.00     0.109 C 
ATOM     16  O   LIG d   1       0.721  83.599 111.614  0.00  0.00    -0.276 OA
ATOM     17  H   LIG d   1       2.180  83.853 114.406  0.00  0.00     0.149 HD
ENDBRANCH   6  13
BRANCH   5  18
ATOM     18  N   LIG d   1       3.664  84.822 111.129  0.00  0.00     0.381 N 
ATOM     19  H   LIG d   1       2.959  84.112 111.136  0.00  0.00    -0.090 HD
ATOM     20  H   LIG d   1       4.561  84.375 111.045  0.00  0.00    -0.090 HD
ATOM     21  H   LIG d   1       3.518  85.437 110.360  0.00  0.00    -0.090 HD
ENDBRANCH   5  18
BRANCH   3  22
ATOM     22  C   LIG d   1       4.674  88.996 113.248  0.00  0.00     0.382 C 
ATOM     23  O   LIG d   1       5.835  88.944 112.774  0.00  0.00    -0.241 OA
ATOM     24  O   LIG d   1       4.290  90.036 113.817  0.00  0.00    -0.241 OA
ENDBRANCH   3  22
TORSDOF 7
ENDMDL
MODEL 9
REMARK VINA RESULT:      -4.8     11.142     13.533
REMARK  7 active torsions:
REMARK  status: ('A' for Active; 'I' for Inactive)
REMARK    1  A    between atoms: C_2  and  C_3 
REMARK    2  A    between atoms: C_3  and  O_6 
REMARK    3  A    between atoms: C_3  and  C_4 
REMARK    4  A    between atoms: C_7  and  O_6 
REMARK    5  A    between atoms: C_9  and  C_10 
REMARK    6  A    between atoms: N_15  and  C_14 
REMARK    7  A    between atoms: N_20  and  C_19 
REMARK       I    between atoms: C_22  and  N_20 
ROOT
ATOM      1  C   LIG d   1       1.780  86.634 112.966  0.00  0.00     0.161 C 
ATOM      2  C   LIG d   1       2.909  87.417 112.674  0.00  0.00     0.016 C 
ATOM      3  C   LIG d   1       3.711  88.027 113.667  0.00  0.00     0.038 C 
ATOM      4  C   LIG d   1       3.524  87.769 115.033  0.00  0.00     0.028 C 
ATOM      5  C   LIG d   1       2.090  87.390 115.387  0.00  0.00    -0.047 C 
ATOM      6  C   LIG d   1       1.626  86.250 114.452  0.00  0.00     0.091 C 
ENDROOT
BRANCH   1   7
ATOM      7  O   LIG d   1       1.779  85.453 112.140  0.00  0.00    -0.368 OA
BRANCH   7   8
ATOM      8  C   LIG d   1       0.796  85.420 111.076  0.00  0.00     0.119 C 
BRANCH   8   9
ATOM      9  C   LIG d   1       0.091  86.790 111.055  0.00  0.00     0.028 C 
ATOM     10  C   LIG d   1      -1.442  86.662 111.060  0.00  0.00     0.006 C 
ENDBRANCH   8   9
BRANCH   8  11
ATOM     11  C   LIG d   1      -0.309  84.400 111.368  0.00  0.00     0.028 C 
ATOM     12  C   LIG d   1       0.240  83.054 111.867  0.00  0.00     0.006 C 
ENDBRANCH   8  11
ENDBRANCH   7   8
ENDBRANCH   1   7
BRANCH   6  13
ATOM     13  N   LIG d   1       0.205  85.877 114.675  0.00  0.00    -0.311 N 
ATOM     14  C   LIG d   1      -0.178  84.683 115.126  0.00  0.00     0.210 C 
ATOM     15  C   LIG d   1      -1.692  84.499 115.265  0.00  0.00     0.109 C 
ATOM     16  O   LIG d   1       0.595  83.770 115.454  0.00  0.00    -0.276 OA
ATOM     17  H   LIG d   1      -0.487  86.569 114.464  0.00  0.00     0.149 HD
ENDBRANCH   6  13
BRANCH   5  18
ATOM     18  N   LIG d   1       2.067  87.015 116.813  0.00  0.00     0.381 N 
ATOM     19  H   LIG d   1       1.822  87.809 117.369  0.00  0.00    -0.090 HD
ATOM     20  H   LIG d   1       2.986  86.711 117.084  0.00  0.00    -0.090 HD
ATOM     21  H   LIG d   1       1.410  86.281 116.962  0.00  0.00    -0.090 HD
ENDBRANCH   5  18
BRANCH   3  22
ATOM     22  C   LIG d   1       4.688  88.938 113.297  0.00  0.00     0.382 C 
ATOM     23  O   LIG d   1       4.581  90.143 113.630  0.00  0.00    -0.241 OA
ATOM     24  O   LIG d   1       5.654  88.580 112.596  0.00  0.00    -0.241 OA
ENDBRANCH   3  22
TORSDOF 7
ENDMDL
