MODEL 1
REMARK VINA RESULT:      -5.9      0.000      0.000
REMARK  7 active torsions:
REMARK  status: ('A' for Active; 'I' for Inactive)
REMARK    1  A    between atoms: C_2  and  C_3 
REMARK    2  A    between atoms: C_3  and  O_6 
REMARK    3  A    between atoms: C_3  and  C_4 
REMARK    4  A    between atoms: C_7  and  O_6 
REMARK    5  A    between atoms: C_9  and  C_10 
REMARK    6  A    between atoms: N_15  and  C_14 
REMARK    7  A    between atoms: N_20  and  C_19 
REMARK       I    between atoms: C_22  and  N_20 
ROOT
ATOM      1  C   LIG d   1      -2.694  76.895 115.194  0.00  0.00     0.161 C 
ATOM      2  C   LIG d   1      -2.956  77.934 114.285  0.00  0.00     0.016 C 
ATOM      3  C   LIG d   1      -2.272  78.084 113.057  0.00  0.00     0.038 C 
ATOM      4  C   LIG d   1      -1.379  77.112 112.582  0.00  0.00     0.028 C 
ATOM      5  C   LIG d   1      -0.711  76.308 113.692  0.00  0.00    -0.047 C 
ATOM      6  C   LIG d   1      -1.802  75.763 114.642  0.00  0.00     0.091 C 
ENDROOT
BRANCH   1   7
ATOM      7  O   LIG d   1      -3.935  76.357 115.692  0.00  0.00    -0.368 OA
BRANCH   7   8
ATOM      8  C   LIG d   1      -4.870  75.881 114.693  0.00  0.00     0.119 C 
BRANCH   8   9
ATOM      9  C   LIG d   1      -6.291  76.178 115.210  0.00  0.00     0.028 C 
ATOM     10  C   LIG d   1      -6.297  77.211 116.349  0.00  0.00     0.006 C 
ENDBRANCH   8   9
BRANCH   8  11
ATOM     11  C   LIG d   1      -4.802  74.358 114.547  0.00  0.00     0.028 C 
ATOM     12  C   LIG d   1      -5.267  73.617 115.811  0.00  0.00     0.006 C 
ENDBRANCH   8  11
ENDBRANCH   7   8
ENDBRANCH   1   7
BRANCH   6  13
ATOM     13  N   LIG d   1      -1.229  75.035 115.805  0.00  0.00    -0.311 N 
ATOM     14  C   LIG d   1      -1.034  73.718 115.821  0.00  0.00     0.210 C 
ATOM     15  C   LIG d   1      -0.451  73.167 117.126  0.00  0.00     0.109 C 
ATOM     16  O   LIG d   1      -1.259  72.958 114.867  0.00  0.00    -0.276 OA
ATOM     17  H   LIG d   1      -0.989  75.579 116.610  0.00  0.00     0.149 HD
ENDBRANCH   6  13
BRANCH   5  18
ATOM     18  N   LIG d   1       0.086  75.243 113.055  0.00  0.00     0.381 N 
ATOM     19  H   LIG d   1       0.162  75.419 112.073  0.00  0.00    -0.090 HD
ATOM     20  H   LIG d   1      -0.385  74.365 113.182  0.00  0.00    -0.090 HD
ATOM     21  H   LIG d   1       0.993  75.205 113.464  0.00  0.00    -0.090 HD
ENDBRANCH   5  18
BRANCH   3  22
ATOM     22  C   LIG d   1      -2.450  79.237 112.307  0.00  0.00     0.382 C 
ATOM     23  O   LIG d   1      -1.857  79.369 111.210  0.00  0.00    -0.241 OA
ATOM     24  O   LIG d   1      -3.161  80.166 112.736  0.00  0.00    -0.241 OA
ENDBRANCH   3  22
TORSDOF 7
ENDMDL
MODEL 2
REMARK VINA RESULT:      -5.0     11.051     13.423
REMARK  7 active torsions:
REMARK  status: ('A' for Active; 'I' for Inactive)
REMARK    1  A    between atoms: C_2  and  C_3 
REMARK    2  A    between atoms: C_3  and  O_6 
REMARK    3  A    between atoms: C_3  and  C_4 
REMARK    4  A    between atoms: C_7  and  O_6 
REMARK    5  A    between atoms: C_9  and  C_10 
REMARK    6  A    between atoms: N_15  and  C_14 
REMARK    7  A    between atoms: N_20  and  C_19 
REMARK       I    between atoms: C_22  and  N_20 
ROOT
ATOM      1  C   LIG d   1       2.876  87.534 115.271  0.00  0.00     0.161 C 
ATOM      2  C   LIG d   1       3.172  88.289 116.419  0.00  0.00     0.016 C 
ATOM      3  C   LIG d   1       4.231  89.223 116.484  0.00  0.00     0.038 C 
ATOM      4  C   LIG d   1       4.978  89.577 115.351  0.00  0.00     0.028 C 
ATOM      5  C   LIG d   1       5.045  88.474 114.300  0.00  0.00    -0.047 C 
ATOM      6  C   LIG d   1       3.610  87.987 113.992  0.00  0.00     0.091 C 
ENDROOT
BRANCH   1   7
ATOM      7  O   LIG d   1       1.452  87.515 115.052  0.00  0.00    -0.368 OA
BRANCH   7   8
ATOM      8  C   LIG d   1       0.746  86.352 115.550  0.00  0.00     0.119 C 
BRANCH   8   9
ATOM      9  C   LIG d   1       0.339  85.501 114.332  0.00  0.00     0.028 C 
ATOM     10  C   LIG d   1       1.189  84.226 114.197  0.00  0.00     0.006 C 
ENDBRANCH   8   9
BRANCH   8  11
ATOM     11  C   LIG d   1      -0.571  86.747 116.226  0.00  0.00     0.028 C 
ATOM     12  C   LIG d   1      -0.361  87.615 117.477  0.00  0.00     0.006 C 
ENDBRANCH   8  11
ENDBRANCH   7   8
ENDBRANCH   1   7
BRANCH   6  13
ATOM     13  N   LIG d   1       3.591  86.850 113.035  0.00  0.00    -0.311 N 
ATOM     14  C   LIG d   1       2.921  86.872 111.884  0.00  0.00     0.210 C 
ATOM     15  C   LIG d   1       3.018  85.588 111.055  0.00  0.00     0.109 C 
ATOM     16  O   LIG d   1       2.283  87.846 111.455  0.00  0.00    -0.276 OA
ATOM     17  H   LIG d   1       4.108  86.031 113.289  0.00  0.00     0.149 HD
ENDBRANCH   6  13
BRANCH   5  18
ATOM     18  N   LIG d   1       5.735  89.025 113.118  0.00  0.00     0.381 N 
ATOM     19  H   LIG d   1       6.174  89.892 113.356  0.00  0.00    -0.090 HD
ATOM     20  H   LIG d   1       5.056  89.202 112.399  0.00  0.00    -0.090 HD
ATOM     21  H   LIG d   1       6.417  88.378 112.789  0.00  0.00    -0.090 HD
ENDBRANCH   5  18
BRANCH   3  22
ATOM     22  C   LIG d   1       4.578  89.784 117.704  0.00  0.00     0.382 C 
ATOM     23  O   LIG d   1       5.279  90.824 117.738  0.00  0.00    -0.241 OA
ATOM     24  O   LIG d   1       4.237  89.238 118.770  0.00  0.00    -0.241 OA
ENDBRANCH   3  22
TORSDOF 7
ENDMDL
MODEL 3
REMARK VINA RESULT:      -5.0     15.677     18.162
REMARK  7 active torsions:
REMARK  status: ('A' for Active; 'I' for Inactive)
REMARK    1  A    between atoms: C_2  and  C_3 
REMARK    2  A    between atoms: C_3  and  O_6 
REMARK    3  A    between atoms: C_3  and  C_4 
REMARK    4  A    between atoms: C_7  and  O_6 
REMARK    5  A    between atoms: C_9  and  C_10 
REMARK    6  A    between atoms: N_15  and  C_14 
REMARK    7  A    between atoms: N_20  and  C_19 
REMARK       I    between atoms: C_22  and  N_20 
ROOT
ATOM      1  C   LIG d   1     -16.889  64.885 114.530  0.00  0.00     0.161 C 
ATOM      2  C   LIG d   1     -16.516  65.866 113.596  0.00  0.00     0.016 C 
ATOM      3  C   LIG d   1     -15.704  66.977 113.918  0.00  0.00     0.038 C 
ATOM      4  C   LIG d   1     -15.081  67.103 115.168  0.00  0.00     0.028 C 
ATOM      5  C   LIG d   1     -15.835  66.403 116.294  0.00  0.00    -0.047 C 
ATOM      6  C   LIG d   1     -16.128  64.946 115.871  0.00  0.00     0.091 C 
ENDROOT
BRANCH   1   7
ATOM      7  O   LIG d   1     -16.762  63.575 113.941  0.00  0.00    -0.368 OA
BRANCH   7   8
ATOM      8  C   LIG d   1     -17.996  62.843 113.742  0.00  0.00     0.119 C 
BRANCH   8   9
ATOM      9  C   LIG d   1     -19.154  63.762 114.175  0.00  0.00     0.028 C 
ATOM     10  C   LIG d   1     -20.058  64.162 112.997  0.00  0.00     0.006 C 
ENDBRANCH   8   9
BRANCH   8  11
ATOM     11  C   LIG d   1     -18.076  61.625 114.667  0.00  0.00     0.028 C 
ATOM     12  C   LIG d   1     -19.251  61.704 115.655  0.00  0.00     0.006 C 
ENDBRANCH   8  11
ENDBRANCH   7   8
ENDBRANCH   1   7
BRANCH   6  13
ATOM     13  N   LIG d   1     -16.937  64.214 116.881  0.00  0.00    -0.311 N 
ATOM     14  C   LIG d   1     -16.405  63.444 117.828  0.00  0.00     0.210 C 
ATOM     15  C   LIG d   1     -17.419  62.765 118.755  0.00  0.00     0.109 C 
ATOM     16  O   LIG d   1     -15.189  63.285 118.010  0.00  0.00    -0.276 OA
ATOM     17  H   LIG d   1     -17.932  64.312 116.826  0.00  0.00     0.149 HD
ENDBRANCH   6  13
BRANCH   5  18
ATOM     18  N   LIG d   1     -15.007  66.497 117.511  0.00  0.00     0.381 N 
ATOM     19  H   LIG d   1     -15.070  67.419 117.893  0.00  0.00    -0.090 HD
ATOM     20  H   LIG d   1     -14.048  66.321 117.266  0.00  0.00    -0.090 HD
ATOM     21  H   LIG d   1     -15.313  65.829 118.184  0.00  0.00    -0.090 HD
ENDBRANCH   5  18
BRANCH   3  22
ATOM     22  C   LIG d   1     -15.540  67.999 112.995  0.00  0.00     0.382 C 
ATOM     23  O   LIG d   1     -15.813  67.801 111.786  0.00  0.00    -0.241 OA
ATOM     24  O   LIG d   1     -15.082  69.102 113.348  0.00  0.00    -0.241 OA
ENDBRANCH   3  22
TORSDOF 7
ENDMDL
MODEL 4
REMARK VINA RESULT:      -4.9      1.957      5.064
REMARK  7 active torsions:
REMARK  status: ('A' for Active; 'I' for Inactive)
REMARK    1  A    between atoms: C_2  and  C_3 
REMARK    2  A    between atoms: C_3  and  O_6 
REMARK    3  A    between atoms: C_3  and  C_4 
REMARK    4  A    between atoms: C_7  and  O_6 
REMARK    5  A    between atoms: C_9  and  C_10 
REMARK    6  A    between atoms: N_15  and  C_14 
REMARK    7  A    between atoms: N_20  and  C_19 
REMARK       I    between atoms: C_22  and  N_20 
ROOT
ATOM      1  C   LIG d   1      -3.001  74.938 114.964  0.00  0.00     0.161 C 
ATOM      2  C   LIG d   1      -2.585  74.112 116.021  0.00  0.00     0.016 C 
ATOM      3  C   LIG d   1      -1.353  74.271 116.695  0.00  0.00     0.038 C 
ATOM      4  C   LIG d   1      -0.513  75.369 116.456  0.00  0.00     0.028 C 
ATOM      5  C   LIG d   1      -0.653  75.943 115.050  0.00  0.00    -0.047 C 
ATOM      6  C   LIG d   1      -2.149  76.209 114.763  0.00  0.00     0.091 C 
ENDROOT
BRANCH   1   7
ATOM      7  O   LIG d   1      -4.389  75.287 115.133  0.00  0.00    -0.368 OA
BRANCH   7   8
ATOM      8  C   LIG d   1      -4.918  75.164 116.476  0.00  0.00     0.119 C 
BRANCH   8   9
ATOM      9  C   LIG d   1      -6.369  74.659 116.358  0.00  0.00     0.028 C 
ATOM     10  C   LIG d   1      -6.502  73.168 116.709  0.00  0.00     0.006 C 
ENDBRANCH   8   9
BRANCH   8  11
ATOM     11  C   LIG d   1      -5.018  76.529 117.163  0.00  0.00     0.028 C 
ATOM     12  C   LIG d   1      -3.960  76.723 118.261  0.00  0.00     0.006 C 
ENDBRANCH   8  11
ENDBRANCH   7   8
ENDBRANCH   1   7
BRANCH   6  13
ATOM     13  N   LIG d   1      -2.383  76.693 113.377  0.00  0.00    -0.311 N 
ATOM     14  C   LIG d   1      -2.583  77.974 113.072  0.00  0.00     0.210 C 
ATOM     15  C   LIG d   1      -2.825  78.254 111.586  0.00  0.00     0.109 C 
ATOM     16  O   LIG d   1      -2.552  78.908 113.887  0.00  0.00    -0.276 OA
ATOM     17  H   LIG d   1      -2.393  76.005 112.650  0.00  0.00     0.149 HD
ENDBRANCH   6  13
BRANCH   5  18
ATOM     18  N   LIG d   1       0.174  77.163 114.982  0.00  0.00     0.381 N 
ATOM     19  H   LIG d   1       0.071  77.593 114.085  0.00  0.00    -0.090 HD
ATOM     20  H   LIG d   1       1.139  76.909 115.101  0.00  0.00    -0.090 HD
ATOM     21  H   LIG d   1      -0.100  77.801 115.697  0.00  0.00    -0.090 HD
ENDBRANCH   5  18
BRANCH   3  22
ATOM     22  C   LIG d   1      -0.930  73.303 117.593  0.00  0.00     0.382 C 
ATOM     23  O   LIG d   1      -0.848  72.104 117.230  0.00  0.00    -0.241 OA
ATOM     24  O   LIG d   1      -0.672  73.605 118.774  0.00  0.00    -0.241 OA
ENDBRANCH   3  22
TORSDOF 7
ENDMDL
MODEL 5
REMARK VINA RESULT:      -4.9      2.552      4.824
REMARK  7 active torsions:
REMARK  status: ('A' for Active; 'I' for Inactive)
REMARK    1  A    between atoms: C_2  and  C_3 
REMARK    2  A    between atoms: C_3  and  O_6 
REMARK    3  A    between atoms: C_3  and  C_4 
REMARK    4  A    between atoms: C_7  and  O_6 
REMARK    5  A    between atoms: C_9  and  C_10 
REMARK    6  A    between atoms: N_15  and  C_14 
REMARK    7  A    between atoms: N_20  and  C_19 
REMARK       I    between atoms: C_22  and  N_20 
ROOT
ATOM      1  C   LIG d   1      -2.881  74.147 115.572  0.00  0.00     0.161 C 
ATOM      2  C   LIG d   1      -2.067  75.209 115.145  0.00  0.00     0.016 C 
ATOM      3  C   LIG d   1      -2.572  76.479 114.781  0.00  0.00     0.038 C 
ATOM      4  C   LIG d   1      -3.920  76.821 114.966  0.00  0.00     0.028 C 
ATOM      5  C   LIG d   1      -4.861  75.623 114.918  0.00  0.00    -0.047 C 
ATOM      6  C   LIG d   1      -4.340  74.536 115.886  0.00  0.00     0.091 C 
ENDROOT
BRANCH   1   7
ATOM      7  O   LIG d   1      -2.279  73.498 116.710  0.00  0.00    -0.368 OA
BRANCH   7   8
ATOM      8  C   LIG d   1      -1.312  74.281 117.452  0.00  0.00     0.119 C 
BRANCH   8   9
ATOM      9  C   LIG d   1      -0.167  73.334 117.862  0.00  0.00     0.028 C 
ATOM     10  C   LIG d   1      -0.447  72.617 119.194  0.00  0.00     0.006 C 
ENDBRANCH   8   9
BRANCH   8  11
ATOM     11  C   LIG d   1      -1.903  74.796 118.768  0.00  0.00     0.028 C 
ATOM     12  C   LIG d   1      -2.248  76.293 118.721  0.00  0.00     0.006 C 
ENDBRANCH   8  11
ENDBRANCH   7   8
ENDBRANCH   1   7
BRANCH   6  13
ATOM     13  N   LIG d   1      -5.157  73.296 115.839  0.00  0.00    -0.311 N 
ATOM     14  C   LIG d   1      -6.276  73.126 116.542  0.00  0.00     0.210 C 
ATOM     15  C   LIG d   1      -6.953  71.764 116.362  0.00  0.00     0.109 C 
ATOM     16  O   LIG d   1      -6.788  73.987 117.273  0.00  0.00    -0.276 OA
ATOM     17  H   LIG d   1      -4.831  72.557 115.247  0.00  0.00     0.149 HD
ENDBRANCH   6  13
BRANCH   5  18
ATOM     18  N   LIG d   1      -6.213  76.104 115.262  0.00  0.00     0.381 N 
ATOM     19  H   LIG d   1      -6.545  75.626 116.076  0.00  0.00    -0.090 HD
ATOM     20  H   LIG d   1      -6.835  75.899 114.500  0.00  0.00    -0.090 HD
ATOM     21  H   LIG d   1      -6.193  77.086 115.429  0.00  0.00    -0.090 HD
ENDBRANCH   5  18
BRANCH   3  22
ATOM     22  C   LIG d   1      -1.732  77.408 114.188  0.00  0.00     0.382 C 
ATOM     23  O   LIG d   1      -0.783  77.023 113.463  0.00  0.00    -0.241 OA
ATOM     24  O   LIG d   1      -1.883  78.626 114.404  0.00  0.00    -0.241 OA
ENDBRANCH   3  22
TORSDOF 7
ENDMDL
MODEL 6
REMARK VINA RESULT:      -4.9     15.682     18.683
REMARK  7 active torsions:
REMARK  status: ('A' for Active; 'I' for Inactive)
REMARK    1  A    between atoms: C_2  and  C_3 
REMARK    2  A    between atoms: C_3  and  O_6 
REMARK    3  A    between atoms: C_3  and  C_4 
REMARK    4  A    between atoms: C_7  and  O_6 
REMARK    5  A    between atoms: C_9  and  C_10 
REMARK    6  A    between atoms: N_15  and  C_14 
REMARK    7  A    between atoms: N_20  and  C_19 
REMARK       I    between atoms: C_22  and  N_20 
ROOT
ATOM      1  C   LIG d   1     -16.235  64.612 114.554  0.00  0.00     0.161 C 
ATOM      2  C   LIG d   1     -15.971  63.942 115.760  0.00  0.00     0.016 C 
ATOM      3  C   LIG d   1     -16.018  64.571 117.026  0.00  0.00     0.038 C 
ATOM      4  C   LIG d   1     -16.484  65.884 117.184  0.00  0.00     0.028 C 
ATOM      5  C   LIG d   1     -16.279  66.753 115.948  0.00  0.00    -0.047 C 
ATOM      6  C   LIG d   1     -16.853  66.016 114.716  0.00  0.00     0.091 C 
ENDROOT
BRANCH   1   7
ATOM      7  O   LIG d   1     -17.069  63.792 113.712  0.00  0.00    -0.368 OA
BRANCH   7   8
ATOM      8  C   LIG d   1     -18.221  63.187 114.351  0.00  0.00     0.119 C 
BRANCH   8   9
ATOM      9  C   LIG d   1     -18.213  61.688 113.996  0.00  0.00     0.028 C 
ATOM     10  C   LIG d   1     -18.011  60.793 115.231  0.00  0.00     0.006 C 
ENDBRANCH   8   9
BRANCH   8  11
ATOM     11  C   LIG d   1     -19.530  63.734 113.773  0.00  0.00     0.028 C 
ATOM     12  C   LIG d   1     -19.353  64.349 112.375  0.00  0.00     0.006 C 
ENDBRANCH   8  11
ENDBRANCH   7   8
ENDBRANCH   1   7
BRANCH   6  13
ATOM     13  N   LIG d   1     -16.619  66.760 113.451  0.00  0.00    -0.311 N 
ATOM     14  C   LIG d   1     -15.508  67.452 113.202  0.00  0.00     0.210 C 
ATOM     15  C   LIG d   1     -15.479  68.161 111.845  0.00  0.00     0.109 C 
ATOM     16  O   LIG d   1     -14.532  67.520 113.964  0.00  0.00    -0.276 OA
ATOM     17  H   LIG d   1     -17.347  66.733 112.764  0.00  0.00     0.149 HD
ENDBRANCH   6  13
BRANCH   5  18
ATOM     18  N   LIG d   1     -16.932  68.051 116.202  0.00  0.00     0.381 N 
ATOM     19  H   LIG d   1     -17.819  67.904 116.641  0.00  0.00    -0.090 HD
ATOM     20  H   LIG d   1     -17.088  68.514 115.324  0.00  0.00    -0.090 HD
ATOM     21  H   LIG d   1     -16.354  68.615 116.785  0.00  0.00    -0.090 HD
ENDBRANCH   5  18
BRANCH   3  22
ATOM     22  C   LIG d   1     -15.558  63.895 118.146  0.00  0.00     0.382 C 
ATOM     23  O   LIG d   1     -16.371  63.490 119.011  0.00  0.00    -0.241 OA
ATOM     24  O   LIG d   1     -14.337  63.725 118.324  0.00  0.00    -0.241 OA
ENDBRANCH   3  22
TORSDOF 7
ENDMDL
MODEL 7
REMARK VINA RESULT:      -4.9      9.133     12.223
REMARK  7 active torsions:
REMARK  status: ('A' for Active; 'I' for Inactive)
REMARK    1  A    between atoms: C_2  and  C_3 
REMARK    2  A    between atoms: C_3  and  O_6 
REMARK    3  A    between atoms: C_3  and  C_4 
REMARK    4  A    between atoms: C_7  and  O_6 
REMARK    5  A    between atoms: C_9  and  C_10 
REMARK    6  A    between atoms: N_15  and  C_14 
REMARK    7  A    between atoms: N_20  and  C_19 
REMARK       I    between atoms: C_22  and  N_20 
ROOT
ATOM      1  C   LIG d   1       2.338  85.395 114.448  0.00  0.00     0.161 C 
ATOM      2  C   LIG d   1       1.797  84.523 113.489  0.00  0.00     0.016 C 
ATOM      3  C   LIG d   1       0.414  84.439 113.205  0.00  0.00     0.038 C 
ATOM      4  C   LIG d   1      -0.512  85.335 113.759  0.00  0.00     0.028 C 
ATOM      5  C   LIG d   1      -0.079  85.896 115.109  0.00  0.00    -0.047 C 
ATOM      6  C   LIG d   1       1.356  86.458 114.982  0.00  0.00     0.091 C 
ENDROOT
BRANCH   1   7
ATOM      7  O   LIG d   1       3.522  86.026 113.921  0.00  0.00    -0.368 OA
BRANCH   7   8
ATOM      8  C   LIG d   1       3.313  86.988 112.858  0.00  0.00     0.119 C 
BRANCH   8   9
ATOM      9  C   LIG d   1       4.298  86.646 111.724  0.00  0.00     0.028 C 
ATOM     10  C   LIG d   1       3.979  85.299 111.055  0.00  0.00     0.006 C 
ENDBRANCH   8   9
BRANCH   8  11
ATOM     11  C   LIG d   1       3.685  88.404 113.306  0.00  0.00     0.028 C 
ATOM     12  C   LIG d   1       5.163  88.740 113.052  0.00  0.00     0.006 C 
ENDBRANCH   8  11
ENDBRANCH   7   8
ENDBRANCH   1   7
BRANCH   6  13
ATOM     13  N   LIG d   1       1.888  86.951 116.279  0.00  0.00    -0.311 N 
ATOM     14  C   LIG d   1       1.854  88.231 116.647  0.00  0.00     0.210 C 
ATOM     15  C   LIG d   1       2.475  88.527 118.016  0.00  0.00     0.109 C 
ATOM     16  O   LIG d   1       1.338  89.144 115.985  0.00  0.00    -0.276 OA
ATOM     17  H   LIG d   1       2.297  86.273 116.892  0.00  0.00     0.149 HD
ENDBRANCH   6  13
BRANCH   5  18
ATOM     18  N   LIG d   1      -1.067  86.918 115.505  0.00  0.00     0.381 N 
ATOM     19  H   LIG d   1      -1.430  87.371 114.691  0.00  0.00    -0.090 HD
ATOM     20  H   LIG d   1      -0.610  87.609 116.073  0.00  0.00    -0.090 HD
ATOM     21  H   LIG d   1      -1.809  86.494 116.017  0.00  0.00    -0.090 HD
ENDBRANCH   5  18
BRANCH   3  22
ATOM     22  C   LIG d   1      -0.059  83.423 112.389  0.00  0.00     0.382 C 
ATOM     23  O   LIG d   1      -1.290  83.186 112.333  0.00  0.00    -0.241 OA
ATOM     24  O   LIG d   1       0.732  82.711 111.742  0.00  0.00    -0.241 OA
ENDBRANCH   3  22
TORSDOF 7
ENDMDL
MODEL 8
REMARK VINA RESULT:      -4.8      2.358      5.580
REMARK  7 active torsions:
REMARK  status: ('A' for Active; 'I' for Inactive)
REMARK    1  A    between atoms: C_2  and  C_3 
REMARK    2  A    between atoms: C_3  and  O_6 
REMARK    3  A    between atoms: C_3  and  C_4 
REMARK    4  A    between atoms: C_7  and  O_6 
REMARK    5  A    between atoms: C_9  and  C_10 
REMARK    6  A    between atoms: N_15  and  C_14 
REMARK    7  A    between atoms: N_20  and  C_19 
REMARK       I    between atoms: C_22  and  N_20 
ROOT
ATOM      1  C   LIG d   1      -3.072  75.653 115.922  0.00  0.00     0.161 C 
ATOM      2  C   LIG d   1      -4.028  74.836 116.547  0.00  0.00     0.016 C 
ATOM      3  C   LIG d   1      -5.224  74.418 115.920  0.00  0.00     0.038 C 
ATOM      4  C   LIG d   1      -5.475  74.666 114.562  0.00  0.00     0.028 C 
ATOM      5  C   LIG d   1      -4.775  75.914 114.035  0.00  0.00    -0.047 C 
ATOM      6  C   LIG d   1      -3.276  75.842 114.404  0.00  0.00     0.091 C 
ENDROOT
BRANCH   1   7
ATOM      7  O   LIG d   1      -1.748  75.149 116.191  0.00  0.00    -0.368 OA
BRANCH   7   8
ATOM      8  C   LIG d   1      -1.254  74.137 115.280  0.00  0.00     0.119 C 
BRANCH   8   9
ATOM      9  C   LIG d   1      -0.914  72.888 116.117  0.00  0.00     0.028 C 
ATOM     10  C   LIG d   1      -0.773  73.206 117.615  0.00  0.00     0.006 C 
ENDBRANCH   8   9
BRANCH   8  11
ATOM     11  C   LIG d   1       0.067  74.565 114.635  0.00  0.00     0.028 C 
ATOM     12  C   LIG d   1       0.669  75.820 115.286  0.00  0.00     0.006 C 
ENDBRANCH   8  11
ENDBRANCH   7   8
ENDBRANCH   1   7
BRANCH   6  13
ATOM     13  N   LIG d   1      -2.533  77.063 113.999  0.00  0.00    -0.311 N 
ATOM     14  C   LIG d   1      -1.833  77.155 112.870  0.00  0.00     0.210 C 
ATOM     15  C   LIG d   1      -1.126  78.497 112.654  0.00  0.00     0.109 C 
ATOM     16  O   LIG d   1      -1.757  76.264 112.011  0.00  0.00    -0.276 OA
ATOM     17  H   LIG d   1      -2.566  77.845 114.623  0.00  0.00     0.149 HD
ENDBRANCH   6  13
BRANCH   5  18
ATOM     18  N   LIG d   1      -5.010  75.976 112.580  0.00  0.00     0.381 N 
ATOM     19  H   LIG d   1      -4.396  75.340 112.111  0.00  0.00    -0.090 HD
ATOM     20  H   LIG d   1      -4.808  76.906 112.258  0.00  0.00    -0.090 HD
ATOM     21  H   LIG d   1      -5.957  75.744 112.378  0.00  0.00    -0.090 HD
ENDBRANCH   5  18
BRANCH   3  22
ATOM     22  C   LIG d   1      -6.203  73.777 116.664  0.00  0.00     0.382 C 
ATOM     23  O   LIG d   1      -6.395  72.545 116.519  0.00  0.00    -0.241 OA
ATOM     24  O   LIG d   1      -6.926  74.422 117.446  0.00  0.00    -0.241 OA
ENDBRANCH   3  22
TORSDOF 7
ENDMDL
MODEL 9
REMARK VINA RESULT:      -4.8      2.484      5.858
REMARK  7 active torsions:
REMARK  status: ('A' for Active; 'I' for Inactive)
REMARK    1  A    between atoms: C_2  and  C_3 
REMARK    2  A    between atoms: C_3  and  O_6 
REMARK    3  A    between atoms: C_3  and  C_4 
REMARK    4  A    between atoms: C_7  and  O_6 
REMARK    5  A    between atoms: C_9  and  C_10 
REMARK    6  A    between atoms: N_15  and  C_14 
REMARK    7  A    between atoms: N_20  and  C_19 
REMARK       I    between atoms: C_22  and  N_20 
ROOT
ATOM      1  C   LIG d   1      -2.569  76.737 115.970  0.00  0.00     0.161 C 
ATOM      2  C   LIG d   1      -1.771  75.617 115.683  0.00  0.00     0.016 C 
ATOM      3  C   LIG d   1      -2.254  74.288 115.718  0.00  0.00     0.038 C 
ATOM      4  C   LIG d   1      -3.615  73.998 115.896  0.00  0.00     0.028 C 
ATOM      5  C   LIG d   1      -4.363  75.065 116.688  0.00  0.00    -0.047 C 
ATOM      6  C   LIG d   1      -4.082  76.448 116.058  0.00  0.00     0.091 C 
ENDROOT
BRANCH   1   7
ATOM      7  O   LIG d   1      -2.313  77.779 115.008  0.00  0.00    -0.368 OA
BRANCH   7   8
ATOM      8  C   LIG d   1      -1.592  77.382 113.816  0.00  0.00     0.119 C 
BRANCH   8   9
ATOM      9  C   LIG d   1      -0.508  78.447 113.554  0.00  0.00     0.028 C 
ATOM     10  C   LIG d   1       0.572  78.466 114.649  0.00  0.00     0.006 C 
ENDBRANCH   8   9
BRANCH   8  11
ATOM     11  C   LIG d   1      -2.497  77.413 112.581  0.00  0.00     0.028 C 
ATOM     12  C   LIG d   1      -2.476  78.771 111.861  0.00  0.00     0.006 C 
ENDBRANCH   8  11
ENDBRANCH   7   8
ENDBRANCH   1   7
BRANCH   6  13
ATOM     13  N   LIG d   1      -4.709  77.557 116.823  0.00  0.00    -0.311 N 
ATOM     14  C   LIG d   1      -5.971  77.946 116.650  0.00  0.00     0.210 C 
ATOM     15  C   LIG d   1      -6.411  79.122 117.526  0.00  0.00     0.109 C 
ATOM     16  O   LIG d   1      -6.777  77.407 115.877  0.00  0.00    -0.276 OA
ATOM     17  H   LIG d   1      -4.135  78.030 117.494  0.00  0.00     0.149 HD
ENDBRANCH   6  13
BRANCH   5  18
ATOM     18  N   LIG d   1      -5.793  74.705 116.680  0.00  0.00     0.381 N 
ATOM     19  H   LIG d   1      -5.946  73.909 117.266  0.00  0.00    -0.090 HD
ATOM     20  H   LIG d   1      -6.062  74.462 115.743  0.00  0.00    -0.090 HD
ATOM     21  H   LIG d   1      -6.340  75.473 117.002  0.00  0.00    -0.090 HD
ENDBRANCH   5  18
BRANCH   3  22
ATOM     22  C   LIG d   1      -1.363  73.231 115.613  0.00  0.00     0.382 C 
ATOM     23  O   LIG d   1      -1.087  72.541 116.624  0.00  0.00    -0.241 OA
ATOM     24  O   LIG d   1      -0.799  72.985 114.530  0.00  0.00    -0.241 OA
ENDBRANCH   3  22
TORSDOF 7
ENDMDL
