MODEL 1
REMARK VINA RESULT:      -5.4      0.000      0.000
REMARK  7 active torsions:
REMARK  status: ('A' for Active; 'I' for Inactive)
REMARK    1  A    between atoms: C_2  and  C_3 
REMARK    2  A    between atoms: C_3  and  O_6 
REMARK    3  A    between atoms: C_3  and  C_4 
REMARK    4  A    between atoms: C_7  and  O_6 
REMARK    5  A    between atoms: C_9  and  C_10 
REMARK    6  A    between atoms: N_15  and  C_14 
REMARK    7  A    between atoms: N_20  and  C_19 
REMARK       I    between atoms: C_22  and  N_20 
ROOT
ATOM      1  C   LIG d   1       2.713  87.968 114.890  0.00  0.00     0.161 C 
ATOM      2  C   LIG d   1       2.576  89.025 115.805  0.00  0.00     0.016 C 
ATOM      3  C   LIG d   1       3.402  90.172 115.798  0.00  0.00     0.038 C 
ATOM      4  C   LIG d   1       4.330  90.411 114.773  0.00  0.00     0.028 C 
ATOM      5  C   LIG d   1       4.849  89.136 114.116  0.00  0.00    -0.047 C 
ATOM      6  C   LIG d   1       3.646  88.262 113.696  0.00  0.00     0.091 C 
ENDROOT
BRANCH   1   7
ATOM      7  O   LIG d   1       1.413  87.557 114.420  0.00  0.00    -0.368 OA
BRANCH   7   8
ATOM      8  C   LIG d   1       0.935  86.278 114.904  0.00  0.00     0.119 C 
BRANCH   8   9
ATOM      9  C   LIG d   1       2.084  85.625 115.697  0.00  0.00     0.028 C 
ATOM     10  C   LIG d   1       2.475  84.247 115.136  0.00  0.00     0.006 C 
ENDBRANCH   8   9
BRANCH   8  11
ATOM     11  C   LIG d   1       0.644  85.318 113.747  0.00  0.00     0.028 C 
ATOM     12  C   LIG d   1      -0.427  85.853 112.784  0.00  0.00     0.006 C 
ENDBRANCH   8  11
ENDBRANCH   7   8
ENDBRANCH   1   7
BRANCH   6  13
ATOM     13  N   LIG d   1       4.066  86.957 113.122  0.00  0.00    -0.311 N 
ATOM     14  C   LIG d   1       3.528  86.433 112.022  0.00  0.00     0.210 C 
ATOM     15  C   LIG d   1       4.093  85.069 111.613  0.00  0.00     0.109 C 
ATOM     16  O   LIG d   1       2.659  86.983 111.329  0.00  0.00    -0.276 OA
ATOM     17  H   LIG d   1       4.788  86.458 113.604  0.00  0.00     0.149 HD
ENDBRANCH   6  13
BRANCH   5  18
ATOM     18  N   LIG d   1       5.699  89.535 112.979  0.00  0.00     0.381 N 
ATOM     19  H   LIG d   1       5.713  88.806 112.294  0.00  0.00    -0.090 HD
ATOM     20  H   LIG d   1       6.638  89.676 113.308  0.00  0.00    -0.090 HD
ATOM     21  H   LIG d   1       5.352  90.376 112.572  0.00  0.00    -0.090 HD
ENDBRANCH   5  18
BRANCH   3  22
ATOM     22  C   LIG d   1       3.332  91.076 116.847  0.00  0.00     0.382 C 
ATOM     23  O   LIG d   1       3.407  92.308 116.619  0.00  0.00    -0.241 OA
ATOM     24  O   LIG d   1       3.239  90.674 118.022  0.00  0.00    -0.241 OA
ENDBRANCH   3  22
TORSDOF 7
ENDMDL
MODEL 2
REMARK VINA RESULT:      -5.0     26.050     28.762
REMARK  7 active torsions:
REMARK  status: ('A' for Active; 'I' for Inactive)
REMARK    1  A    between atoms: C_2  and  C_3 
REMARK    2  A    between atoms: C_3  and  O_6 
REMARK    3  A    between atoms: C_3  and  C_4 
REMARK    4  A    between atoms: C_7  and  O_6 
REMARK    5  A    between atoms: C_9  and  C_10 
REMARK    6  A    between atoms: N_15  and  C_14 
REMARK    7  A    between atoms: N_20  and  C_19 
REMARK       I    between atoms: C_22  and  N_20 
ROOT
ATOM      1  C   LIG d   1     -25.618  85.542 113.245  0.00  0.00     0.161 C 
ATOM      2  C   LIG d   1     -24.522  86.403 113.424  0.00  0.00     0.016 C 
ATOM      3  C   LIG d   1     -23.217  85.950 113.721  0.00  0.00     0.038 C 
ATOM      4  C   LIG d   1     -22.885  84.587 113.711  0.00  0.00     0.028 C 
ATOM      5  C   LIG d   1     -24.063  83.674 114.034  0.00  0.00    -0.047 C 
ATOM      6  C   LIG d   1     -25.253  84.048 113.121  0.00  0.00     0.091 C 
ENDROOT
BRANCH   1   7
ATOM      7  O   LIG d   1     -26.392  85.965 112.106  0.00  0.00    -0.368 OA
BRANCH   7   8
ATOM      8  C   LIG d   1     -27.122  87.208 112.257  0.00  0.00     0.119 C 
BRANCH   8   9
ATOM      9  C   LIG d   1     -28.534  86.988 111.682  0.00  0.00     0.028 C 
ATOM     10  C   LIG d   1     -28.702  85.593 111.055  0.00  0.00     0.006 C 
ENDBRANCH   8   9
BRANCH   8  11
ATOM     11  C   LIG d   1     -26.507  88.323 111.406  0.00  0.00     0.028 C 
ATOM     12  C   LIG d   1     -27.096  89.707 111.721  0.00  0.00     0.006 C 
ENDBRANCH   8  11
ENDBRANCH   7   8
ENDBRANCH   1   7
BRANCH   6  13
ATOM     13  N   LIG d   1     -26.474  83.259 113.429  0.00  0.00    -0.311 N 
ATOM     14  C   LIG d   1     -27.094  82.489 112.536  0.00  0.00     0.210 C 
ATOM     15  C   LIG d   1     -28.347  81.778 113.056  0.00  0.00     0.109 C 
ATOM     16  O   LIG d   1     -26.708  82.303 111.373  0.00  0.00    -0.276 OA
ATOM     17  H   LIG d   1     -26.838  83.327 114.359  0.00  0.00     0.149 HD
ENDBRANCH   6  13
BRANCH   5  18
ATOM     18  N   LIG d   1     -23.610  82.282 113.853  0.00  0.00     0.381 N 
ATOM     19  H   LIG d   1     -24.211  81.812 113.205  0.00  0.00    -0.090 HD
ATOM     20  H   LIG d   1     -23.665  81.805 114.736  0.00  0.00    -0.090 HD
ATOM     21  H   LIG d   1     -22.672  82.269 113.518  0.00  0.00    -0.090 HD
ENDBRANCH   5  18
BRANCH   3  22
ATOM     22  C   LIG d   1     -22.235  86.864 114.072  0.00  0.00     0.382 C 
ATOM     23  O   LIG d   1     -21.082  86.762 113.588  0.00  0.00    -0.241 OA
ATOM     24  O   LIG d   1     -22.476  87.762 114.900  0.00  0.00    -0.241 OA
ENDBRANCH   3  22
TORSDOF 7
ENDMDL
MODEL 3
REMARK VINA RESULT:      -4.9      2.604      3.844
REMARK  7 active torsions:
REMARK  status: ('A' for Active; 'I' for Inactive)
REMARK    1  A    between atoms: C_2  and  C_3 
REMARK    2  A    between atoms: C_3  and  O_6 
REMARK    3  A    between atoms: C_3  and  C_4 
REMARK    4  A    between atoms: C_7  and  O_6 
REMARK    5  A    between atoms: C_9  and  C_10 
REMARK    6  A    between atoms: N_15  and  C_14 
REMARK    7  A    between atoms: N_20  and  C_19 
REMARK       I    between atoms: C_22  and  N_20 
ROOT
ATOM      1  C   LIG d   1       1.583  87.133 115.245  0.00  0.00     0.161 C 
ATOM      2  C   LIG d   1       0.478  86.911 116.084  0.00  0.00     0.016 C 
ATOM      3  C   LIG d   1       0.084  87.806 117.106  0.00  0.00     0.038 C 
ATOM      4  C   LIG d   1       0.683  89.065 117.260  0.00  0.00     0.028 C 
ATOM      5  C   LIG d   1       2.124  89.115 116.765  0.00  0.00    -0.047 C 
ATOM      6  C   LIG d   1       2.180  88.554 115.326  0.00  0.00     0.091 C 
ENDROOT
BRANCH   1   7
ATOM      7  O   LIG d   1       1.235  86.813 113.884  0.00  0.00    -0.368 OA
BRANCH   7   8
ATOM      8  C   LIG d   1       1.537  85.464 113.450  0.00  0.00     0.119 C 
BRANCH   8   9
ATOM      9  C   LIG d   1       3.023  85.431 113.043  0.00  0.00     0.028 C 
ATOM     10  C   LIG d   1       3.254  85.965 111.619  0.00  0.00     0.006 C 
ENDBRANCH   8   9
BRANCH   8  11
ATOM     11  C   LIG d   1       0.761  85.100 112.181  0.00  0.00     0.028 C 
ATOM     12  C   LIG d   1      -0.362  84.083 112.440  0.00  0.00     0.006 C 
ENDBRANCH   8  11
ENDBRANCH   7   8
ENDBRANCH   1   7
BRANCH   6  13
ATOM     13  N   LIG d   1       3.567  88.489 114.796  0.00  0.00    -0.311 N 
ATOM     14  C   LIG d   1       3.934  89.026 113.634  0.00  0.00     0.210 C 
ATOM     15  C   LIG d   1       5.408  88.827 113.266  0.00  0.00     0.109 C 
ATOM     16  O   LIG d   1       3.187  89.676 112.888  0.00  0.00    -0.276 OA
ATOM     17  H   LIG d   1       4.246  88.007 115.352  0.00  0.00     0.149 HD
ENDBRANCH   6  13
BRANCH   5  18
ATOM     18  N   LIG d   1       2.579  90.515 116.858  0.00  0.00     0.381 N 
ATOM     19  H   LIG d   1       2.040  91.088 116.240  0.00  0.00    -0.090 HD
ATOM     20  H   LIG d   1       3.541  90.564 116.573  0.00  0.00    -0.090 HD
ATOM     21  H   LIG d   1       2.484  90.843 117.794  0.00  0.00    -0.090 HD
ENDBRANCH   5  18
BRANCH   3  22
ATOM     22  C   LIG d   1      -0.893  87.425 118.013  0.00  0.00     0.382 C 
ATOM     23  O   LIG d   1      -0.657  86.516 118.845  0.00  0.00    -0.241 OA
ATOM     24  O   LIG d   1      -2.023  87.949 117.980  0.00  0.00    -0.241 OA
ENDBRANCH   3  22
TORSDOF 7
ENDMDL
MODEL 4
REMARK VINA RESULT:      -4.8      3.227      4.394
REMARK  7 active torsions:
REMARK  status: ('A' for Active; 'I' for Inactive)
REMARK    1  A    between atoms: C_2  and  C_3 
REMARK    2  A    between atoms: C_3  and  O_6 
REMARK    3  A    between atoms: C_3  and  C_4 
REMARK    4  A    between atoms: C_7  and  O_6 
REMARK    5  A    between atoms: C_9  and  C_10 
REMARK    6  A    between atoms: N_15  and  C_14 
REMARK    7  A    between atoms: N_20  and  C_19 
REMARK       I    between atoms: C_22  and  N_20 
ROOT
ATOM      1  C   LIG d   1       3.980  85.069 112.981  0.00  0.00     0.161 C 
ATOM      2  C   LIG d   1       4.435  86.371 113.248  0.00  0.00     0.016 C 
ATOM      3  C   LIG d   1       3.752  87.535 112.829  0.00  0.00     0.038 C 
ATOM      4  C   LIG d   1       2.479  87.477 112.241  0.00  0.00     0.028 C 
ATOM      5  C   LIG d   1       2.214  86.172 111.500  0.00  0.00    -0.047 C 
ATOM      6  C   LIG d   1       2.538  84.987 112.438  0.00  0.00     0.091 C 
ENDROOT
BRANCH   1   7
ATOM      7  O   LIG d   1       4.118  84.251 114.160  0.00  0.00    -0.368 OA
BRANCH   7   8
ATOM      8  C   LIG d   1       4.040  84.944 115.429  0.00  0.00     0.119 C 
BRANCH   8   9
ATOM      9  C   LIG d   1       5.206  84.443 116.304  0.00  0.00     0.028 C 
ATOM     10  C   LIG d   1       5.457  85.347 117.522  0.00  0.00     0.006 C 
ENDBRANCH   8   9
BRANCH   8  11
ATOM     11  C   LIG d   1       2.768  84.566 116.194  0.00  0.00     0.028 C 
ATOM     12  C   LIG d   1       2.399  83.082 116.039  0.00  0.00     0.006 C 
ENDBRANCH   8  11
ENDBRANCH   7   8
ENDBRANCH   1   7
BRANCH   6  13
ATOM     13  N   LIG d   1       2.385  83.671 111.763  0.00  0.00    -0.311 N 
ATOM     14  C   LIG d   1       1.456  82.778 112.100  0.00  0.00     0.210 C 
ATOM     15  C   LIG d   1       1.486  81.478 111.290  0.00  0.00     0.109 C 
ATOM     16  O   LIG d   1       0.590  82.952 112.970  0.00  0.00    -0.276 OA
ATOM     17  H   LIG d   1       3.027  83.461 111.024  0.00  0.00     0.149 HD
ENDBRANCH   6  13
BRANCH   5  18
ATOM     18  N   LIG d   1       0.807  86.190 111.055  0.00  0.00     0.381 N 
ATOM     19  H   LIG d   1       0.203  86.279 111.847  0.00  0.00    -0.090 HD
ATOM     20  H   LIG d   1       0.600  85.320 110.596  0.00  0.00    -0.090 HD
ATOM     21  H   LIG d   1       0.658  86.949 110.427  0.00  0.00    -0.090 HD
ENDBRANCH   5  18
BRANCH   3  22
ATOM     22  C   LIG d   1       4.360  88.774 112.962  0.00  0.00     0.382 C 
ATOM     23  O   LIG d   1       3.662  89.797 113.161  0.00  0.00    -0.241 OA
ATOM     24  O   LIG d   1       5.595  88.888 112.840  0.00  0.00    -0.241 OA
ENDBRANCH   3  22
TORSDOF 7
ENDMDL
MODEL 5
REMARK VINA RESULT:      -4.8      1.985      5.140
REMARK  7 active torsions:
REMARK  status: ('A' for Active; 'I' for Inactive)
REMARK    1  A    between atoms: C_2  and  C_3 
REMARK    2  A    between atoms: C_3  and  O_6 
REMARK    3  A    between atoms: C_3  and  C_4 
REMARK    4  A    between atoms: C_7  and  O_6 
REMARK    5  A    between atoms: C_9  and  C_10 
REMARK    6  A    between atoms: N_15  and  C_14 
REMARK    7  A    between atoms: N_20  and  C_19 
REMARK       I    between atoms: C_22  and  N_20 
ROOT
ATOM      1  C   LIG d   1       2.918  87.841 114.941  0.00  0.00     0.161 C 
ATOM      2  C   LIG d   1       2.936  86.747 114.061  0.00  0.00     0.016 C 
ATOM      3  C   LIG d   1       3.791  86.666 112.937  0.00  0.00     0.038 C 
ATOM      4  C   LIG d   1       4.798  87.614 112.703  0.00  0.00     0.028 C 
ATOM      5  C   LIG d   1       4.482  88.989 113.279  0.00  0.00    -0.047 C 
ATOM      6  C   LIG d   1       4.087  88.832 114.765  0.00  0.00     0.091 C 
ENDROOT
BRANCH   1   7
ATOM      7  O   LIG d   1       2.860  87.371 116.303  0.00  0.00    -0.368 OA
BRANCH   7   8
ATOM      8  C   LIG d   1       1.586  86.836 116.739  0.00  0.00     0.119 C 
BRANCH   8   9
ATOM      9  C   LIG d   1       0.666  88.030 117.056  0.00  0.00     0.028 C 
ATOM     10  C   LIG d   1       1.328  89.047 118.001  0.00  0.00     0.006 C 
ENDBRANCH   8   9
BRANCH   8  11
ATOM     11  C   LIG d   1       1.726  86.070 118.058  0.00  0.00     0.028 C 
ATOM     12  C   LIG d   1       0.385  85.528 118.577  0.00  0.00     0.006 C 
ENDBRANCH   8  11
ENDBRANCH   7   8
ENDBRANCH   1   7
BRANCH   6  13
ATOM     13  N   LIG d   1       3.680  90.121 115.383  0.00  0.00    -0.311 N 
ATOM     14  C   LIG d   1       4.321  90.676 116.410  0.00  0.00     0.210 C 
ATOM     15  C   LIG d   1       3.724  91.997 116.907  0.00  0.00     0.109 C 
ATOM     16  O   LIG d   1       5.346  90.217 116.937  0.00  0.00    -0.276 OA
ATOM     17  H   LIG d   1       2.877  90.579 114.998  0.00  0.00     0.149 HD
ENDBRANCH   6  13
BRANCH   5  18
ATOM     18  N   LIG d   1       5.672  89.839 113.084  0.00  0.00     0.381 N 
ATOM     19  H   LIG d   1       6.192  89.517 112.292  0.00  0.00    -0.090 HD
ATOM     20  H   LIG d   1       6.259  89.768 113.896  0.00  0.00    -0.090 HD
ATOM     21  H   LIG d   1       5.396  90.786 112.945  0.00  0.00    -0.090 HD
ENDBRANCH   5  18
BRANCH   3  22
ATOM     22  C   LIG d   1       3.615  85.649 112.011  0.00  0.00     0.382 C 
ATOM     23  O   LIG d   1       2.817  85.802 111.055  0.00  0.00    -0.241 OA
ATOM     24  O   LIG d   1       4.211  84.563 112.145  0.00  0.00    -0.241 OA
ENDBRANCH   3  22
TORSDOF 7
ENDMDL
MODEL 6
REMARK VINA RESULT:      -4.7      1.974      5.148
REMARK  7 active torsions:
REMARK  status: ('A' for Active; 'I' for Inactive)
REMARK    1  A    between atoms: C_2  and  C_3 
REMARK    2  A    between atoms: C_3  and  O_6 
REMARK    3  A    between atoms: C_3  and  C_4 
REMARK    4  A    between atoms: C_7  and  O_6 
REMARK    5  A    between atoms: C_9  and  C_10 
REMARK    6  A    between atoms: N_15  and  C_14 
REMARK    7  A    between atoms: N_20  and  C_19 
REMARK       I    between atoms: C_22  and  N_20 
ROOT
ATOM      1  C   LIG d   1       2.729  87.849 114.920  0.00  0.00     0.161 C 
ATOM      2  C   LIG d   1       2.803  86.750 114.048  0.00  0.00     0.016 C 
ATOM      3  C   LIG d   1       3.714  86.672 112.970  0.00  0.00     0.038 C 
ATOM      4  C   LIG d   1       4.723  87.628 112.781  0.00  0.00     0.028 C 
ATOM      5  C   LIG d   1       4.365  89.004 113.333  0.00  0.00    -0.047 C 
ATOM      6  C   LIG d   1       3.896  88.851 114.798  0.00  0.00     0.091 C 
ENDROOT
BRANCH   1   7
ATOM      7  O   LIG d   1       2.607  87.386 116.280  0.00  0.00    -0.368 OA
BRANCH   7   8
ATOM      8  C   LIG d   1       3.390  86.219 116.629  0.00  0.00     0.119 C 
BRANCH   8   9
ATOM      9  C   LIG d   1       2.525  85.339 117.552  0.00  0.00     0.028 C 
ATOM     10  C   LIG d   1       1.866  84.171 116.801  0.00  0.00     0.006 C 
ENDBRANCH   8   9
BRANCH   8  11
ATOM     11  C   LIG d   1       4.617  86.600 117.463  0.00  0.00     0.028 C 
ATOM     12  C   LIG d   1       5.933  86.086 116.858  0.00  0.00     0.006 C 
ENDBRANCH   8  11
ENDBRANCH   7   8
ENDBRANCH   1   7
BRANCH   6  13
ATOM     13  N   LIG d   1       3.447  90.139 115.387  0.00  0.00    -0.311 N 
ATOM     14  C   LIG d   1       4.019  90.698 116.452  0.00  0.00     0.210 C 
ATOM     15  C   LIG d   1       3.387  92.017 116.908  0.00  0.00     0.109 C 
ATOM     16  O   LIG d   1       5.011  90.243 117.042  0.00  0.00    -0.276 OA
ATOM     17  H   LIG d   1       2.668  90.593 114.951  0.00  0.00     0.149 HD
ENDBRANCH   6  13
BRANCH   5  18
ATOM     18  N   LIG d   1       5.555  89.864 113.193  0.00  0.00     0.381 N 
ATOM     19  H   LIG d   1       6.313  89.334 112.811  0.00  0.00    -0.090 HD
ATOM     20  H   LIG d   1       5.827  90.192 114.103  0.00  0.00    -0.090 HD
ATOM     21  H   LIG d   1       5.349  90.638 112.601  0.00  0.00    -0.090 HD
ENDBRANCH   5  18
BRANCH   3  22
ATOM     22  C   LIG d   1       3.595  85.648 112.042  0.00  0.00     0.382 C 
ATOM     23  O   LIG d   1       2.831  85.782 111.056  0.00  0.00    -0.241 OA
ATOM     24  O   LIG d   1       4.208  84.576 112.203  0.00  0.00    -0.241 OA
ENDBRANCH   3  22
TORSDOF 7
ENDMDL
MODEL 7
REMARK VINA RESULT:      -4.7     25.772     28.431
REMARK  7 active torsions:
REMARK  status: ('A' for Active; 'I' for Inactive)
REMARK    1  A    between atoms: C_2  and  C_3 
REMARK    2  A    between atoms: C_3  and  O_6 
REMARK    3  A    between atoms: C_3  and  C_4 
REMARK    4  A    between atoms: C_7  and  O_6 
REMARK    5  A    between atoms: C_9  and  C_10 
REMARK    6  A    between atoms: N_15  and  C_14 
REMARK    7  A    between atoms: N_20  and  C_19 
REMARK       I    between atoms: C_22  and  N_20 
ROOT
ATOM      1  C   LIG d   1     -25.317  85.368 114.777  0.00  0.00     0.161 C 
ATOM      2  C   LIG d   1     -24.353  86.389 114.733  0.00  0.00     0.016 C 
ATOM      3  C   LIG d   1     -23.082  86.234 114.132  0.00  0.00     0.038 C 
ATOM      4  C   LIG d   1     -22.745  85.089 113.396  0.00  0.00     0.028 C 
ATOM      5  C   LIG d   1     -23.495  83.839 113.844  0.00  0.00    -0.047 C 
ATOM      6  C   LIG d   1     -25.009  84.149 113.883  0.00  0.00     0.091 C 
ENDROOT
BRANCH   1   7
ATOM      7  O   LIG d   1     -26.615  85.907 114.459  0.00  0.00    -0.368 OA
BRANCH   7   8
ATOM      8  C   LIG d   1     -27.036  85.782 113.078  0.00  0.00     0.119 C 
BRANCH   8   9
ATOM      9  C   LIG d   1     -27.068  87.199 112.473  0.00  0.00     0.028 C 
ATOM     10  C   LIG d   1     -26.082  87.360 111.305  0.00  0.00     0.006 C 
ENDBRANCH   8   9
BRANCH   8  11
ATOM     11  C   LIG d   1     -28.475  85.266 112.980  0.00  0.00     0.028 C 
ATOM     12  C   LIG d   1     -28.990  84.680 114.304  0.00  0.00     0.006 C 
ENDBRANCH   8  11
ENDBRANCH   7   8
ENDBRANCH   1   7
BRANCH   6  13
ATOM     13  N   LIG d   1     -25.809  83.004 114.392  0.00  0.00    -0.311 N 
ATOM     14  C   LIG d   1     -26.397  82.111 113.598  0.00  0.00     0.210 C 
ATOM     15  C   LIG d   1     -27.190  81.022 114.327  0.00  0.00     0.109 C 
ATOM     16  O   LIG d   1     -26.310  82.098 112.361  0.00  0.00    -0.276 OA
ATOM     17  H   LIG d   1     -25.905  82.921 115.385  0.00  0.00     0.149 HD
ENDBRANCH   6  13
BRANCH   5  18
ATOM     18  N   LIG d   1     -23.151  82.753 112.906  0.00  0.00     0.381 N 
ATOM     19  H   LIG d   1     -23.135  83.106 111.970  0.00  0.00    -0.090 HD
ATOM     20  H   LIG d   1     -23.857  82.040 112.962  0.00  0.00    -0.090 HD
ATOM     21  H   LIG d   1     -22.262  82.369 113.140  0.00  0.00    -0.090 HD
ENDBRANCH   5  18
BRANCH   3  22
ATOM     22  C   LIG d   1     -22.119  87.218 114.298  0.00  0.00     0.382 C 
ATOM     23  O   LIG d   1     -22.386  88.252 114.957  0.00  0.00    -0.241 OA
ATOM     24  O   LIG d   1     -21.002  87.105 113.760  0.00  0.00    -0.241 OA
ENDBRANCH   3  22
TORSDOF 7
ENDMDL
MODEL 8
REMARK VINA RESULT:      -4.4     25.713     27.993
REMARK  7 active torsions:
REMARK  status: ('A' for Active; 'I' for Inactive)
REMARK    1  A    between atoms: C_2  and  C_3 
REMARK    2  A    between atoms: C_3  and  O_6 
REMARK    3  A    between atoms: C_3  and  C_4 
REMARK    4  A    between atoms: C_7  and  O_6 
REMARK    5  A    between atoms: C_9  and  C_10 
REMARK    6  A    between atoms: N_15  and  C_14 
REMARK    7  A    between atoms: N_20  and  C_19 
REMARK       I    between atoms: C_22  and  N_20 
ROOT
ATOM      1  C   LIG d   1     -25.011  85.526 116.236  0.00  0.00     0.161 C 
ATOM      2  C   LIG d   1     -23.816  85.340 115.521  0.00  0.00     0.016 C 
ATOM      3  C   LIG d   1     -23.362  86.228 114.519  0.00  0.00     0.038 C 
ATOM      4  C   LIG d   1     -24.001  87.452 114.269  0.00  0.00     0.028 C 
ATOM      5  C   LIG d   1     -25.487  87.441 114.613  0.00  0.00    -0.047 C 
ATOM      6  C   LIG d   1     -25.664  86.912 116.054  0.00  0.00     0.091 C 
ENDROOT
BRANCH   1   7
ATOM      7  O   LIG d   1     -24.790  85.255 117.635  0.00  0.00    -0.368 OA
BRANCH   7   8
ATOM      8  C   LIG d   1     -23.407  85.166 118.056  0.00  0.00     0.119 C 
BRANCH   8   9
ATOM      9  C   LIG d   1     -23.264  83.887 118.905  0.00  0.00     0.028 C 
ATOM     10  C   LIG d   1     -22.841  82.670 118.065  0.00  0.00     0.006 C 
ENDBRANCH   8   9
BRANCH   8  11
ATOM     11  C   LIG d   1     -23.034  86.318 118.993  0.00  0.00     0.028 C 
ATOM     12  C   LIG d   1     -22.573  87.575 118.238  0.00  0.00     0.006 C 
ENDBRANCH   8  11
ENDBRANCH   7   8
ENDBRANCH   1   7
BRANCH   6  13
ATOM     13  N   LIG d   1     -27.094  86.790 116.441  0.00  0.00    -0.311 N 
ATOM     14  C   LIG d   1     -27.666  87.541 117.381  0.00  0.00     0.210 C 
ATOM     15  C   LIG d   1     -29.145  87.239 117.638  0.00  0.00     0.109 C 
ATOM     16  O   LIG d   1     -27.097  88.451 118.002  0.00  0.00    -0.276 OA
ATOM     17  H   LIG d   1     -27.637  86.097 115.965  0.00  0.00     0.149 HD
ENDBRANCH   6  13
BRANCH   5  18
ATOM     18  N   LIG d   1     -25.996  88.814 114.434  0.00  0.00     0.381 N 
ATOM     19  H   LIG d   1     -25.732  89.377 115.218  0.00  0.00    -0.090 HD
ATOM     20  H   LIG d   1     -26.999  88.785 114.389  0.00  0.00    -0.090 HD
ATOM     21  H   LIG d   1     -25.629  89.207 113.595  0.00  0.00    -0.090 HD
ENDBRANCH   5  18
BRANCH   3  22
ATOM     22  C   LIG d   1     -22.279  85.877 113.728  0.00  0.00     0.382 C 
ATOM     23  O   LIG d   1     -21.340  86.690 113.553  0.00  0.00    -0.241 OA
ATOM     24  O   LIG d   1     -22.250  84.773 113.152  0.00  0.00    -0.241 OA
ENDBRANCH   3  22
TORSDOF 7
ENDMDL
MODEL 9
REMARK VINA RESULT:      -4.3     25.709     28.635
REMARK  7 active torsions:
REMARK  status: ('A' for Active; 'I' for Inactive)
REMARK    1  A    between atoms: C_2  and  C_3 
REMARK    2  A    between atoms: C_3  and  O_6 
REMARK    3  A    between atoms: C_3  and  C_4 
REMARK    4  A    between atoms: C_7  and  O_6 
REMARK    5  A    between atoms: C_9  and  C_10 
REMARK    6  A    between atoms: N_15  and  C_14 
REMARK    7  A    between atoms: N_20  and  C_19 
REMARK       I    between atoms: C_22  and  N_20 
ROOT
ATOM      1  C   LIG d   1     -24.405  84.891 112.805  0.00  0.00     0.161 C 
ATOM      2  C   LIG d   1     -25.250  83.771 112.734  0.00  0.00     0.016 C 
ATOM      3  C   LIG d   1     -25.581  82.973 113.853  0.00  0.00     0.038 C 
ATOM      4  C   LIG d   1     -25.208  83.333 115.156  0.00  0.00     0.028 C 
ATOM      5  C   LIG d   1     -23.936  84.172 115.212  0.00  0.00    -0.047 C 
ATOM      6  C   LIG d   1     -24.078  85.363 114.237  0.00  0.00     0.091 C 
ENDROOT
BRANCH   1   7
ATOM      7  O   LIG d   1     -24.963  85.974 112.035  0.00  0.00    -0.368 OA
BRANCH   7   8
ATOM      8  C   LIG d   1     -26.182  86.562 112.553  0.00  0.00     0.119 C 
BRANCH   8   9
ATOM      9  C   LIG d   1     -27.199  86.614 111.396  0.00  0.00     0.028 C 
ATOM     10  C   LIG d   1     -28.328  85.583 111.560  0.00  0.00     0.006 C 
ENDBRANCH   8   9
BRANCH   8  11
ATOM     11  C   LIG d   1     -25.965  88.020 112.968  0.00  0.00     0.028 C 
ATOM     12  C   LIG d   1     -26.631  89.018 112.009  0.00  0.00     0.006 C 
ENDBRANCH   8  11
ENDBRANCH   7   8
ENDBRANCH   1   7
BRANCH   6  13
ATOM     13  N   LIG d   1     -22.844  86.189 114.167  0.00  0.00    -0.311 N 
ATOM     14  C   LIG d   1     -22.632  87.256 114.935  0.00  0.00     0.210 C 
ATOM     15  C   LIG d   1     -21.302  87.977 114.687  0.00  0.00     0.109 C 
ATOM     16  O   LIG d   1     -23.403  87.656 115.819  0.00  0.00    -0.276 OA
ATOM     17  H   LIG d   1     -22.151  85.917 113.498  0.00  0.00     0.149 HD
ENDBRANCH   6  13
BRANCH   5  18
ATOM     18  N   LIG d   1     -23.739  84.591 116.613  0.00  0.00     0.381 N 
ATOM     19  H   LIG d   1     -22.783  84.458 116.875  0.00  0.00    -0.090 HD
ATOM     20  H   LIG d   1     -24.312  84.018 117.207  0.00  0.00    -0.090 HD
ATOM     21  H   LIG d   1     -23.991  85.549 116.720  0.00  0.00    -0.090 HD
ENDBRANCH   5  18
BRANCH   3  22
ATOM     22  C   LIG d   1     -26.261  81.778 113.669  0.00  0.00     0.382 C 
ATOM     23  O   LIG d   1     -26.280  80.920 114.584  0.00  0.00    -0.241 OA
ATOM     24  O   LIG d   1     -26.818  81.530 112.583  0.00  0.00    -0.241 OA
ENDBRANCH   3  22
TORSDOF 7
ENDMDL
