MODEL 1
REMARK VINA RESULT:      -5.1      0.000      0.000
REMARK  7 active torsions:
REMARK  status: ('A' for Active; 'I' for Inactive)
REMARK    1  A    between atoms: C_2  and  C_3 
REMARK    2  A    between atoms: C_3  and  O_6 
REMARK    3  A    between atoms: C_3  and  C_4 
REMARK    4  A    between atoms: C_7  and  O_6 
REMARK    5  A    between atoms: C_9  and  C_10 
REMARK    6  A    between atoms: N_15  and  C_14 
REMARK    7  A    between atoms: N_20  and  C_19 
REMARK       I    between atoms: C_22  and  N_20 
ROOT
ATOM      1  C   LIG d   1      -2.047  75.446 115.412  0.00  0.00     0.161 C 
ATOM      2  C   LIG d   1      -1.701  74.879 116.650  0.00  0.00     0.016 C 
ATOM      3  C   LIG d   1      -1.004  75.580 117.660  0.00  0.00     0.038 C 
ATOM      4  C   LIG d   1      -0.736  76.953 117.558  0.00  0.00     0.028 C 
ATOM      5  C   LIG d   1      -0.618  77.443 116.119  0.00  0.00    -0.047 C 
ATOM      6  C   LIG d   1      -1.861  76.975 115.327  0.00  0.00     0.091 C 
ENDROOT
BRANCH   1   7
ATOM      7  O   LIG d   1      -3.400  75.086 115.071  0.00  0.00    -0.368 OA
BRANCH   7   8
ATOM      8  C   LIG d   1      -4.283  74.797 116.183  0.00  0.00     0.119 C 
BRANCH   8   9
ATOM      9  C   LIG d   1      -5.257  73.694 115.726  0.00  0.00     0.028 C 
ATOM     10  C   LIG d   1      -6.454  73.537 116.678  0.00  0.00     0.006 C 
ENDBRANCH   8   9
BRANCH   8  11
ATOM     11  C   LIG d   1      -5.165  76.002 116.522  0.00  0.00     0.028 C 
ATOM     12  C   LIG d   1      -4.749  76.695 117.829  0.00  0.00     0.006 C 
ENDBRANCH   8  11
ENDBRANCH   7   8
ENDBRANCH   1   7
BRANCH   6  13
ATOM     13  N   LIG d   1      -1.786  77.340 113.888  0.00  0.00    -0.311 N 
ATOM     14  C   LIG d   1      -2.322  78.450 113.385  0.00  0.00     0.210 C 
ATOM     15  C   LIG d   1      -2.148  78.624 111.873  0.00  0.00     0.109 C 
ATOM     16  O   LIG d   1      -2.897  79.323 114.052  0.00  0.00    -0.276 OA
ATOM     17  H   LIG d   1      -1.310  76.703 113.280  0.00  0.00     0.149 HD
ENDBRANCH   6  13
BRANCH   5  18
ATOM     18  N   LIG d   1      -0.476  78.911 116.157  0.00  0.00     0.381 N 
ATOM     19  H   LIG d   1      -1.338  79.327 116.449  0.00  0.00    -0.090 HD
ATOM     20  H   LIG d   1      -0.263  79.241 115.233  0.00  0.00    -0.090 HD
ATOM     21  H   LIG d   1       0.254  79.166 116.786  0.00  0.00    -0.090 HD
ENDBRANCH   5  18
BRANCH   3  22
ATOM     22  C   LIG d   1      -0.532  74.897 118.771  0.00  0.00     0.382 C 
ATOM     23  O   LIG d   1      -1.235  74.006 119.304  0.00  0.00    -0.241 OA
ATOM     24  O   LIG d   1       0.570  75.192 119.272  0.00  0.00    -0.241 OA
ENDBRANCH   3  22
TORSDOF 7
ENDMDL
MODEL 2
REMARK VINA RESULT:      -5.0      2.654      4.824
REMARK  7 active torsions:
REMARK  status: ('A' for Active; 'I' for Inactive)
REMARK    1  A    between atoms: C_2  and  C_3 
REMARK    2  A    between atoms: C_3  and  O_6 
REMARK    3  A    between atoms: C_3  and  C_4 
REMARK    4  A    between atoms: C_7  and  O_6 
REMARK    5  A    between atoms: C_9  and  C_10 
REMARK    6  A    between atoms: N_15  and  C_14 
REMARK    7  A    between atoms: N_20  and  C_19 
REMARK       I    between atoms: C_22  and  N_20 
ROOT
ATOM      1  C   LIG d   1      -4.394  76.434 117.917  0.00  0.00     0.161 C 
ATOM      2  C   LIG d   1      -5.561  77.195 117.737  0.00  0.00     0.016 C 
ATOM      3  C   LIG d   1      -5.553  78.548 117.327  0.00  0.00     0.038 C 
ATOM      4  C   LIG d   1      -4.376  79.193 116.921  0.00  0.00     0.028 C 
ATOM      5  C   LIG d   1      -3.118  78.621 117.567  0.00  0.00    -0.047 C 
ATOM      6  C   LIG d   1      -3.106  77.088 117.371  0.00  0.00     0.091 C 
ENDROOT
BRANCH   1   7
ATOM      7  O   LIG d   1      -4.571  75.123 117.345  0.00  0.00    -0.368 OA
BRANCH   7   8
ATOM      8  C   LIG d   1      -5.761  74.935 116.539  0.00  0.00     0.119 C 
BRANCH   8   9
ATOM      9  C   LIG d   1      -6.448  73.643 117.022  0.00  0.00     0.028 C 
ATOM     10  C   LIG d   1      -6.112  72.433 116.134  0.00  0.00     0.006 C 
ENDBRANCH   8   9
BRANCH   8  11
ATOM     11  C   LIG d   1      -5.405  74.681 115.071  0.00  0.00     0.028 C 
ATOM     12  C   LIG d   1      -5.816  75.840 114.149  0.00  0.00     0.006 C 
ENDBRANCH   8  11
ENDBRANCH   7   8
ENDBRANCH   1   7
BRANCH   6  13
ATOM     13  N   LIG d   1      -1.952  76.439 118.046  0.00  0.00    -0.311 N 
ATOM     14  C   LIG d   1      -0.797  76.180 117.435  0.00  0.00     0.210 C 
ATOM     15  C   LIG d   1       0.255  75.488 118.308  0.00  0.00     0.109 C 
ATOM     16  O   LIG d   1      -0.532  76.486 116.263  0.00  0.00    -0.276 OA
ATOM     17  H   LIG d   1      -2.069  76.185 119.007  0.00  0.00     0.149 HD
ENDBRANCH   6  13
BRANCH   5  18
ATOM     18  N   LIG d   1      -1.957  79.291 116.952  0.00  0.00     0.381 N 
ATOM     19  H   LIG d   1      -1.127  78.761 117.128  0.00  0.00    -0.090 HD
ATOM     20  H   LIG d   1      -1.846  80.198 117.370  0.00  0.00    -0.090 HD
ATOM     21  H   LIG d   1      -2.098  79.385 115.970  0.00  0.00    -0.090 HD
ENDBRANCH   5  18
BRANCH   3  22
ATOM     22  C   LIG d   1      -6.729  79.282 117.360  0.00  0.00     0.382 C 
ATOM     23  O   LIG d   1      -7.819  78.710 117.600  0.00  0.00    -0.241 OA
ATOM     24  O   LIG d   1      -6.719  80.502 117.108  0.00  0.00    -0.241 OA
ENDBRANCH   3  22
TORSDOF 7
ENDMDL
MODEL 3
REMARK VINA RESULT:      -4.9      8.518     11.644
REMARK  7 active torsions:
REMARK  status: ('A' for Active; 'I' for Inactive)
REMARK    1  A    between atoms: C_2  and  C_3 
REMARK    2  A    between atoms: C_3  and  O_6 
REMARK    3  A    between atoms: C_3  and  C_4 
REMARK    4  A    between atoms: C_7  and  O_6 
REMARK    5  A    between atoms: C_9  and  C_10 
REMARK    6  A    between atoms: N_15  and  C_14 
REMARK    7  A    between atoms: N_20  and  C_19 
REMARK       I    between atoms: C_22  and  N_20 
ROOT
ATOM      1  C   LIG d   1       3.701  84.707 112.857  0.00  0.00     0.161 C 
ATOM      2  C   LIG d   1       4.144  86.025 113.058  0.00  0.00     0.016 C 
ATOM      3  C   LIG d   1       3.419  87.163 112.635  0.00  0.00     0.038 C 
ATOM      4  C   LIG d   1       2.121  87.063 112.113  0.00  0.00     0.028 C 
ATOM      5  C   LIG d   1       1.844  85.728 111.429  0.00  0.00    -0.047 C 
ATOM      6  C   LIG d   1       2.236  84.582 112.389  0.00  0.00     0.091 C 
ENDROOT
BRANCH   1   7
ATOM      7  O   LIG d   1       3.913  83.933 114.054  0.00  0.00    -0.368 OA
BRANCH   7   8
ATOM      8  C   LIG d   1       3.122  84.312 115.207  0.00  0.00     0.119 C 
BRANCH   8   9
ATOM      9  C   LIG d   1       4.093  84.528 116.384  0.00  0.00     0.028 C 
ATOM     10  C   LIG d   1       5.523  84.066 116.057  0.00  0.00     0.006 C 
ENDBRANCH   8   9
BRANCH   8  11
ATOM     11  C   LIG d   1       2.197  83.174 115.648  0.00  0.00     0.028 C 
ATOM     12  C   LIG d   1       2.683  81.794 115.175  0.00  0.00     0.006 C 
ENDBRANCH   8  11
ENDBRANCH   7   8
ENDBRANCH   1   7
BRANCH   6  13
ATOM     13  N   LIG d   1       2.075  83.242 111.767  0.00  0.00    -0.311 N 
ATOM     14  C   LIG d   1       0.979  82.497 111.904  0.00  0.00     0.210 C 
ATOM     15  C   LIG d   1       1.029  81.138 111.197  0.00  0.00     0.109 C 
ATOM     16  O   LIG d   1      -0.041  82.845 112.517  0.00  0.00    -0.276 OA
ATOM     17  H   LIG d   1       2.843  82.895 111.227  0.00  0.00     0.149 HD
ENDBRANCH   6  13
BRANCH   5  18
ATOM     18  N   LIG d   1       0.417  85.707 111.055  0.00  0.00     0.381 N 
ATOM     19  H   LIG d   1       0.243  86.390 110.345  0.00  0.00    -0.090 HD
ATOM     20  H   LIG d   1      -0.134  85.943 111.862  0.00  0.00    -0.090 HD
ATOM     21  H   LIG d   1       0.165  84.802 110.724  0.00  0.00    -0.090 HD
ENDBRANCH   5  18
BRANCH   3  22
ATOM     22  C   LIG d   1       4.010  88.415 112.695  0.00  0.00     0.382 C 
ATOM     23  O   LIG d   1       3.304  89.433 112.894  0.00  0.00    -0.241 OA
ATOM     24  O   LIG d   1       5.235  88.546 112.510  0.00  0.00    -0.241 OA
ENDBRANCH   3  22
TORSDOF 7
ENDMDL
MODEL 4
REMARK VINA RESULT:      -4.9      2.708      4.956
REMARK  7 active torsions:
REMARK  status: ('A' for Active; 'I' for Inactive)
REMARK    1  A    between atoms: C_2  and  C_3 
REMARK    2  A    between atoms: C_3  and  O_6 
REMARK    3  A    between atoms: C_3  and  C_4 
REMARK    4  A    between atoms: C_7  and  O_6 
REMARK    5  A    between atoms: C_9  and  C_10 
REMARK    6  A    between atoms: N_15  and  C_14 
REMARK    7  A    between atoms: N_20  and  C_19 
REMARK       I    between atoms: C_22  and  N_20 
ROOT
ATOM      1  C   LIG d   1      -4.927  76.725 117.941  0.00  0.00     0.161 C 
ATOM      2  C   LIG d   1      -5.652  77.926 118.028  0.00  0.00     0.016 C 
ATOM      3  C   LIG d   1      -5.191  79.153 117.497  0.00  0.00     0.038 C 
ATOM      4  C   LIG d   1      -4.036  79.231 116.705  0.00  0.00     0.028 C 
ATOM      5  C   LIG d   1      -3.013  78.144 117.017  0.00  0.00    -0.047 C 
ATOM      6  C   LIG d   1      -3.718  76.768 116.984  0.00  0.00     0.091 C 
ENDROOT
BRANCH   1   7
ATOM      7  O   LIG d   1      -5.812  75.646 117.582  0.00  0.00    -0.368 OA
BRANCH   7   8
ATOM      8  C   LIG d   1      -5.721  75.175 116.215  0.00  0.00     0.119 C 
BRANCH   8   9
ATOM      9  C   LIG d   1      -6.878  75.817 115.425  0.00  0.00     0.028 C 
ATOM     10  C   LIG d   1      -6.474  76.187 113.988  0.00  0.00     0.006 C 
ENDBRANCH   8   9
BRANCH   8  11
ATOM     11  C   LIG d   1      -5.960  73.664 116.128  0.00  0.00     0.028 C 
ATOM     12  C   LIG d   1      -6.849  73.136 117.265  0.00  0.00     0.006 C 
ENDBRANCH   8  11
ENDBRANCH   7   8
ENDBRANCH   1   7
BRANCH   6  13
ATOM     13  N   LIG d   1      -2.807  75.656 117.361  0.00  0.00    -0.311 N 
ATOM     14  C   LIG d   1      -2.163  74.902 116.472  0.00  0.00     0.210 C 
ATOM     15  C   LIG d   1      -1.290  73.796 117.073  0.00  0.00     0.109 C 
ATOM     16  O   LIG d   1      -2.208  75.064 115.243  0.00  0.00    -0.276 OA
ATOM     17  H   LIG d   1      -2.688  75.475 118.339  0.00  0.00     0.149 HD
ENDBRANCH   6  13
BRANCH   5  18
ATOM     18  N   LIG d   1      -1.924  78.260 116.029  0.00  0.00     0.381 N 
ATOM     19  H   LIG d   1      -1.775  79.222 115.800  0.00  0.00    -0.090 HD
ATOM     20  H   LIG d   1      -2.193  77.775 115.191  0.00  0.00    -0.090 HD
ATOM     21  H   LIG d   1      -1.087  77.865 116.396  0.00  0.00    -0.090 HD
ENDBRANCH   5  18
BRANCH   3  22
ATOM     22  C   LIG d   1      -5.869  80.326 117.791  0.00  0.00     0.382 C 
ATOM     23  O   LIG d   1      -5.592  80.966 118.834  0.00  0.00    -0.241 OA
ATOM     24  O   LIG d   1      -6.785  80.730 117.049  0.00  0.00    -0.241 OA
ENDBRANCH   3  22
TORSDOF 7
ENDMDL
MODEL 5
REMARK VINA RESULT:      -4.8      3.199      5.141
REMARK  7 active torsions:
REMARK  status: ('A' for Active; 'I' for Inactive)
REMARK    1  A    between atoms: C_2  and  C_3 
REMARK    2  A    between atoms: C_3  and  O_6 
REMARK    3  A    between atoms: C_3  and  C_4 
REMARK    4  A    between atoms: C_7  and  O_6 
REMARK    5  A    between atoms: C_9  and  C_10 
REMARK    6  A    between atoms: N_15  and  C_14 
REMARK    7  A    between atoms: N_20  and  C_19 
REMARK       I    between atoms: C_22  and  N_20 
ROOT
ATOM      1  C   LIG d   1      -4.639  77.826 116.776  0.00  0.00     0.161 C 
ATOM      2  C   LIG d   1      -5.982  78.212 116.923  0.00  0.00     0.016 C 
ATOM      3  C   LIG d   1      -6.387  79.363 117.638  0.00  0.00     0.038 C 
ATOM      4  C   LIG d   1      -5.461  80.295 118.128  0.00  0.00     0.028 C 
ATOM      5  C   LIG d   1      -4.097  79.688 118.440  0.00  0.00    -0.047 C 
ATOM      6  C   LIG d   1      -3.609  78.891 117.209  0.00  0.00     0.091 C 
ENDROOT
BRANCH   1   7
ATOM      7  O   LIG d   1      -4.394  77.417 115.415  0.00  0.00    -0.368 OA
BRANCH   7   8
ATOM      8  C   LIG d   1      -4.143  76.005 115.210  0.00  0.00     0.119 C 
BRANCH   8   9
ATOM      9  C   LIG d   1      -5.456  75.369 114.713  0.00  0.00     0.028 C 
ATOM     10  C   LIG d   1      -6.151  74.532 115.800  0.00  0.00     0.006 C 
ENDBRANCH   8   9
BRANCH   8  11
ATOM     11  C   LIG d   1      -3.825  75.298 116.530  0.00  0.00     0.028 C 
ATOM     12  C   LIG d   1      -2.454  74.602 116.518  0.00  0.00     0.006 C 
ENDBRANCH   8  11
ENDBRANCH   7   8
ENDBRANCH   1   7
BRANCH   6  13
ATOM     13  N   LIG d   1      -2.320  78.195 117.459  0.00  0.00    -0.311 N 
ATOM     14  C   LIG d   1      -1.249  78.334 116.680  0.00  0.00     0.210 C 
ATOM     15  C   LIG d   1      -0.029  77.511 117.105  0.00  0.00     0.109 C 
ATOM     16  O   LIG d   1      -1.183  79.085 115.695  0.00  0.00    -0.276 OA
ATOM     17  H   LIG d   1      -2.276  77.590 118.255  0.00  0.00     0.149 HD
ENDBRANCH   6  13
BRANCH   5  18
ATOM     18  N   LIG d   1      -3.192  80.793 118.809  0.00  0.00     0.381 N 
ATOM     19  H   LIG d   1      -2.335  80.714 118.299  0.00  0.00    -0.090 HD
ATOM     20  H   LIG d   1      -2.982  80.727 119.790  0.00  0.00    -0.090 HD
ATOM     21  H   LIG d   1      -3.624  81.669 118.613  0.00  0.00    -0.090 HD
ENDBRANCH   5  18
BRANCH   3  22
ATOM     22  C   LIG d   1      -7.732  79.569 117.902  0.00  0.00     0.382 C 
ATOM     23  O   LIG d   1      -8.351  80.492 117.320  0.00  0.00    -0.241 OA
ATOM     24  O   LIG d   1      -8.324  78.872 118.748  0.00  0.00    -0.241 OA
ENDBRANCH   3  22
TORSDOF 7
ENDMDL
MODEL 6
REMARK VINA RESULT:      -4.7      9.808     12.796
REMARK  7 active torsions:
REMARK  status: ('A' for Active; 'I' for Inactive)
REMARK    1  A    between atoms: C_2  and  C_3 
REMARK    2  A    between atoms: C_3  and  O_6 
REMARK    3  A    between atoms: C_3  and  C_4 
REMARK    4  A    between atoms: C_7  and  O_6 
REMARK    5  A    between atoms: C_9  and  C_10 
REMARK    6  A    between atoms: N_15  and  C_14 
REMARK    7  A    between atoms: N_20  and  C_19 
REMARK       I    between atoms: C_22  and  N_20 
ROOT
ATOM      1  C   LIG d   1       2.477  86.570 114.550  0.00  0.00     0.161 C 
ATOM      2  C   LIG d   1       2.846  87.870 114.164  0.00  0.00     0.016 C 
ATOM      3  C   LIG d   1       4.116  88.430 114.431  0.00  0.00     0.038 C 
ATOM      4  C   LIG d   1       5.163  87.669 114.972  0.00  0.00     0.028 C 
ATOM      5  C   LIG d   1       4.683  86.508 115.837  0.00  0.00    -0.047 C 
ATOM      6  C   LIG d   1       3.642  85.687 115.043  0.00  0.00     0.091 C 
ENDROOT
BRANCH   1   7
ATOM      7  O   LIG d   1       1.777  85.920 113.471  0.00  0.00    -0.368 OA
BRANCH   7   8
ATOM      8  C   LIG d   1       1.819  86.591 112.188  0.00  0.00     0.119 C 
BRANCH   8   9
ATOM      9  C   LIG d   1       0.396  86.556 111.599  0.00  0.00     0.028 C 
ATOM     10  C   LIG d   1      -0.664  86.184 112.650  0.00  0.00     0.006 C 
ENDBRANCH   8   9
BRANCH   8  11
ATOM     11  C   LIG d   1       2.691  85.826 111.188  0.00  0.00     0.028 C 
ATOM     12  C   LIG d   1       4.172  86.227 111.259  0.00  0.00     0.006 C 
ENDBRANCH   8  11
ENDBRANCH   7   8
ENDBRANCH   1   7
BRANCH   6  13
ATOM     13  N   LIG d   1       3.059  84.581 115.847  0.00  0.00    -0.311 N 
ATOM     14  C   LIG d   1       2.943  83.332 115.400  0.00  0.00     0.210 C 
ATOM     15  C   LIG d   1       2.296  82.351 116.383  0.00  0.00     0.109 C 
ATOM     16  O   LIG d   1       3.344  82.936 114.295  0.00  0.00    -0.276 OA
ATOM     17  H   LIG d   1       2.737  84.808 116.768  0.00  0.00     0.149 HD
ENDBRANCH   6  13
BRANCH   5  18
ATOM     18  N   LIG d   1       5.869  85.720 116.223  0.00  0.00     0.381 N 
ATOM     19  H   LIG d   1       5.985  85.746 117.216  0.00  0.00    -0.090 HD
ATOM     20  H   LIG d   1       6.683  86.129 115.800  0.00  0.00    -0.090 HD
ATOM     21  H   LIG d   1       5.766  84.777 115.917  0.00  0.00    -0.090 HD
ENDBRANCH   5  18
BRANCH   3  22
ATOM     22  C   LIG d   1       4.337  89.777 114.191  0.00  0.00     0.382 C 
ATOM     23  O   LIG d   1       4.083  90.264 113.063  0.00  0.00    -0.241 OA
ATOM     24  O   LIG d   1       4.830  90.504 115.075  0.00  0.00    -0.241 OA
ENDBRANCH   3  22
TORSDOF 7
ENDMDL
MODEL 7
REMARK VINA RESULT:      -4.7     14.083     16.277
REMARK  7 active torsions:
REMARK  status: ('A' for Active; 'I' for Inactive)
REMARK    1  A    between atoms: C_2  and  C_3 
REMARK    2  A    between atoms: C_3  and  O_6 
REMARK    3  A    between atoms: C_3  and  C_4 
REMARK    4  A    between atoms: C_7  and  O_6 
REMARK    5  A    between atoms: C_9  and  C_10 
REMARK    6  A    between atoms: N_15  and  C_14 
REMARK    7  A    between atoms: N_20  and  C_19 
REMARK       I    between atoms: C_22  and  N_20 
ROOT
ATOM      1  C   LIG d   1      -5.908  91.095 118.396  0.00  0.00     0.161 C 
ATOM      2  C   LIG d   1      -6.579  92.323 118.278  0.00  0.00     0.016 C 
ATOM      3  C   LIG d   1      -5.936  93.576 118.395  0.00  0.00     0.038 C 
ATOM      4  C   LIG d   1      -4.540  93.687 118.488  0.00  0.00     0.028 C 
ATOM      5  C   LIG d   1      -3.876  92.467 119.116  0.00  0.00    -0.047 C 
ATOM      6  C   LIG d   1      -4.368  91.196 118.386  0.00  0.00     0.091 C 
ENDROOT
BRANCH   1   7
ATOM      7  O   LIG d   1      -6.357  90.192 117.366  0.00  0.00    -0.368 OA
BRANCH   7   8
ATOM      8  C   LIG d   1      -6.827  90.805 116.141  0.00  0.00     0.119 C 
BRANCH   8   9
ATOM      9  C   LIG d   1      -8.016  89.968 115.630  0.00  0.00     0.028 C 
ATOM     10  C   LIG d   1      -8.610  89.065 116.724  0.00  0.00     0.006 C 
ENDBRANCH   8   9
BRANCH   8  11
ATOM     11  C   LIG d   1      -5.770  90.725 115.035  0.00  0.00     0.028 C 
ATOM     12  C   LIG d   1      -4.867  89.488 115.163  0.00  0.00     0.006 C 
ENDBRANCH   8  11
ENDBRANCH   7   8
ENDBRANCH   1   7
BRANCH   6  13
ATOM     13  N   LIG d   1      -3.832  89.950 118.993  0.00  0.00    -0.311 N 
ATOM     14  C   LIG d   1      -2.740  89.329 118.548  0.00  0.00     0.210 C 
ATOM     15  C   LIG d   1      -2.372  88.049 119.305  0.00  0.00     0.109 C 
ATOM     16  O   LIG d   1      -2.024  89.734 117.621  0.00  0.00    -0.276 OA
ATOM     17  H   LIG d   1      -4.333  89.569 119.771  0.00  0.00     0.149 HD
ENDBRANCH   6  13
BRANCH   5  18
ATOM     18  N   LIG d   1      -2.416  92.657 119.025  0.00  0.00     0.381 N 
ATOM     19  H   LIG d   1      -1.970  91.779 118.851  0.00  0.00    -0.090 HD
ATOM     20  H   LIG d   1      -2.079  93.013 119.902  0.00  0.00    -0.090 HD
ATOM     21  H   LIG d   1      -2.201  93.298 118.293  0.00  0.00    -0.090 HD
ENDBRANCH   5  18
BRANCH   3  22
ATOM     22  C   LIG d   1      -6.694  94.735 118.460  0.00  0.00     0.382 C 
ATOM     23  O   LIG d   1      -7.857  94.750 117.988  0.00  0.00    -0.241 OA
ATOM     24  O   LIG d   1      -6.215  95.778 118.943  0.00  0.00    -0.241 OA
ENDBRANCH   3  22
TORSDOF 7
ENDMDL
MODEL 8
REMARK VINA RESULT:      -4.6     10.458     12.783
REMARK  7 active torsions:
REMARK  status: ('A' for Active; 'I' for Inactive)
REMARK    1  A    between atoms: C_2  and  C_3 
REMARK    2  A    between atoms: C_3  and  O_6 
REMARK    3  A    between atoms: C_3  and  C_4 
REMARK    4  A    between atoms: C_7  and  O_6 
REMARK    5  A    between atoms: C_9  and  C_10 
REMARK    6  A    between atoms: N_15  and  C_14 
REMARK    7  A    between atoms: N_20  and  C_19 
REMARK       I    between atoms: C_22  and  N_20 
ROOT
ATOM      1  C   LIG d   1       1.747  87.041 114.919  0.00  0.00     0.161 C 
ATOM      2  C   LIG d   1       0.690  87.025 115.845  0.00  0.00     0.016 C 
ATOM      3  C   LIG d   1       0.467  88.053 116.790  0.00  0.00     0.038 C 
ATOM      4  C   LIG d   1       1.201  89.248 116.772  0.00  0.00     0.028 C 
ATOM      5  C   LIG d   1       2.599  89.091 116.185  0.00  0.00    -0.047 C 
ATOM      6  C   LIG d   1       2.491  88.389 114.812  0.00  0.00     0.091 C 
ENDROOT
BRANCH   1   7
ATOM      7  O   LIG d   1       1.268  86.628 113.624  0.00  0.00    -0.368 OA
BRANCH   7   8
ATOM      8  C   LIG d   1       1.932  85.484 113.034  0.00  0.00     0.119 C 
BRANCH   8   9
ATOM      9  C   LIG d   1       2.243  85.834 111.566  0.00  0.00     0.028 C 
ATOM     10  C   LIG d   1       1.833  87.272 111.207  0.00  0.00     0.006 C 
ENDBRANCH   8   9
BRANCH   8  11
ATOM     11  C   LIG d   1       1.000  84.270 112.972  0.00  0.00     0.028 C 
ATOM     12  C   LIG d   1      -0.432  84.639 112.554  0.00  0.00     0.006 C 
ENDBRANCH   8  11
ENDBRANCH   7   8
ENDBRANCH   1   7
BRANCH   6  13
ATOM     13  N   LIG d   1       3.821  88.121 114.206  0.00  0.00    -0.311 N 
ATOM     14  C   LIG d   1       4.416  88.948 113.348  0.00  0.00     0.210 C 
ATOM     15  C   LIG d   1       5.776  88.471 112.827  0.00  0.00     0.109 C 
ATOM     16  O   LIG d   1       3.962  90.046 112.994  0.00  0.00    -0.276 OA
ATOM     17  H   LIG d   1       4.275  87.266 114.462  0.00  0.00     0.149 HD
ENDBRANCH   6  13
BRANCH   5  18
ATOM     18  N   LIG d   1       3.201  90.435 116.100  0.00  0.00     0.381 N 
ATOM     19  H   LIG d   1       3.194  90.751 115.151  0.00  0.00    -0.090 HD
ATOM     20  H   LIG d   1       4.155  90.384 116.409  0.00  0.00    -0.090 HD
ATOM     21  H   LIG d   1       2.692  91.073 116.673  0.00  0.00    -0.090 HD
ENDBRANCH   5  18
BRANCH   3  22
ATOM     22  C   LIG d   1      -0.475  87.873 117.791  0.00  0.00     0.382 C 
ATOM     23  O   LIG d   1      -1.532  88.548 117.786  0.00  0.00    -0.241 OA
ATOM     24  O   LIG d   1      -0.261  87.075 118.724  0.00  0.00    -0.241 OA
ENDBRANCH   3  22
TORSDOF 7
ENDMDL
MODEL 9
REMARK VINA RESULT:      -4.6     12.573     15.010
REMARK  7 active torsions:
REMARK  status: ('A' for Active; 'I' for Inactive)
REMARK    1  A    between atoms: C_2  and  C_3 
REMARK    2  A    between atoms: C_3  and  O_6 
REMARK    3  A    between atoms: C_3  and  C_4 
REMARK    4  A    between atoms: C_7  and  O_6 
REMARK    5  A    between atoms: C_9  and  C_10 
REMARK    6  A    between atoms: N_15  and  C_14 
REMARK    7  A    between atoms: N_20  and  C_19 
REMARK       I    between atoms: C_22  and  N_20 
ROOT
ATOM      1  C   LIG d   1      11.202  78.129 114.423  0.00  0.00     0.161 C 
ATOM      2  C   LIG d   1       9.860  78.354 114.771  0.00  0.00     0.016 C 
ATOM      3  C   LIG d   1       8.999  77.338 115.249  0.00  0.00     0.038 C 
ATOM      4  C   LIG d   1       9.469  76.052 115.556  0.00  0.00     0.028 C 
ATOM      5  C   LIG d   1      10.695  75.646 114.745  0.00  0.00    -0.047 C 
ATOM      6  C   LIG d   1      11.762  76.758 114.857  0.00  0.00     0.091 C 
ENDROOT
BRANCH   1   7
ATOM      7  O   LIG d   1      12.025  79.193 114.941  0.00  0.00    -0.368 OA
BRANCH   7   8
ATOM      8  C   LIG d   1      12.420  80.213 113.991  0.00  0.00     0.119 C 
BRANCH   8   9
ATOM      9  C   LIG d   1      12.173  79.651 112.578  0.00  0.00     0.028 C 
ATOM     10  C   LIG d   1      11.382  80.625 111.688  0.00  0.00     0.006 C 
ENDBRANCH   8   9
BRANCH   8  11
ATOM     11  C   LIG d   1      13.925  80.487 114.061  0.00  0.00     0.028 C 
ATOM     12  C   LIG d   1      14.686  79.951 112.838  0.00  0.00     0.006 C 
ENDBRANCH   8  11
ENDBRANCH   7   8
ENDBRANCH   1   7
BRANCH   6  13
ATOM     13  N   LIG d   1      12.961  76.479 114.025  0.00  0.00    -0.311 N 
ATOM     14  C   LIG d   1      14.209  76.639 114.461  0.00  0.00     0.210 C 
ATOM     15  C   LIG d   1      15.300  76.313 113.435  0.00  0.00     0.109 C 
ATOM     16  O   LIG d   1      14.518  76.989 115.610  0.00  0.00    -0.276 OA
ATOM     17  H   LIG d   1      12.803  76.160 113.089  0.00  0.00     0.149 HD
ENDBRANCH   6  13
BRANCH   5  18
ATOM     18  N   LIG d   1      11.159  74.345 115.262  0.00  0.00     0.381 N 
ATOM     19  H   LIG d   1      10.559  74.041 116.003  0.00  0.00    -0.090 HD
ATOM     20  H   LIG d   1      12.087  74.455 115.633  0.00  0.00    -0.090 HD
ATOM     21  H   LIG d   1      11.164  73.669 114.531  0.00  0.00    -0.090 HD
ENDBRANCH   5  18
BRANCH   3  22
ATOM     22  C   LIG d   1       7.643  77.595 115.386  0.00  0.00     0.382 C 
ATOM     23  O   LIG d   1       6.811  76.951 114.702  0.00  0.00    -0.241 OA
ATOM     24  O   LIG d   1       7.244  78.492 116.151  0.00  0.00    -0.241 OA
ENDBRANCH   3  22
TORSDOF 7
ENDMDL
