MODEL 1
REMARK VINA RESULT:      -5.7      0.000      0.000
REMARK  7 active torsions:
REMARK  status: ('A' for Active; 'I' for Inactive)
REMARK    1  A    between atoms: C_2  and  C_3 
REMARK    2  A    between atoms: C_3  and  O_6 
REMARK    3  A    between atoms: C_3  and  C_4 
REMARK    4  A    between atoms: C_7  and  O_6 
REMARK    5  A    between atoms: C_9  and  C_10 
REMARK    6  A    between atoms: N_15  and  C_14 
REMARK    7  A    between atoms: N_20  and  C_19 
REMARK       I    between atoms: C_22  and  N_20 
ROOT
ATOM      1  C   LIG d   1      -3.424  75.870 115.072  0.00  0.00     0.161 C 
ATOM      2  C   LIG d   1      -3.688  76.645 113.931  0.00  0.00     0.016 C 
ATOM      3  C   LIG d   1      -2.686  77.330 113.206  0.00  0.00     0.038 C 
ATOM      4  C   LIG d   1      -1.322  77.160 113.487  0.00  0.00     0.028 C 
ATOM      5  C   LIG d   1      -1.044  76.789 114.939  0.00  0.00    -0.047 C 
ATOM      6  C   LIG d   1      -1.929  75.583 115.327  0.00  0.00     0.091 C 
ENDROOT
BRANCH   1   7
ATOM      7  O   LIG d   1      -4.166  74.636 115.007  0.00  0.00    -0.368 OA
BRANCH   7   8
ATOM      8  C   LIG d   1      -5.240  74.487 115.968  0.00  0.00     0.119 C 
BRANCH   8   9
ATOM      9  C   LIG d   1      -5.664  73.005 115.962  0.00  0.00     0.028 C 
ATOM     10  C   LIG d   1      -6.765  72.706 116.993  0.00  0.00     0.006 C 
ENDBRANCH   8   9
BRANCH   8  11
ATOM     11  C   LIG d   1      -6.486  75.267 115.537  0.00  0.00     0.028 C 
ATOM     12  C   LIG d   1      -6.736  76.514 116.399  0.00  0.00     0.006 C 
ENDBRANCH   8  11
ENDBRANCH   7   8
ENDBRANCH   1   7
BRANCH   6  13
ATOM     13  N   LIG d   1      -1.781  75.208 116.758  0.00  0.00    -0.311 N 
ATOM     14  C   LIG d   1      -0.953  74.255 117.184  0.00  0.00     0.210 C 
ATOM     15  C   LIG d   1      -0.970  74.014 118.696  0.00  0.00     0.109 C 
ATOM     16  O   LIG d   1      -0.184  73.609 116.456  0.00  0.00    -0.276 OA
ATOM     17  H   LIG d   1      -2.345  75.703 117.420  0.00  0.00     0.149 HD
ENDBRANCH   6  13
BRANCH   5  18
ATOM     18  N   LIG d   1       0.400  76.509 115.059  0.00  0.00     0.381 N 
ATOM     19  H   LIG d   1       0.837  76.593 114.163  0.00  0.00    -0.090 HD
ATOM     20  H   LIG d   1       0.522  75.565 115.382  0.00  0.00    -0.090 HD
ATOM     21  H   LIG d   1       0.818  77.144 115.702  0.00  0.00    -0.090 HD
ENDBRANCH   5  18
BRANCH   3  22
ATOM     22  C   LIG d   1      -3.047  78.226 112.212  0.00  0.00     0.382 C 
ATOM     23  O   LIG d   1      -3.300  77.812 111.055  0.00  0.00    -0.241 OA
ATOM     24  O   LIG d   1      -3.082  79.449 112.447  0.00  0.00    -0.241 OA
ENDBRANCH   3  22
TORSDOF 7
ENDMDL
MODEL 2
REMARK VINA RESULT:      -5.0     22.056     24.724
REMARK  7 active torsions:
REMARK  status: ('A' for Active; 'I' for Inactive)
REMARK    1  A    between atoms: C_2  and  C_3 
REMARK    2  A    between atoms: C_3  and  O_6 
REMARK    3  A    between atoms: C_3  and  C_4 
REMARK    4  A    between atoms: C_7  and  O_6 
REMARK    5  A    between atoms: C_9  and  C_10 
REMARK    6  A    between atoms: N_15  and  C_14 
REMARK    7  A    between atoms: N_20  and  C_19 
REMARK       I    between atoms: C_22  and  N_20 
ROOT
ATOM      1  C   LIG d   1     -25.791  85.662 114.398  0.00  0.00     0.161 C 
ATOM      2  C   LIG d   1     -24.675  86.507 114.273  0.00  0.00     0.016 C 
ATOM      3  C   LIG d   1     -23.366  86.035 114.021  0.00  0.00     0.038 C 
ATOM      4  C   LIG d   1     -23.108  84.688 113.726  0.00  0.00     0.028 C 
ATOM      5  C   LIG d   1     -24.122  83.728 114.338  0.00  0.00    -0.047 C 
ATOM      6  C   LIG d   1     -25.547  84.200 113.969  0.00  0.00     0.091 C 
ENDROOT
BRANCH   1   7
ATOM      7  O   LIG d   1     -26.907  86.217 113.675  0.00  0.00    -0.368 OA
BRANCH   7   8
ATOM      8  C   LIG d   1     -26.581  86.993 112.496  0.00  0.00     0.119 C 
BRANCH   8   9
ATOM      9  C   LIG d   1     -27.586  88.158 112.416  0.00  0.00     0.028 C 
ATOM     10  C   LIG d   1     -26.951  89.443 111.858  0.00  0.00     0.006 C 
ENDBRANCH   8   9
BRANCH   8  11
ATOM     11  C   LIG d   1     -26.799  86.180 111.216  0.00  0.00     0.028 C 
ATOM     12  C   LIG d   1     -28.250  85.700 111.055  0.00  0.00     0.006 C 
ENDBRANCH   8  11
ENDBRANCH   7   8
ENDBRANCH   1   7
BRANCH   6  13
ATOM     13  N   LIG d   1     -26.602  83.364 114.598  0.00  0.00    -0.311 N 
ATOM     14  C   LIG d   1     -27.186  82.336 113.985  0.00  0.00     0.210 C 
ATOM     15  C   LIG d   1     -28.263  81.621 114.806  0.00  0.00     0.109 C 
ATOM     16  O   LIG d   1     -26.891  81.928 112.851  0.00  0.00    -0.276 OA
ATOM     17  H   LIG d   1     -26.880  83.606 115.529  0.00  0.00     0.149 HD
ENDBRANCH   6  13
BRANCH   5  18
ATOM     18  N   LIG d   1     -23.814  82.375 113.838  0.00  0.00     0.381 N 
ATOM     19  H   LIG d   1     -23.608  81.768 114.606  0.00  0.00    -0.090 HD
ATOM     20  H   LIG d   1     -23.001  82.424 113.248  0.00  0.00    -0.090 HD
ATOM     21  H   LIG d   1     -24.587  82.018 113.321  0.00  0.00    -0.090 HD
ENDBRANCH   5  18
BRANCH   3  22
ATOM     22  C   LIG d   1     -22.293  86.909 114.103  0.00  0.00     0.382 C 
ATOM     23  O   LIG d   1     -22.344  87.893 114.880  0.00  0.00    -0.241 OA
ATOM     24  O   LIG d   1     -21.293  86.751 113.378  0.00  0.00    -0.241 OA
ENDBRANCH   3  22
TORSDOF 7
ENDMDL
MODEL 3
REMARK VINA RESULT:      -4.8      2.691      4.961
REMARK  7 active torsions:
REMARK  status: ('A' for Active; 'I' for Inactive)
REMARK    1  A    between atoms: C_2  and  C_3 
REMARK    2  A    between atoms: C_3  and  O_6 
REMARK    3  A    between atoms: C_3  and  C_4 
REMARK    4  A    between atoms: C_7  and  O_6 
REMARK    5  A    between atoms: C_9  and  C_10 
REMARK    6  A    between atoms: N_15  and  C_14 
REMARK    7  A    between atoms: N_20  and  C_19 
REMARK       I    between atoms: C_22  and  N_20 
ROOT
ATOM      1  C   LIG d   1      -3.005  76.272 117.299  0.00  0.00     0.161 C 
ATOM      2  C   LIG d   1      -3.616  75.242 116.564  0.00  0.00     0.016 C 
ATOM      3  C   LIG d   1      -4.030  75.385 115.220  0.00  0.00     0.038 C 
ATOM      4  C   LIG d   1      -3.721  76.528 114.467  0.00  0.00     0.028 C 
ATOM      5  C   LIG d   1      -3.553  77.785 115.314  0.00  0.00    -0.047 C 
ATOM      6  C   LIG d   1      -2.559  77.488 116.460  0.00  0.00     0.091 C 
ENDROOT
BRANCH   1   7
ATOM      7  O   LIG d   1      -1.891  75.744 118.046  0.00  0.00    -0.368 OA
BRANCH   7   8
ATOM      8  C   LIG d   1      -1.267  74.554 117.505  0.00  0.00     0.119 C 
BRANCH   8   9
ATOM      9  C   LIG d   1      -0.762  73.714 118.694  0.00  0.00     0.028 C 
ATOM     10  C   LIG d   1       0.574  73.014 118.392  0.00  0.00     0.006 C 
ENDBRANCH   8   9
BRANCH   8  11
ATOM     11  C   LIG d   1      -0.015  74.902 116.693  0.00  0.00     0.028 C 
ATOM     12  C   LIG d   1      -0.235  74.780 115.177  0.00  0.00     0.006 C 
ENDBRANCH   8  11
ENDBRANCH   7   8
ENDBRANCH   1   7
BRANCH   6  13
ATOM     13  N   LIG d   1      -2.402  78.640 117.386  0.00  0.00    -0.311 N 
ATOM     14  C   LIG d   1      -1.501  79.605 117.210  0.00  0.00     0.210 C 
ATOM     15  C   LIG d   1      -1.493  80.688 118.293  0.00  0.00     0.109 C 
ATOM     16  O   LIG d   1      -0.729  79.683 116.242  0.00  0.00    -0.276 OA
ATOM     17  H   LIG d   1      -3.009  78.672 118.182  0.00  0.00     0.149 HD
ENDBRANCH   6  13
BRANCH   5  18
ATOM     18  N   LIG d   1      -3.099  78.867 114.420  0.00  0.00     0.381 N 
ATOM     19  H   LIG d   1      -2.599  79.555 114.948  0.00  0.00    -0.090 HD
ATOM     20  H   LIG d   1      -3.902  79.308 114.009  0.00  0.00    -0.090 HD
ATOM     21  H   LIG d   1      -2.512  78.496 113.706  0.00  0.00    -0.090 HD
ENDBRANCH   5  18
BRANCH   3  22
ATOM     22  C   LIG d   1      -4.796  74.394 114.628  0.00  0.00     0.382 C 
ATOM     23  O   LIG d   1      -5.305  73.489 115.333  0.00  0.00    -0.241 OA
ATOM     24  O   LIG d   1      -4.949  74.367 113.392  0.00  0.00    -0.241 OA
ENDBRANCH   3  22
TORSDOF 7
ENDMDL
MODEL 4
REMARK VINA RESULT:      -4.4     15.391     18.178
REMARK  7 active torsions:
REMARK  status: ('A' for Active; 'I' for Inactive)
REMARK    1  A    between atoms: C_2  and  C_3 
REMARK    2  A    between atoms: C_3  and  O_6 
REMARK    3  A    between atoms: C_3  and  C_4 
REMARK    4  A    between atoms: C_7  and  O_6 
REMARK    5  A    between atoms: C_9  and  C_10 
REMARK    6  A    between atoms: N_15  and  C_14 
REMARK    7  A    between atoms: N_20  and  C_19 
REMARK       I    between atoms: C_22  and  N_20 
ROOT
ATOM      1  C   LIG d   1     -16.346  64.276 114.552  0.00  0.00     0.161 C 
ATOM      2  C   LIG d   1     -17.332  64.878 113.753  0.00  0.00     0.016 C 
ATOM      3  C   LIG d   1     -18.714  64.813 114.041  0.00  0.00     0.038 C 
ATOM      4  C   LIG d   1     -19.197  64.266 115.240  0.00  0.00     0.028 C 
ATOM      5  C   LIG d   1     -18.279  63.202 115.832  0.00  0.00    -0.047 C 
ATOM      6  C   LIG d   1     -16.844  63.770 115.922  0.00  0.00     0.091 C 
ENDROOT
BRANCH   1   7
ATOM      7  O   LIG d   1     -15.237  65.181 114.726  0.00  0.00    -0.368 OA
BRANCH   7   8
ATOM      8  C   LIG d   1     -15.564  66.593 114.740  0.00  0.00     0.119 C 
BRANCH   8   9
ATOM      9  C   LIG d   1     -14.442  67.335 113.988  0.00  0.00     0.028 C 
ATOM     10  C   LIG d   1     -14.986  68.260 112.886  0.00  0.00     0.006 C 
ENDBRANCH   8   9
BRANCH   8  11
ATOM     11  C   LIG d   1     -15.539  67.156 116.164  0.00  0.00     0.028 C 
ATOM     12  C   LIG d   1     -14.561  66.407 117.084  0.00  0.00     0.006 C 
ENDBRANCH   8  11
ENDBRANCH   7   8
ENDBRANCH   1   7
BRANCH   6  13
ATOM     13  N   LIG d   1     -15.866  62.765 116.414  0.00  0.00    -0.311 N 
ATOM     14  C   LIG d   1     -15.475  62.683 117.684  0.00  0.00     0.210 C 
ATOM     15  C   LIG d   1     -14.444  61.587 117.973  0.00  0.00     0.109 C 
ATOM     16  O   LIG d   1     -15.907  63.392 118.605  0.00  0.00    -0.276 OA
ATOM     17  H   LIG d   1     -15.488  62.129 115.739  0.00  0.00     0.149 HD
ENDBRANCH   6  13
BRANCH   5  18
ATOM     18  N   LIG d   1     -18.832  62.817 117.145  0.00  0.00     0.381 N 
ATOM     19  H   LIG d   1     -19.085  61.850 117.135  0.00  0.00    -0.090 HD
ATOM     20  H   LIG d   1     -19.660  63.358 117.320  0.00  0.00    -0.090 HD
ATOM     21  H   LIG d   1     -18.159  62.986 117.861  0.00  0.00    -0.090 HD
ENDBRANCH   5  18
BRANCH   3  22
ATOM     22  C   LIG d   1     -19.633  65.264 113.106  0.00  0.00     0.382 C 
ATOM     23  O   LIG d   1     -20.677  65.849 113.484  0.00  0.00    -0.241 OA
ATOM     24  O   LIG d   1     -19.454  65.053 111.892  0.00  0.00    -0.241 OA
ENDBRANCH   3  22
TORSDOF 7
ENDMDL
MODEL 5
REMARK VINA RESULT:      -4.3     22.758     25.456
REMARK  7 active torsions:
REMARK  status: ('A' for Active; 'I' for Inactive)
REMARK    1  A    between atoms: C_2  and  C_3 
REMARK    2  A    between atoms: C_3  and  O_6 
REMARK    3  A    between atoms: C_3  and  C_4 
REMARK    4  A    between atoms: C_7  and  O_6 
REMARK    5  A    between atoms: C_9  and  C_10 
REMARK    6  A    between atoms: N_15  and  C_14 
REMARK    7  A    between atoms: N_20  and  C_19 
REMARK       I    between atoms: C_22  and  N_20 
ROOT
ATOM      1  C   LIG d   1     -25.722  87.066 114.581  0.00  0.00     0.161 C 
ATOM      2  C   LIG d   1     -24.605  86.684 113.819  0.00  0.00     0.016 C 
ATOM      3  C   LIG d   1     -23.522  85.943 114.346  0.00  0.00     0.038 C 
ATOM      4  C   LIG d   1     -23.553  85.401 115.639  0.00  0.00     0.028 C 
ATOM      5  C   LIG d   1     -24.433  86.188 116.604  0.00  0.00    -0.047 C 
ATOM      6  C   LIG d   1     -25.825  86.389 115.963  0.00  0.00     0.091 C 
ENDROOT
BRANCH   1   7
ATOM      7  O   LIG d   1     -26.928  86.845 113.823  0.00  0.00    -0.368 OA
BRANCH   7   8
ATOM      8  C   LIG d   1     -26.910  87.299 112.448  0.00  0.00     0.119 C 
BRANCH   8   9
ATOM      9  C   LIG d   1     -27.621  88.665 112.402  0.00  0.00     0.028 C 
ATOM     10  C   LIG d   1     -26.961  89.637 111.409  0.00  0.00     0.006 C 
ENDBRANCH   8   9
BRANCH   8  11
ATOM     11  C   LIG d   1     -27.739  86.380 111.546  0.00  0.00     0.028 C 
ATOM     12  C   LIG d   1     -28.056  85.028 112.204  0.00  0.00     0.006 C 
ENDBRANCH   8  11
ENDBRANCH   7   8
ENDBRANCH   1   7
BRANCH   6  13
ATOM     13  N   LIG d   1     -26.722  87.222 116.806  0.00  0.00    -0.311 N 
ATOM     14  C   LIG d   1     -27.871  86.779 117.313  0.00  0.00     0.210 C 
ATOM     15  C   LIG d   1     -28.653  87.807 118.137  0.00  0.00     0.109 C 
ATOM     16  O   LIG d   1     -28.302  85.623 117.186  0.00  0.00    -0.276 OA
ATOM     17  H   LIG d   1     -26.434  88.164 116.986  0.00  0.00     0.149 HD
ENDBRANCH   6  13
BRANCH   5  18
ATOM     18  N   LIG d   1     -24.484  85.437 117.873  0.00  0.00     0.381 N 
ATOM     19  H   LIG d   1     -25.430  85.184 118.079  0.00  0.00    -0.090 HD
ATOM     20  H   LIG d   1     -24.147  86.027 118.614  0.00  0.00    -0.090 HD
ATOM     21  H   LIG d   1     -23.920  84.619 117.808  0.00  0.00    -0.090 HD
ENDBRANCH   5  18
BRANCH   3  22
ATOM     22  C   LIG d   1     -22.373  85.772 113.587  0.00  0.00     0.382 C 
ATOM     23  O   LIG d   1     -22.132  84.661 113.057  0.00  0.00    -0.241 OA
ATOM     24  O   LIG d   1     -21.554  86.702 113.463  0.00  0.00    -0.241 OA
ENDBRANCH   3  22
TORSDOF 7
ENDMDL
MODEL 6
REMARK VINA RESULT:      -4.3     15.899     18.055
REMARK  7 active torsions:
REMARK  status: ('A' for Active; 'I' for Inactive)
REMARK    1  A    between atoms: C_2  and  C_3 
REMARK    2  A    between atoms: C_3  and  O_6 
REMARK    3  A    between atoms: C_3  and  C_4 
REMARK    4  A    between atoms: C_7  and  O_6 
REMARK    5  A    between atoms: C_9  and  C_10 
REMARK    6  A    between atoms: N_15  and  C_14 
REMARK    7  A    between atoms: N_20  and  C_19 
REMARK       I    between atoms: C_22  and  N_20 
ROOT
ATOM      1  C   LIG d   1      13.436  77.257 112.071  0.00  0.00     0.161 C 
ATOM      2  C   LIG d   1      12.820  78.511 111.926  0.00  0.00     0.016 C 
ATOM      3  C   LIG d   1      12.411  79.308 113.019  0.00  0.00     0.038 C 
ATOM      4  C   LIG d   1      12.730  78.972 114.343  0.00  0.00     0.028 C 
ATOM      5  C   LIG d   1      12.905  77.472 114.561  0.00  0.00    -0.047 C 
ATOM      6  C   LIG d   1      13.893  76.923 113.507  0.00  0.00     0.091 C 
ENDROOT
BRANCH   1   7
ATOM      7  O   LIG d   1      14.544  77.147 111.155  0.00  0.00    -0.368 OA
BRANCH   7   8
ATOM      8  C   LIG d   1      15.865  77.278 111.735  0.00  0.00     0.119 C 
BRANCH   8   9
ATOM      9  C   LIG d   1      16.367  78.703 111.426  0.00  0.00     0.028 C 
ATOM     10  C   LIG d   1      16.396  79.598 112.676  0.00  0.00     0.006 C 
ENDBRANCH   8   9
BRANCH   8  11
ATOM     11  C   LIG d   1      16.867  76.340 111.055  0.00  0.00     0.028 C 
ATOM     12  C   LIG d   1      17.787  75.624 112.057  0.00  0.00     0.006 C 
ENDBRANCH   8  11
ENDBRANCH   7   8
ENDBRANCH   1   7
BRANCH   6  13
ATOM     13  N   LIG d   1      14.055  75.449 113.596  0.00  0.00    -0.311 N 
ATOM     14  C   LIG d   1      15.002  74.858 114.324  0.00  0.00     0.210 C 
ATOM     15  C   LIG d   1      15.005  73.328 114.261  0.00  0.00     0.109 C 
ATOM     16  O   LIG d   1      15.819  75.456 115.041  0.00  0.00    -0.276 OA
ATOM     17  H   LIG d   1      13.415  74.887 113.071  0.00  0.00     0.149 HD
ENDBRANCH   6  13
BRANCH   5  18
ATOM     18  N   LIG d   1      13.369  77.275 115.947  0.00  0.00     0.381 N 
ATOM     19  H   LIG d   1      12.701  77.658 116.586  0.00  0.00    -0.090 HD
ATOM     20  H   LIG d   1      14.239  77.762 116.071  0.00  0.00    -0.090 HD
ATOM     21  H   LIG d   1      13.495  76.304 116.130  0.00  0.00    -0.090 HD
ENDBRANCH   5  18
BRANCH   3  22
ATOM     22  C   LIG d   1      11.639  80.438 112.795  0.00  0.00     0.382 C 
ATOM     23  O   LIG d   1      10.908  80.890 113.709  0.00  0.00    -0.241 OA
ATOM     24  O   LIG d   1      11.631  80.986 111.676  0.00  0.00    -0.241 OA
ENDBRANCH   3  22
TORSDOF 7
ENDMDL
MODEL 7
REMARK VINA RESULT:      -4.2      3.216      4.889
REMARK  7 active torsions:
REMARK  status: ('A' for Active; 'I' for Inactive)
REMARK    1  A    between atoms: C_2  and  C_3 
REMARK    2  A    between atoms: C_3  and  O_6 
REMARK    3  A    between atoms: C_3  and  C_4 
REMARK    4  A    between atoms: C_7  and  O_6 
REMARK    5  A    between atoms: C_9  and  C_10 
REMARK    6  A    between atoms: N_15  and  C_14 
REMARK    7  A    between atoms: N_20  and  C_19 
REMARK       I    between atoms: C_22  and  N_20 
ROOT
ATOM      1  C   LIG d   1      -2.513  78.264 116.757  0.00  0.00     0.161 C 
ATOM      2  C   LIG d   1      -3.245  77.368 115.960  0.00  0.00     0.016 C 
ATOM      3  C   LIG d   1      -2.955  77.123 114.597  0.00  0.00     0.038 C 
ATOM      4  C   LIG d   1      -1.813  77.649 113.976  0.00  0.00     0.028 C 
ATOM      5  C   LIG d   1      -1.332  78.955 114.599  0.00  0.00    -0.047 C 
ATOM      6  C   LIG d   1      -1.196  78.763 116.127  0.00  0.00     0.091 C 
ENDROOT
BRANCH   1   7
ATOM      7  O   LIG d   1      -2.260  77.675 118.047  0.00  0.00    -0.368 OA
BRANCH   7   8
ATOM      8  C   LIG d   1      -1.072  76.851 118.150  0.00  0.00     0.119 C 
BRANCH   8   9
ATOM      9  C   LIG d   1      -1.525  75.436 118.556  0.00  0.00     0.028 C 
ATOM     10  C   LIG d   1      -1.536  74.460 117.368  0.00  0.00     0.006 C 
ENDBRANCH   8   9
BRANCH   8  11
ATOM     11  C   LIG d   1      -0.161  77.327 119.286  0.00  0.00     0.028 C 
ATOM     12  C   LIG d   1       1.280  76.811 119.148  0.00  0.00     0.006 C 
ENDBRANCH   8  11
ENDBRANCH   7   8
ENDBRANCH   1   7
BRANCH   6  13
ATOM     13  N   LIG d   1      -0.810  80.017 116.824  0.00  0.00    -0.311 N 
ATOM     14  C   LIG d   1       0.446  80.319 117.149  0.00  0.00     0.210 C 
ATOM     15  C   LIG d   1       0.621  81.653 117.882  0.00  0.00     0.109 C 
ATOM     16  O   LIG d   1       1.435  79.624 116.872  0.00  0.00    -0.276 OA
ATOM     17  H   LIG d   1      -1.547  80.653 117.059  0.00  0.00     0.149 HD
ENDBRANCH   6  13
BRANCH   5  18
ATOM     18  N   LIG d   1      -0.059  79.318 113.946  0.00  0.00     0.381 N 
ATOM     19  H   LIG d   1       0.130  78.683 113.197  0.00  0.00    -0.090 HD
ATOM     20  H   LIG d   1       0.684  79.244 114.619  0.00  0.00    -0.090 HD
ATOM     21  H   LIG d   1      -0.109  80.250 113.597  0.00  0.00    -0.090 HD
ENDBRANCH   5  18
BRANCH   3  22
ATOM     22  C   LIG d   1      -3.837  76.376 113.831  0.00  0.00     0.382 C 
ATOM     23  O   LIG d   1      -3.963  75.146 114.042  0.00  0.00    -0.241 OA
ATOM     24  O   LIG d   1      -4.474  76.908 112.903  0.00  0.00    -0.241 OA
ENDBRANCH   3  22
TORSDOF 7
ENDMDL
MODEL 8
REMARK VINA RESULT:      -4.2     15.485     18.120
REMARK  7 active torsions:
REMARK  status: ('A' for Active; 'I' for Inactive)
REMARK    1  A    between atoms: C_2  and  C_3 
REMARK    2  A    between atoms: C_3  and  O_6 
REMARK    3  A    between atoms: C_3  and  C_4 
REMARK    4  A    between atoms: C_7  and  O_6 
REMARK    5  A    between atoms: C_9  and  C_10 
REMARK    6  A    between atoms: N_15  and  C_14 
REMARK    7  A    between atoms: N_20  and  C_19 
REMARK       I    between atoms: C_22  and  N_20 
ROOT
ATOM      1  C   LIG d   1      13.677  78.701 112.798  0.00  0.00     0.161 C 
ATOM      2  C   LIG d   1      12.581  79.485 113.198  0.00  0.00     0.016 C 
ATOM      3  C   LIG d   1      11.798  79.203 114.340  0.00  0.00     0.038 C 
ATOM      4  C   LIG d   1      12.152  78.198 115.252  0.00  0.00     0.028 C 
ATOM      5  C   LIG d   1      12.955  77.064 114.623  0.00  0.00    -0.047 C 
ATOM      6  C   LIG d   1      14.146  77.666 113.842  0.00  0.00     0.091 C 
ENDROOT
BRANCH   1   7
ATOM      7  O   LIG d   1      14.772  79.554 112.411  0.00  0.00    -0.368 OA
BRANCH   7   8
ATOM      8  C   LIG d   1      15.849  79.684 113.372  0.00  0.00     0.119 C 
BRANCH   8   9
ATOM      9  C   LIG d   1      15.736  81.083 114.007  0.00  0.00     0.028 C 
ATOM     10  C   LIG d   1      15.383  81.021 115.503  0.00  0.00     0.006 C 
ENDBRANCH   8   9
BRANCH   8  11
ATOM     11  C   LIG d   1      17.216  79.661 112.682  0.00  0.00     0.028 C 
ATOM     12  C   LIG d   1      17.164  79.045 111.275  0.00  0.00     0.006 C 
ENDBRANCH   8  11
ENDBRANCH   7   8
ENDBRANCH   1   7
BRANCH   6  13
ATOM     13  N   LIG d   1      14.935  76.631 113.125  0.00  0.00    -0.311 N 
ATOM     14  C   LIG d   1      16.028  76.062 113.630  0.00  0.00     0.210 C 
ATOM     15  C   LIG d   1      16.702  75.032 112.717  0.00  0.00     0.109 C 
ATOM     16  O   LIG d   1      16.485  76.288 114.761  0.00  0.00    -0.276 OA
ATOM     17  H   LIG d   1      14.616  76.364 112.214  0.00  0.00     0.149 HD
ENDBRANCH   6  13
BRANCH   5  18
ATOM     18  N   LIG d   1      13.374  76.158 115.709  0.00  0.00     0.381 N 
ATOM     19  H   LIG d   1      14.037  76.620 116.298  0.00  0.00    -0.090 HD
ATOM     20  H   LIG d   1      13.818  75.352 115.306  0.00  0.00    -0.090 HD
ATOM     21  H   LIG d   1      12.582  75.878 116.244  0.00  0.00    -0.090 HD
ENDBRANCH   5  18
BRANCH   3  22
ATOM     22  C   LIG d   1      10.623  79.906 114.559  0.00  0.00     0.382 C 
ATOM     23  O   LIG d   1       9.561  79.289 114.814  0.00  0.00    -0.241 OA
ATOM     24  O   LIG d   1      10.602  81.148 114.460  0.00  0.00    -0.241 OA
ENDBRANCH   3  22
TORSDOF 7
ENDMDL
MODEL 9
REMARK VINA RESULT:      -4.2     14.671     16.778
REMARK  7 active torsions:
REMARK  status: ('A' for Active; 'I' for Inactive)
REMARK    1  A    between atoms: C_2  and  C_3 
REMARK    2  A    between atoms: C_3  and  O_6 
REMARK    3  A    between atoms: C_3  and  C_4 
REMARK    4  A    between atoms: C_7  and  O_6 
REMARK    5  A    between atoms: C_9  and  C_10 
REMARK    6  A    between atoms: N_15  and  C_14 
REMARK    7  A    between atoms: N_20  and  C_19 
REMARK       I    between atoms: C_22  and  N_20 
ROOT
ATOM      1  C   LIG d   1      13.434  77.562 115.307  0.00  0.00     0.161 C 
ATOM      2  C   LIG d   1      12.194  78.220 115.356  0.00  0.00     0.016 C 
ATOM      3  C   LIG d   1      11.729  79.081 114.336  0.00  0.00     0.038 C 
ATOM      4  C   LIG d   1      12.412  79.225 113.119  0.00  0.00     0.028 C 
ATOM      5  C   LIG d   1      13.912  78.977 113.234  0.00  0.00    -0.047 C 
ATOM      6  C   LIG d   1      14.144  77.620 113.938  0.00  0.00     0.091 C 
ENDROOT
BRANCH   1   7
ATOM      7  O   LIG d   1      13.279  76.194 115.734  0.00  0.00    -0.368 OA
BRANCH   7   8
ATOM      8  C   LIG d   1      12.874  75.250 114.712  0.00  0.00     0.119 C 
BRANCH   8   9
ATOM      9  C   LIG d   1      11.567  74.587 115.188  0.00  0.00     0.028 C 
ATOM     10  C   LIG d   1      11.309  74.807 116.688  0.00  0.00     0.006 C 
ENDBRANCH   8   9
BRANCH   8  11
ATOM     11  C   LIG d   1      13.883  74.107 114.577  0.00  0.00     0.028 C 
ATOM     12  C   LIG d   1      13.233  72.786 114.134  0.00  0.00     0.006 C 
ENDBRANCH   8  11
ENDBRANCH   7   8
ENDBRANCH   1   7
BRANCH   6  13
ATOM     13  N   LIG d   1      15.585  77.338 114.166  0.00  0.00    -0.311 N 
ATOM     14  C   LIG d   1      16.334  76.624 113.327  0.00  0.00     0.210 C 
ATOM     15  C   LIG d   1      17.791  76.436 113.762  0.00  0.00     0.109 C 
ATOM     16  O   LIG d   1      15.938  76.156 112.249  0.00  0.00    -0.276 OA
ATOM     17  H   LIG d   1      15.995  77.707 115.002  0.00  0.00     0.149 HD
ENDBRANCH   6  13
BRANCH   5  18
ATOM     18  N   LIG d   1      14.477  79.024 111.872  0.00  0.00     0.381 N 
ATOM     19  H   LIG d   1      15.025  79.854 111.761  0.00  0.00    -0.090 HD
ATOM     20  H   LIG d   1      13.723  79.053 111.208  0.00  0.00    -0.090 HD
ATOM     21  H   LIG d   1      15.042  78.220 111.709  0.00  0.00    -0.090 HD
ENDBRANCH   5  18
BRANCH   3  22
ATOM     22  C   LIG d   1      10.587  79.840 114.544  0.00  0.00     0.382 C 
ATOM     23  O   LIG d   1       9.495  79.274 114.794  0.00  0.00    -0.241 OA
ATOM     24  O   LIG d   1      10.626  81.081 114.442  0.00  0.00    -0.241 OA
ENDBRANCH   3  22
TORSDOF 7
ENDMDL
