MODEL 1
REMARK VINA RESULT:      -5.3      0.000      0.000
REMARK  7 active torsions:
REMARK  status: ('A' for Active; 'I' for Inactive)
REMARK    1  A    between atoms: C_2  and  C_3 
REMARK    2  A    between atoms: C_3  and  O_6 
REMARK    3  A    between atoms: C_3  and  C_4 
REMARK    4  A    between atoms: C_7  and  O_6 
REMARK    5  A    between atoms: C_9  and  C_10 
REMARK    6  A    between atoms: N_15  and  C_14 
REMARK    7  A    between atoms: N_20  and  C_19 
REMARK       I    between atoms: C_22  and  N_20 
ROOT
ATOM      1  C   LIG d   1      -7.939  74.919 118.041  0.00  0.00     0.161 C 
ATOM      2  C   LIG d   1      -8.987  75.853 118.038  0.00  0.00     0.016 C 
ATOM      3  C   LIG d   1      -8.790  77.245 118.191  0.00  0.00     0.038 C 
ATOM      4  C   LIG d   1      -7.508  77.815 118.206  0.00  0.00     0.028 C 
ATOM      5  C   LIG d   1      -6.430  76.867 118.719  0.00  0.00    -0.047 C 
ATOM      6  C   LIG d   1      -6.526  75.532 117.945  0.00  0.00     0.091 C 
ENDROOT
BRANCH   1   7
ATOM      7  O   LIG d   1      -8.140  73.955 116.988  0.00  0.00    -0.368 OA
BRANCH   7   8
ATOM      8  C   LIG d   1      -8.306  72.579 117.407  0.00  0.00     0.119 C 
BRANCH   8   9
ATOM      9  C   LIG d   1      -7.283  71.731 116.627  0.00  0.00     0.028 C 
ATOM     10  C   LIG d   1      -6.605  72.522 115.496  0.00  0.00     0.006 C 
ENDBRANCH   8   9
BRANCH   8  11
ATOM     11  C   LIG d   1      -9.678  72.034 117.000  0.00  0.00     0.028 C 
ATOM     12  C   LIG d   1      -9.757  70.501 117.075  0.00  0.00     0.006 C 
ENDBRANCH   8  11
ENDBRANCH   7   8
ENDBRANCH   1   7
BRANCH   6  13
ATOM     13  N   LIG d   1      -5.560  74.517 118.442  0.00  0.00    -0.311 N 
ATOM     14  C   LIG d   1      -4.377  74.291 117.874  0.00  0.00     0.210 C 
ATOM     15  C   LIG d   1      -3.544  73.187 118.533  0.00  0.00     0.109 C 
ATOM     16  O   LIG d   1      -3.925  74.921 116.906  0.00  0.00    -0.276 OA
ATOM     17  H   LIG d   1      -5.833  73.982 119.243  0.00  0.00     0.149 HD
ENDBRANCH   6  13
BRANCH   5  18
ATOM     18  N   LIG d   1      -5.128  77.540 118.551  0.00  0.00     0.381 N 
ATOM     19  H   LIG d   1      -5.265  78.447 118.153  0.00  0.00    -0.090 HD
ATOM     20  H   LIG d   1      -4.562  77.001 117.919  0.00  0.00    -0.090 HD
ATOM     21  H   LIG d   1      -4.670  77.621 119.432  0.00  0.00    -0.090 HD
ENDBRANCH   5  18
BRANCH   3  22
ATOM     22  C   LIG d   1      -9.883  78.078 118.371  0.00  0.00     0.382 C 
ATOM     23  O   LIG d   1      -9.765  79.315 118.195  0.00  0.00    -0.241 OA
ATOM     24  O   LIG d   1     -10.976  77.615 118.751  0.00  0.00    -0.241 OA
ENDBRANCH   3  22
TORSDOF 7
ENDMDL
MODEL 2
REMARK VINA RESULT:      -5.2      2.565      5.292
REMARK  7 active torsions:
REMARK  status: ('A' for Active; 'I' for Inactive)
REMARK    1  A    between atoms: C_2  and  C_3 
REMARK    2  A    between atoms: C_3  and  O_6 
REMARK    3  A    between atoms: C_3  and  C_4 
REMARK    4  A    between atoms: C_7  and  O_6 
REMARK    5  A    between atoms: C_9  and  C_10 
REMARK    6  A    between atoms: N_15  and  C_14 
REMARK    7  A    between atoms: N_20  and  C_19 
REMARK       I    between atoms: C_22  and  N_20 
ROOT
ATOM      1  C   LIG d   1      -7.323  74.043 117.988  0.00  0.00     0.161 C 
ATOM      2  C   LIG d   1      -6.424  75.042 117.581  0.00  0.00     0.016 C 
ATOM      3  C   LIG d   1      -5.680  74.978 116.381  0.00  0.00     0.038 C 
ATOM      4  C   LIG d   1      -5.899  73.974 115.426  0.00  0.00     0.028 C 
ATOM      5  C   LIG d   1      -6.430  72.675 116.023  0.00  0.00    -0.047 C 
ATOM      6  C   LIG d   1      -7.657  72.995 116.906  0.00  0.00     0.091 C 
ENDROOT
BRANCH   1   7
ATOM      7  O   LIG d   1      -8.531  74.647 118.491  0.00  0.00    -0.368 OA
BRANCH   7   8
ATOM      8  C   LIG d   1      -9.032  75.785 117.746  0.00  0.00     0.119 C 
BRANCH   8   9
ATOM      9  C   LIG d   1      -8.984  77.008 118.682  0.00  0.00     0.028 C 
ATOM     10  C   LIG d   1      -8.198  78.182 118.074  0.00  0.00     0.006 C 
ENDBRANCH   8   9
BRANCH   8  11
ATOM     11  C   LIG d   1     -10.510  75.608 117.385  0.00  0.00     0.028 C 
ATOM     12  C   LIG d   1     -11.450  76.359 118.340  0.00  0.00     0.006 C 
ENDBRANCH   8  11
ENDBRANCH   7   8
ENDBRANCH   1   7
BRANCH   6  13
ATOM     13  N   LIG d   1      -8.188  71.790 117.596  0.00  0.00    -0.311 N 
ATOM     14  C   LIG d   1      -9.118  70.994 117.071  0.00  0.00     0.210 C 
ATOM     15  C   LIG d   1      -9.539  69.818 117.958  0.00  0.00     0.109 C 
ATOM     16  O   LIG d   1      -9.611  71.132 115.942  0.00  0.00    -0.276 OA
ATOM     17  H   LIG d   1      -7.820  71.586 118.505  0.00  0.00     0.149 HD
ENDBRANCH   6  13
BRANCH   5  18
ATOM     18  N   LIG d   1      -6.743  71.766 114.905  0.00  0.00     0.381 N 
ATOM     19  H   LIG d   1      -7.189  70.941 115.254  0.00  0.00    -0.090 HD
ATOM     20  H   LIG d   1      -5.886  71.495 114.456  0.00  0.00    -0.090 HD
ATOM     21  H   LIG d   1      -7.339  72.222 114.250  0.00  0.00    -0.090 HD
ENDBRANCH   5  18
BRANCH   3  22
ATOM     22  C   LIG d   1      -4.675  75.904 116.144  0.00  0.00     0.382 C 
ATOM     23  O   LIG d   1      -3.582  75.813 116.754  0.00  0.00    -0.241 OA
ATOM     24  O   LIG d   1      -4.863  76.855 115.362  0.00  0.00    -0.241 OA
ENDBRANCH   3  22
TORSDOF 7
ENDMDL
MODEL 3
REMARK VINA RESULT:      -5.1      1.279      2.087
REMARK  7 active torsions:
REMARK  status: ('A' for Active; 'I' for Inactive)
REMARK    1  A    between atoms: C_2  and  C_3 
REMARK    2  A    between atoms: C_3  and  O_6 
REMARK    3  A    between atoms: C_3  and  C_4 
REMARK    4  A    between atoms: C_7  and  O_6 
REMARK    5  A    between atoms: C_9  and  C_10 
REMARK    6  A    between atoms: N_15  and  C_14 
REMARK    7  A    between atoms: N_20  and  C_19 
REMARK       I    between atoms: C_22  and  N_20 
ROOT
ATOM      1  C   LIG d   1      -6.916  74.265 118.363  0.00  0.00     0.161 C 
ATOM      2  C   LIG d   1      -8.251  74.701 118.308  0.00  0.00     0.016 C 
ATOM      3  C   LIG d   1      -8.639  75.953 117.778  0.00  0.00     0.038 C 
ATOM      4  C   LIG d   1      -7.728  76.796 117.125  0.00  0.00     0.028 C 
ATOM      5  C   LIG d   1      -6.291  76.624 117.606  0.00  0.00    -0.047 C 
ATOM      6  C   LIG d   1      -5.921  75.124 117.555  0.00  0.00     0.091 C 
ENDROOT
BRANCH   1   7
ATOM      7  O   LIG d   1      -6.836  72.885 117.953  0.00  0.00    -0.368 OA
BRANCH   7   8
ATOM      8  C   LIG d   1      -8.054  72.304 117.428  0.00  0.00     0.119 C 
BRANCH   8   9
ATOM      9  C   LIG d   1      -8.420  71.106 118.325  0.00  0.00     0.028 C 
ATOM     10  C   LIG d   1      -9.470  70.187 117.678  0.00  0.00     0.006 C 
ENDBRANCH   8   9
BRANCH   8  11
ATOM     11  C   LIG d   1      -7.834  71.713 116.032  0.00  0.00     0.028 C 
ATOM     12  C   LIG d   1      -6.500  72.148 115.405  0.00  0.00     0.006 C 
ENDBRANCH   8  11
ENDBRANCH   7   8
ENDBRANCH   1   7
BRANCH   6  13
ATOM     13  N   LIG d   1      -4.560  74.857 118.089  0.00  0.00    -0.311 N 
ATOM     14  C   LIG d   1      -3.463  74.861 117.334  0.00  0.00     0.210 C 
ATOM     15  C   LIG d   1      -2.164  74.541 118.080  0.00  0.00     0.109 C 
ATOM     16  O   LIG d   1      -3.438  75.130 116.123  0.00  0.00    -0.276 OA
ATOM     17  H   LIG d   1      -4.485  74.660 119.067  0.00  0.00     0.149 HD
ENDBRANCH   6  13
BRANCH   5  18
ATOM     18  N   LIG d   1      -5.430  77.461 116.749  0.00  0.00     0.381 N 
ATOM     19  H   LIG d   1      -4.475  77.186 116.857  0.00  0.00    -0.090 HD
ATOM     20  H   LIG d   1      -5.517  78.419 117.038  0.00  0.00    -0.090 HD
ATOM     21  H   LIG d   1      -5.705  77.368 115.796  0.00  0.00    -0.090 HD
ENDBRANCH   5  18
BRANCH   3  22
ATOM     22  C   LIG d   1      -9.946  76.390 117.934  0.00  0.00     0.382 C 
ATOM     23  O   LIG d   1     -10.900  75.613 117.689  0.00  0.00    -0.241 OA
ATOM     24  O   LIG d   1     -10.182  77.564 118.275  0.00  0.00    -0.241 OA
ENDBRANCH   3  22
TORSDOF 7
ENDMDL
MODEL 4
REMARK VINA RESULT:      -4.9      1.912      4.936
REMARK  7 active torsions:
REMARK  status: ('A' for Active; 'I' for Inactive)
REMARK    1  A    between atoms: C_2  and  C_3 
REMARK    2  A    between atoms: C_3  and  O_6 
REMARK    3  A    between atoms: C_3  and  C_4 
REMARK    4  A    between atoms: C_7  and  O_6 
REMARK    5  A    between atoms: C_9  and  C_10 
REMARK    6  A    between atoms: N_15  and  C_14 
REMARK    7  A    between atoms: N_20  and  C_19 
REMARK       I    between atoms: C_22  and  N_20 
ROOT
ATOM      1  C   LIG d   1      -7.467  75.202 117.516  0.00  0.00     0.161 C 
ATOM      2  C   LIG d   1      -8.434  74.195 117.365  0.00  0.00     0.016 C 
ATOM      3  C   LIG d   1      -8.123  72.816 117.332  0.00  0.00     0.038 C 
ATOM      4  C   LIG d   1      -6.831  72.340 117.600  0.00  0.00     0.028 C 
ATOM      5  C   LIG d   1      -5.734  73.342 117.256  0.00  0.00    -0.047 C 
ATOM      6  C   LIG d   1      -6.066  74.698 117.921  0.00  0.00     0.091 C 
ENDROOT
BRANCH   1   7
ATOM      7  O   LIG d   1      -7.933  76.192 118.454  0.00  0.00    -0.368 OA
BRANCH   7   8
ATOM      8  C   LIG d   1      -8.800  77.221 117.916  0.00  0.00     0.119 C 
BRANCH   8   9
ATOM      9  C   LIG d   1      -8.051  78.563 118.029  0.00  0.00     0.028 C 
ATOM     10  C   LIG d   1      -9.004  79.751 118.243  0.00  0.00     0.006 C 
ENDBRANCH   8   9
BRANCH   8  11
ATOM     11  C   LIG d   1     -10.062  77.388 118.768  0.00  0.00     0.028 C 
ATOM     12  C   LIG d   1     -11.207  76.465 118.322  0.00  0.00     0.006 C 
ENDBRANCH   8  11
ENDBRANCH   7   8
ENDBRANCH   1   7
BRANCH   6  13
ATOM     13  N   LIG d   1      -5.086  75.758 117.566  0.00  0.00    -0.311 N 
ATOM     14  C   LIG d   1      -4.001  76.025 118.290  0.00  0.00     0.210 C 
ATOM     15  C   LIG d   1      -3.134  77.171 117.757  0.00  0.00     0.109 C 
ATOM     16  O   LIG d   1      -3.656  75.400 119.304  0.00  0.00    -0.276 OA
ATOM     17  H   LIG d   1      -5.272  76.293 116.740  0.00  0.00     0.149 HD
ENDBRANCH   6  13
BRANCH   5  18
ATOM     18  N   LIG d   1      -4.452  72.773 117.713  0.00  0.00     0.381 N 
ATOM     19  H   LIG d   1      -4.072  72.181 117.001  0.00  0.00    -0.090 HD
ATOM     20  H   LIG d   1      -4.617  72.216 118.532  0.00  0.00    -0.090 HD
ATOM     21  H   LIG d   1      -3.810  73.505 117.924  0.00  0.00    -0.090 HD
ENDBRANCH   5  18
BRANCH   3  22
ATOM     22  C   LIG d   1      -9.105  71.898 116.988  0.00  0.00     0.382 C 
ATOM     23  O   LIG d   1      -8.952  71.165 115.982  0.00  0.00    -0.241 OA
ATOM     24  O   LIG d   1     -10.160  71.825 117.647  0.00  0.00    -0.241 OA
ENDBRANCH   3  22
TORSDOF 7
ENDMDL
MODEL 5
REMARK VINA RESULT:      -4.7     15.679     17.571
REMARK  7 active torsions:
REMARK  status: ('A' for Active; 'I' for Inactive)
REMARK    1  A    between atoms: C_2  and  C_3 
REMARK    2  A    between atoms: C_3  and  O_6 
REMARK    3  A    between atoms: C_3  and  C_4 
REMARK    4  A    between atoms: C_7  and  O_6 
REMARK    5  A    between atoms: C_9  and  C_10 
REMARK    6  A    between atoms: N_15  and  C_14 
REMARK    7  A    between atoms: N_20  and  C_19 
REMARK       I    between atoms: C_22  and  N_20 
ROOT
ATOM      1  C   LIG d   1      -2.939  91.749 117.669  0.00  0.00     0.161 C 
ATOM      2  C   LIG d   1      -4.227  92.309 117.707  0.00  0.00     0.016 C 
ATOM      3  C   LIG d   1      -5.327  91.779 116.993  0.00  0.00     0.038 C 
ATOM      4  C   LIG d   1      -5.247  90.557 116.309  0.00  0.00     0.028 C 
ATOM      5  C   LIG d   1      -3.839  90.222 115.829  0.00  0.00    -0.047 C 
ATOM      6  C   LIG d   1      -2.859  90.353 117.018  0.00  0.00     0.091 C 
ENDROOT
BRANCH   1   7
ATOM      7  O   LIG d   1      -2.383  91.714 118.999  0.00  0.00    -0.368 OA
BRANCH   7   8
ATOM      8  C   LIG d   1      -1.341  92.681 119.279  0.00  0.00     0.119 C 
BRANCH   8   9
ATOM      9  C   LIG d   1      -1.299  93.672 118.100  0.00  0.00     0.028 C 
ATOM     10  C   LIG d   1      -1.508  95.128 118.548  0.00  0.00     0.006 C 
ENDBRANCH   8   9
BRANCH   8  11
ATOM     11  C   LIG d   1       0.041  92.020 119.304  0.00  0.00     0.028 C 
ATOM     12  C   LIG d   1       0.959  92.518 118.176  0.00  0.00     0.006 C 
ENDBRANCH   8  11
ENDBRANCH   7   8
ENDBRANCH   1   7
BRANCH   6  13
ATOM     13  N   LIG d   1      -1.447  90.124 116.616  0.00  0.00    -0.311 N 
ATOM     14  C   LIG d   1      -0.667  89.198 117.171  0.00  0.00     0.210 C 
ATOM     15  C   LIG d   1       0.762  89.143 116.623  0.00  0.00     0.109 C 
ATOM     16  O   LIG d   1      -1.033  88.396 118.043  0.00  0.00    -0.276 OA
ATOM     17  H   LIG d   1      -1.077  90.711 115.893  0.00  0.00     0.149 HD
ENDBRANCH   6  13
BRANCH   5  18
ATOM     18  N   LIG d   1      -3.875  88.863 115.256  0.00  0.00     0.381 N 
ATOM     19  H   LIG d   1      -4.712  88.396 115.544  0.00  0.00    -0.090 HD
ATOM     20  H   LIG d   1      -3.088  88.343 115.604  0.00  0.00    -0.090 HD
ATOM     21  H   LIG d   1      -3.837  88.911 114.262  0.00  0.00    -0.090 HD
ENDBRANCH   5  18
BRANCH   3  22
ATOM     22  C   LIG d   1      -6.512  92.495 116.927  0.00  0.00     0.382 C 
ATOM     23  O   LIG d   1      -7.249  92.583 117.939  0.00  0.00    -0.241 OA
ATOM     24  O   LIG d   1      -6.876  93.016 115.856  0.00  0.00    -0.241 OA
ENDBRANCH   3  22
TORSDOF 7
ENDMDL
MODEL 6
REMARK VINA RESULT:      -4.5     14.463     16.194
REMARK  7 active torsions:
REMARK  status: ('A' for Active; 'I' for Inactive)
REMARK    1  A    between atoms: C_2  and  C_3 
REMARK    2  A    between atoms: C_3  and  O_6 
REMARK    3  A    between atoms: C_3  and  C_4 
REMARK    4  A    between atoms: C_7  and  O_6 
REMARK    5  A    between atoms: C_9  and  C_10 
REMARK    6  A    between atoms: N_15  and  C_14 
REMARK    7  A    between atoms: N_20  and  C_19 
REMARK       I    between atoms: C_22  and  N_20 
ROOT
ATOM      1  C   LIG d   1       1.544  87.069 114.906  0.00  0.00     0.161 C 
ATOM      2  C   LIG d   1       0.517  86.509 114.128  0.00  0.00     0.016 C 
ATOM      3  C   LIG d   1       0.697  86.083 112.792  0.00  0.00     0.038 C 
ATOM      4  C   LIG d   1       1.963  86.050 112.189  0.00  0.00     0.028 C 
ATOM      5  C   LIG d   1       2.934  87.076 112.762  0.00  0.00    -0.047 C 
ATOM      6  C   LIG d   1       2.957  86.939 114.302  0.00  0.00     0.091 C 
ENDROOT
BRANCH   1   7
ATOM      7  O   LIG d   1       1.512  86.509 116.234  0.00  0.00    -0.368 OA
BRANCH   7   8
ATOM      8  C   LIG d   1       0.981  87.366 117.274  0.00  0.00     0.119 C 
BRANCH   8   9
ATOM      9  C   LIG d   1       0.912  88.797 116.706  0.00  0.00     0.028 C 
ATOM     10  C   LIG d   1       1.821  89.775 117.468  0.00  0.00     0.006 C 
ENDBRANCH   8   9
BRANCH   8  11
ATOM     11  C   LIG d   1       1.935  87.450 118.469  0.00  0.00     0.028 C 
ATOM     12  C   LIG d   1       2.506  86.081 118.873  0.00  0.00     0.006 C 
ENDBRANCH   8  11
ENDBRANCH   7   8
ENDBRANCH   1   7
BRANCH   6  13
ATOM     13  N   LIG d   1       3.819  87.962 114.949  0.00  0.00    -0.311 N 
ATOM     14  C   LIG d   1       4.703  87.678 115.904  0.00  0.00     0.210 C 
ATOM     15  C   LIG d   1       5.475  88.883 116.450  0.00  0.00     0.109 C 
ATOM     16  O   LIG d   1       4.944  86.538 116.329  0.00  0.00    -0.276 OA
ATOM     17  H   LIG d   1       3.712  88.909 114.642  0.00  0.00     0.149 HD
ENDBRANCH   6  13
BRANCH   5  18
ATOM     18  N   LIG d   1       4.251  86.839 112.141  0.00  0.00     0.381 N 
ATOM     19  H   LIG d   1       4.245  87.170 111.197  0.00  0.00    -0.090 HD
ATOM     20  H   LIG d   1       4.431  85.850 112.127  0.00  0.00    -0.090 HD
ATOM     21  H   LIG d   1       4.962  87.305 112.660  0.00  0.00    -0.090 HD
ENDBRANCH   5  18
BRANCH   3  22
ATOM     22  C   LIG d   1      -0.405  85.721 112.032  0.00  0.00     0.382 C 
ATOM     23  O   LIG d   1      -0.925  86.551 111.247  0.00  0.00    -0.241 OA
ATOM     24  O   LIG d   1      -0.912  84.590 112.153  0.00  0.00    -0.241 OA
ENDBRANCH   3  22
TORSDOF 7
ENDMDL
MODEL 7
REMARK VINA RESULT:      -4.5      2.514      5.448
REMARK  7 active torsions:
REMARK  status: ('A' for Active; 'I' for Inactive)
REMARK    1  A    between atoms: C_2  and  C_3 
REMARK    2  A    between atoms: C_3  and  O_6 
REMARK    3  A    between atoms: C_3  and  C_4 
REMARK    4  A    between atoms: C_7  and  O_6 
REMARK    5  A    between atoms: C_9  and  C_10 
REMARK    6  A    between atoms: N_15  and  C_14 
REMARK    7  A    between atoms: N_20  and  C_19 
REMARK       I    between atoms: C_22  and  N_20 
ROOT
ATOM      1  C   LIG d   1      -7.228  74.034 119.013  0.00  0.00     0.161 C 
ATOM      2  C   LIG d   1      -6.079  74.826 119.170  0.00  0.00     0.016 C 
ATOM      3  C   LIG d   1      -4.870  74.592 118.475  0.00  0.00     0.038 C 
ATOM      4  C   LIG d   1      -4.776  73.633 117.455  0.00  0.00     0.028 C 
ATOM      5  C   LIG d   1      -5.758  72.478 117.617  0.00  0.00    -0.047 C 
ATOM      6  C   LIG d   1      -7.178  73.052 117.823  0.00  0.00     0.091 C 
ENDROOT
BRANCH   1   7
ATOM      7  O   LIG d   1      -8.393  74.876 118.919  0.00  0.00    -0.368 OA
BRANCH   7   8
ATOM      8  C   LIG d   1      -8.170  76.222 118.430  0.00  0.00     0.119 C 
BRANCH   8   9
ATOM      9  C   LIG d   1      -9.203  77.140 119.112  0.00  0.00     0.028 C 
ATOM     10  C   LIG d   1      -9.367  78.483 118.382  0.00  0.00     0.006 C 
ENDBRANCH   8   9
BRANCH   8  11
ATOM     11  C   LIG d   1      -8.462  76.326 116.931  0.00  0.00     0.028 C 
ATOM     12  C   LIG d   1      -7.185  76.381 116.077  0.00  0.00     0.006 C 
ENDBRANCH   8  11
ENDBRANCH   7   8
ENDBRANCH   1   7
BRANCH   6  13
ATOM     13  N   LIG d   1      -8.188  71.991 118.074  0.00  0.00    -0.311 N 
ATOM     14  C   LIG d   1      -8.773  71.292 117.103  0.00  0.00     0.210 C 
ATOM     15  C   LIG d   1      -9.800  70.259 117.578  0.00  0.00     0.109 C 
ATOM     16  O   LIG d   1      -8.516  71.407 115.895  0.00  0.00    -0.276 OA
ATOM     17  H   LIG d   1      -8.433  71.810 119.028  0.00  0.00     0.149 HD
ENDBRANCH   6  13
BRANCH   5  18
ATOM     18  N   LIG d   1      -5.647  71.627 116.417  0.00  0.00     0.381 N 
ATOM     19  H   LIG d   1      -6.560  71.415 116.066  0.00  0.00    -0.090 HD
ATOM     20  H   LIG d   1      -5.199  70.764 116.671  0.00  0.00    -0.090 HD
ATOM     21  H   LIG d   1      -5.114  72.094 115.716  0.00  0.00    -0.090 HD
ENDBRANCH   5  18
BRANCH   3  22
ATOM     22  C   LIG d   1      -3.728  75.295 118.826  0.00  0.00     0.382 C 
ATOM     23  O   LIG d   1      -3.807  76.510 119.126  0.00  0.00    -0.241 OA
ATOM     24  O   LIG d   1      -2.613  74.740 118.803  0.00  0.00    -0.241 OA
ENDBRANCH   3  22
TORSDOF 7
ENDMDL
MODEL 8
REMARK VINA RESULT:      -4.4     13.778     15.790
REMARK  7 active torsions:
REMARK  status: ('A' for Active; 'I' for Inactive)
REMARK    1  A    between atoms: C_2  and  C_3 
REMARK    2  A    between atoms: C_3  and  O_6 
REMARK    3  A    between atoms: C_3  and  C_4 
REMARK    4  A    between atoms: C_7  and  O_6 
REMARK    5  A    between atoms: C_9  and  C_10 
REMARK    6  A    between atoms: N_15  and  C_14 
REMARK    7  A    between atoms: N_20  and  C_19 
REMARK       I    between atoms: C_22  and  N_20 
ROOT
ATOM      1  C   LIG d   1       1.448  87.089 115.107  0.00  0.00     0.161 C 
ATOM      2  C   LIG d   1       0.476  86.502 114.280  0.00  0.00     0.016 C 
ATOM      3  C   LIG d   1       0.715  86.140 112.934  0.00  0.00     0.038 C 
ATOM      4  C   LIG d   1       1.996  86.203 112.366  0.00  0.00     0.028 C 
ATOM      5  C   LIG d   1       2.891  87.260 113.005  0.00  0.00    -0.047 C 
ATOM      6  C   LIG d   1       2.882  87.063 114.538  0.00  0.00     0.091 C 
ENDROOT
BRANCH   1   7
ATOM      7  O   LIG d   1       1.415  86.476 116.411  0.00  0.00    -0.368 OA
BRANCH   7   8
ATOM      8  C   LIG d   1       2.455  85.505 116.685  0.00  0.00     0.119 C 
BRANCH   8   9
ATOM      9  C   LIG d   1       1.847  84.105 116.477  0.00  0.00     0.028 C 
ATOM     10  C   LIG d   1       2.451  83.378 115.264  0.00  0.00     0.006 C 
ENDBRANCH   8   9
BRANCH   8  11
ATOM     11  C   LIG d   1       2.882  85.547 118.155  0.00  0.00     0.028 C 
ATOM     12  C   LIG d   1       3.236  86.964 118.633  0.00  0.00     0.006 C 
ENDBRANCH   8  11
ENDBRANCH   7   8
ENDBRANCH   1   7
BRANCH   6  13
ATOM     13  N   LIG d   1       3.666  88.108 115.248  0.00  0.00    -0.311 N 
ATOM     14  C   LIG d   1       4.944  87.958 115.592  0.00  0.00     0.210 C 
ATOM     15  C   LIG d   1       5.558  89.149 116.334  0.00  0.00     0.109 C 
ATOM     16  O   LIG d   1       5.636  86.964 115.325  0.00  0.00    -0.276 OA
ATOM     17  H   LIG d   1       3.190  88.959 115.476  0.00  0.00     0.149 HD
ENDBRANCH   6  13
BRANCH   5  18
ATOM     18  N   LIG d   1       4.235  87.123 112.412  0.00  0.00     0.381 N 
ATOM     19  H   LIG d   1       4.696  86.324 112.799  0.00  0.00    -0.090 HD
ATOM     20  H   LIG d   1       4.775  87.939 112.640  0.00  0.00    -0.090 HD
ATOM     21  H   LIG d   1       4.163  87.028 111.423  0.00  0.00    -0.090 HD
ENDBRANCH   5  18
BRANCH   3  22
ATOM     22  C   LIG d   1      -0.344  85.747 112.130  0.00  0.00     0.382 C 
ATOM     23  O   LIG d   1      -0.838  86.552 111.305  0.00  0.00    -0.241 OA
ATOM     24  O   LIG d   1      -0.841  84.611 112.250  0.00  0.00    -0.241 OA
ENDBRANCH   3  22
TORSDOF 7
ENDMDL
MODEL 9
REMARK VINA RESULT:      -4.4      2.485      5.483
REMARK  7 active torsions:
REMARK  status: ('A' for Active; 'I' for Inactive)
REMARK    1  A    between atoms: C_2  and  C_3 
REMARK    2  A    between atoms: C_3  and  O_6 
REMARK    3  A    between atoms: C_3  and  C_4 
REMARK    4  A    between atoms: C_7  and  O_6 
REMARK    5  A    between atoms: C_9  and  C_10 
REMARK    6  A    between atoms: N_15  and  C_14 
REMARK    7  A    between atoms: N_20  and  C_19 
REMARK       I    between atoms: C_22  and  N_20 
ROOT
ATOM      1  C   LIG d   1      -5.577  75.905 115.843  0.00  0.00     0.161 C 
ATOM      2  C   LIG d   1      -6.677  75.072 116.106  0.00  0.00     0.016 C 
ATOM      3  C   LIG d   1      -6.600  73.913 116.913  0.00  0.00     0.038 C 
ATOM      4  C   LIG d   1      -5.444  73.591 117.640  0.00  0.00     0.028 C 
ATOM      5  C   LIG d   1      -4.163  74.123 117.007  0.00  0.00    -0.047 C 
ATOM      6  C   LIG d   1      -4.335  75.632 116.718  0.00  0.00     0.091 C 
ENDROOT
BRANCH   1   7
ATOM      7  O   LIG d   1      -5.973  77.287 115.954  0.00  0.00    -0.368 OA
BRANCH   7   8
ATOM      8  C   LIG d   1      -5.899  77.866 117.280  0.00  0.00     0.119 C 
BRANCH   8   9
ATOM      9  C   LIG d   1      -7.333  78.241 117.702  0.00  0.00     0.028 C 
ATOM     10  C   LIG d   1      -7.914  77.264 118.738  0.00  0.00     0.006 C 
ENDBRANCH   8   9
BRANCH   8  11
ATOM     11  C   LIG d   1      -5.122  79.186 117.269  0.00  0.00     0.028 C 
ATOM     12  C   LIG d   1      -5.998  80.396 117.632  0.00  0.00     0.006 C 
ENDBRANCH   8  11
ENDBRANCH   7   8
ENDBRANCH   1   7
BRANCH   6  13
ATOM     13  N   LIG d   1      -3.158  76.213 116.021  0.00  0.00    -0.311 N 
ATOM     14  C   LIG d   1      -2.171  76.847 116.653  0.00  0.00     0.210 C 
ATOM     15  C   LIG d   1      -1.063  77.387 115.744  0.00  0.00     0.109 C 
ATOM     16  O   LIG d   1      -2.093  76.984 117.883  0.00  0.00    -0.276 OA
ATOM     17  H   LIG d   1      -3.125  76.120 115.025  0.00  0.00     0.149 HD
ENDBRANCH   6  13
BRANCH   5  18
ATOM     18  N   LIG d   1      -3.054  73.836 117.937  0.00  0.00     0.381 N 
ATOM     19  H   LIG d   1      -2.728  74.687 118.349  0.00  0.00    -0.090 HD
ATOM     20  H   LIG d   1      -2.296  73.424 117.421  0.00  0.00    -0.090 HD
ATOM     21  H   LIG d   1      -3.360  73.209 118.649  0.00  0.00    -0.090 HD
ENDBRANCH   5  18
BRANCH   3  22
ATOM     22  C   LIG d   1      -7.676  73.041 116.966  0.00  0.00     0.382 C 
ATOM     23  O   LIG d   1      -7.631  71.950 116.348  0.00  0.00    -0.241 OA
ATOM     24  O   LIG d   1      -8.710  73.350 117.589  0.00  0.00    -0.241 OA
ENDBRANCH   3  22
TORSDOF 7
ENDMDL
