MODEL 1
REMARK VINA RESULT:      -5.5      0.000      0.000
REMARK  7 active torsions:
REMARK  status: ('A' for Active; 'I' for Inactive)
REMARK    1  A    between atoms: C_2  and  C_3 
REMARK    2  A    between atoms: C_3  and  O_6 
REMARK    3  A    between atoms: C_3  and  C_4 
REMARK    4  A    between atoms: C_7  and  O_6 
REMARK    5  A    between atoms: C_9  and  C_10 
REMARK    6  A    between atoms: N_15  and  C_14 
REMARK    7  A    between atoms: N_20  and  C_19 
REMARK       I    between atoms: C_22  and  N_20 
ROOT
ATOM      1  C   LIG d   1      -8.036  74.945 117.947  0.00  0.00     0.161 C 
ATOM      2  C   LIG d   1      -9.180  75.666 118.329  0.00  0.00     0.016 C 
ATOM      3  C   LIG d   1      -9.247  77.078 118.324  0.00  0.00     0.038 C 
ATOM      4  C   LIG d   1      -8.218  77.867 117.789  0.00  0.00     0.028 C 
ATOM      5  C   LIG d   1      -6.847  77.204 117.860  0.00  0.00    -0.047 C 
ATOM      6  C   LIG d   1      -6.943  75.785 117.255  0.00  0.00     0.091 C 
ENDROOT
BRANCH   1   7
ATOM      7  O   LIG d   1      -8.417  73.832 117.113  0.00  0.00    -0.368 OA
BRANCH   7   8
ATOM      8  C   LIG d   1      -8.762  72.607 117.803  0.00  0.00     0.119 C 
BRANCH   8   9
ATOM      9  C   LIG d   1      -8.045  71.450 117.080  0.00  0.00     0.028 C 
ATOM     10  C   LIG d   1      -7.295  71.919 115.822  0.00  0.00     0.006 C 
ENDBRANCH   8   9
BRANCH   8  11
ATOM     11  C   LIG d   1     -10.257  72.299 117.677  0.00  0.00     0.028 C 
ATOM     12  C   LIG d   1     -10.553  70.792 117.626  0.00  0.00     0.006 C 
ENDBRANCH   8  11
ENDBRANCH   7   8
ENDBRANCH   1   7
BRANCH   6  13
ATOM     13  N   LIG d   1      -5.664  75.035 117.361  0.00  0.00    -0.311 N 
ATOM     14  C   LIG d   1      -4.801  74.911 116.354  0.00  0.00     0.210 C 
ATOM     15  C   LIG d   1      -3.554  74.080 116.671  0.00  0.00     0.109 C 
ATOM     16  O   LIG d   1      -4.935  75.437 115.239  0.00  0.00    -0.276 OA
ATOM     17  H   LIG d   1      -5.461  74.603 118.241  0.00  0.00     0.149 HD
ENDBRANCH   6  13
BRANCH   5  18
ATOM     18  N   LIG d   1      -5.893  78.074 117.146  0.00  0.00     0.381 N 
ATOM     19  H   LIG d   1      -5.358  78.604 117.805  0.00  0.00    -0.090 HD
ATOM     20  H   LIG d   1      -6.408  78.716 116.569  0.00  0.00    -0.090 HD
ATOM     21  H   LIG d   1      -5.286  77.523 116.580  0.00  0.00    -0.090 HD
ENDBRANCH   5  18
BRANCH   3  22
ATOM     22  C   LIG d   1     -10.337  77.716 118.896  0.00  0.00     0.382 C 
ATOM     23  O   LIG d   1     -11.443  77.128 118.963  0.00  0.00    -0.241 OA
ATOM     24  O   LIG d   1     -10.240  78.889 119.304  0.00  0.00    -0.241 OA
ENDBRANCH   3  22
TORSDOF 7
ENDMDL
MODEL 2
REMARK VINA RESULT:      -5.4      3.734      6.343
REMARK  7 active torsions:
REMARK  status: ('A' for Active; 'I' for Inactive)
REMARK    1  A    between atoms: C_2  and  C_3 
REMARK    2  A    between atoms: C_3  and  O_6 
REMARK    3  A    between atoms: C_3  and  C_4 
REMARK    4  A    between atoms: C_7  and  O_6 
REMARK    5  A    between atoms: C_9  and  C_10 
REMARK    6  A    between atoms: N_15  and  C_14 
REMARK    7  A    between atoms: N_20  and  C_19 
REMARK       I    between atoms: C_22  and  N_20 
ROOT
ATOM      1  C   LIG d   1      -3.672  75.922 115.274  0.00  0.00     0.161 C 
ATOM      2  C   LIG d   1      -3.802  76.661 114.086  0.00  0.00     0.016 C 
ATOM      3  C   LIG d   1      -2.717  77.306 113.448  0.00  0.00     0.038 C 
ATOM      4  C   LIG d   1      -1.393  77.129 113.877  0.00  0.00     0.028 C 
ATOM      5  C   LIG d   1      -1.276  76.805 115.362  0.00  0.00    -0.047 C 
ATOM      6  C   LIG d   1      -2.217  75.625 115.695  0.00  0.00     0.091 C 
ENDROOT
BRANCH   1   7
ATOM      7  O   LIG d   1      -4.424  74.697 115.172  0.00  0.00    -0.368 OA
BRANCH   7   8
ATOM      8  C   LIG d   1      -5.371  74.441 116.238  0.00  0.00     0.119 C 
BRANCH   8   9
ATOM      9  C   LIG d   1      -6.658  73.893 115.591  0.00  0.00     0.028 C 
ATOM     10  C   LIG d   1      -7.190  72.641 116.310  0.00  0.00     0.006 C 
ENDBRANCH   8   9
BRANCH   8  11
ATOM     11  C   LIG d   1      -5.789  75.738 116.937  0.00  0.00     0.028 C 
ATOM     12  C   LIG d   1      -7.198  76.204 116.535  0.00  0.00     0.006 C 
ENDBRANCH   8  11
ENDBRANCH   7   8
ENDBRANCH   1   7
BRANCH   6  13
ATOM     13  N   LIG d   1      -2.227  75.299 117.145  0.00  0.00    -0.311 N 
ATOM     14  C   LIG d   1      -2.004  74.076 117.623  0.00  0.00     0.210 C 
ATOM     15  C   LIG d   1      -2.079  73.954 119.148  0.00  0.00     0.109 C 
ATOM     16  O   LIG d   1      -1.719  73.087 116.930  0.00  0.00    -0.276 OA
ATOM     17  H   LIG d   1      -2.419  76.049 117.780  0.00  0.00     0.149 HD
ENDBRANCH   6  13
BRANCH   5  18
ATOM     18  N   LIG d   1       0.142  76.510 115.643  0.00  0.00     0.381 N 
ATOM     19  H   LIG d   1       0.391  76.870 116.543  0.00  0.00    -0.090 HD
ATOM     20  H   LIG d   1       0.712  76.966 114.952  0.00  0.00    -0.090 HD
ATOM     21  H   LIG d   1       0.298  75.526 115.616  0.00  0.00    -0.090 HD
ENDBRANCH   5  18
BRANCH   3  22
ATOM     22  C   LIG d   1      -2.957  78.172 112.392  0.00  0.00     0.382 C 
ATOM     23  O   LIG d   1      -2.820  77.772 111.210  0.00  0.00    -0.241 OA
ATOM     24  O   LIG d   1      -3.266  79.359 112.606  0.00  0.00    -0.241 OA
ENDBRANCH   3  22
TORSDOF 7
ENDMDL
MODEL 3
REMARK VINA RESULT:      -5.3      2.097      4.668
REMARK  7 active torsions:
REMARK  status: ('A' for Active; 'I' for Inactive)
REMARK    1  A    between atoms: C_2  and  C_3 
REMARK    2  A    between atoms: C_3  and  O_6 
REMARK    3  A    between atoms: C_3  and  C_4 
REMARK    4  A    between atoms: C_7  and  O_6 
REMARK    5  A    between atoms: C_9  and  C_10 
REMARK    6  A    between atoms: N_15  and  C_14 
REMARK    7  A    between atoms: N_20  and  C_19 
REMARK       I    between atoms: C_22  and  N_20 
ROOT
ATOM      1  C   LIG d   1      -7.012  75.983 117.864  0.00  0.00     0.161 C 
ATOM      2  C   LIG d   1      -7.736  74.788 117.719  0.00  0.00     0.016 C 
ATOM      3  C   LIG d   1      -9.132  74.694 117.924  0.00  0.00     0.038 C 
ATOM      4  C   LIG d   1      -9.928  75.829 118.141  0.00  0.00     0.028 C 
ATOM      5  C   LIG d   1      -9.173  76.982 118.793  0.00  0.00    -0.047 C 
ATOM      6  C   LIG d   1      -7.880  77.253 117.991  0.00  0.00     0.091 C 
ENDROOT
BRANCH   1   7
ATOM      7  O   LIG d   1      -6.077  76.122 116.776  0.00  0.00    -0.368 OA
BRANCH   7   8
ATOM      8  C   LIG d   1      -5.412  74.908 116.348  0.00  0.00     0.119 C 
BRANCH   8   9
ATOM      9  C   LIG d   1      -3.896  75.128 116.509  0.00  0.00     0.028 C 
ATOM     10  C   LIG d   1      -3.207  73.961 117.235  0.00  0.00     0.006 C 
ENDBRANCH   8   9
BRANCH   8  11
ATOM     11  C   LIG d   1      -5.628  74.651 114.854  0.00  0.00     0.028 C 
ATOM     12  C   LIG d   1      -6.503  75.724 114.186  0.00  0.00     0.006 C 
ENDBRANCH   8  11
ENDBRANCH   7   8
ENDBRANCH   1   7
BRANCH   6  13
ATOM     13  N   LIG d   1      -7.040  78.311 118.610  0.00  0.00    -0.311 N 
ATOM     14  C   LIG d   1      -7.118  79.598 118.277  0.00  0.00     0.210 C 
ATOM     15  C   LIG d   1      -6.148  80.519 119.023  0.00  0.00     0.109 C 
ATOM     16  O   LIG d   1      -7.921  80.069 117.458  0.00  0.00    -0.276 OA
ATOM     17  H   LIG d   1      -6.382  78.021 119.308  0.00  0.00     0.149 HD
ENDBRANCH   6  13
BRANCH   5  18
ATOM     18  N   LIG d   1     -10.082  78.143 118.834  0.00  0.00     0.381 N 
ATOM     19  H   LIG d   1      -9.942  78.712 118.023  0.00  0.00    -0.090 HD
ATOM     20  H   LIG d   1      -9.868  78.694 119.647  0.00  0.00    -0.090 HD
ATOM     21  H   LIG d   1     -11.028  77.834 118.873  0.00  0.00    -0.090 HD
ENDBRANCH   5  18
BRANCH   3  22
ATOM     22  C   LIG d   1      -9.741  73.448 117.952  0.00  0.00     0.382 C 
ATOM     23  O   LIG d   1      -9.071  72.430 118.250  0.00  0.00    -0.241 OA
ATOM     24  O   LIG d   1     -10.940  73.323 117.639  0.00  0.00    -0.241 OA
ENDBRANCH   3  22
TORSDOF 7
ENDMDL
MODEL 4
REMARK VINA RESULT:      -5.3      4.581      6.949
REMARK  7 active torsions:
REMARK  status: ('A' for Active; 'I' for Inactive)
REMARK    1  A    between atoms: C_2  and  C_3 
REMARK    2  A    between atoms: C_3  and  O_6 
REMARK    3  A    between atoms: C_3  and  C_4 
REMARK    4  A    between atoms: C_7  and  O_6 
REMARK    5  A    between atoms: C_9  and  C_10 
REMARK    6  A    between atoms: N_15  and  C_14 
REMARK    7  A    between atoms: N_20  and  C_19 
REMARK       I    between atoms: C_22  and  N_20 
ROOT
ATOM      1  C   LIG d   1      -2.455  75.641 114.933  0.00  0.00     0.161 C 
ATOM      2  C   LIG d   1      -2.406  74.727 115.999  0.00  0.00     0.016 C 
ATOM      3  C   LIG d   1      -1.681  74.958 117.190  0.00  0.00     0.038 C 
ATOM      4  C   LIG d   1      -1.074  76.194 117.461  0.00  0.00     0.028 C 
ATOM      5  C   LIG d   1      -0.672  76.959 116.204  0.00  0.00    -0.047 C 
ATOM      6  C   LIG d   1      -1.890  77.040 115.256  0.00  0.00     0.091 C 
ENDROOT
BRANCH   1   7
ATOM      7  O   LIG d   1      -3.805  75.747 114.441  0.00  0.00    -0.368 OA
BRANCH   7   8
ATOM      8  C   LIG d   1      -4.857  75.508 115.409  0.00  0.00     0.119 C 
BRANCH   8   9
ATOM      9  C   LIG d   1      -5.798  74.441 114.817  0.00  0.00     0.028 C 
ATOM     10  C   LIG d   1      -6.598  73.698 115.900  0.00  0.00     0.006 C 
ENDBRANCH   8   9
BRANCH   8  11
ATOM     11  C   LIG d   1      -5.727  76.753 115.605  0.00  0.00     0.028 C 
ATOM     12  C   LIG d   1      -5.193  77.687 116.702  0.00  0.00     0.006 C 
ENDBRANCH   8  11
ENDBRANCH   7   8
ENDBRANCH   1   7
BRANCH   6  13
ATOM     13  N   LIG d   1      -1.561  77.701 113.966  0.00  0.00    -0.311 N 
ATOM     14  C   LIG d   1      -2.262  78.714 113.460  0.00  0.00     0.210 C 
ATOM     15  C   LIG d   1      -1.764  79.235 112.109  0.00  0.00     0.109 C 
ATOM     16  O   LIG d   1      -3.231  79.251 114.019  0.00  0.00    -0.276 OA
ATOM     17  H   LIG d   1      -0.771  77.348 113.461  0.00  0.00     0.149 HD
ENDBRANCH   6  13
BRANCH   5  18
ATOM     18  N   LIG d   1      -0.180  78.284 116.628  0.00  0.00     0.381 N 
ATOM     19  H   LIG d   1       0.757  78.416 116.303  0.00  0.00    -0.090 HD
ATOM     20  H   LIG d   1      -0.174  78.323 117.632  0.00  0.00    -0.090 HD
ATOM     21  H   LIG d   1      -0.769  78.999 116.263  0.00  0.00    -0.090 HD
ENDBRANCH   5  18
BRANCH   3  22
ATOM     22  C   LIG d   1      -1.524  73.932 118.109  0.00  0.00     0.382 C 
ATOM     23  O   LIG d   1      -2.309  72.953 118.097  0.00  0.00    -0.241 OA
ATOM     24  O   LIG d   1      -0.634  73.994 118.979  0.00  0.00    -0.241 OA
ENDBRANCH   3  22
TORSDOF 7
ENDMDL
MODEL 5
REMARK VINA RESULT:      -5.2      4.810      7.421
REMARK  7 active torsions:
REMARK  status: ('A' for Active; 'I' for Inactive)
REMARK    1  A    between atoms: C_2  and  C_3 
REMARK    2  A    between atoms: C_3  and  O_6 
REMARK    3  A    between atoms: C_3  and  C_4 
REMARK    4  A    between atoms: C_7  and  O_6 
REMARK    5  A    between atoms: C_9  and  C_10 
REMARK    6  A    between atoms: N_15  and  C_14 
REMARK    7  A    between atoms: N_20  and  C_19 
REMARK       I    between atoms: C_22  and  N_20 
ROOT
ATOM      1  C   LIG d   1      -3.074  78.311 115.686  0.00  0.00     0.161 C 
ATOM      2  C   LIG d   1      -3.187  79.367 114.767  0.00  0.00     0.016 C 
ATOM      3  C   LIG d   1      -2.557  79.368 113.501  0.00  0.00     0.038 C 
ATOM      4  C   LIG d   1      -1.890  78.238 113.004  0.00  0.00     0.028 C 
ATOM      5  C   LIG d   1      -1.323  77.339 114.098  0.00  0.00    -0.047 C 
ATOM      6  C   LIG d   1      -2.442  77.023 115.117  0.00  0.00     0.091 C 
ENDROOT
BRANCH   1   7
ATOM      7  O   LIG d   1      -4.364  78.024 116.262  0.00  0.00    -0.368 OA
BRANCH   7   8
ATOM      8  C   LIG d   1      -4.666  78.690 117.512  0.00  0.00     0.119 C 
BRANCH   8   9
ATOM      9  C   LIG d   1      -4.467  77.662 118.644  0.00  0.00     0.028 C 
ATOM     10  C   LIG d   1      -5.105  76.301 118.319  0.00  0.00     0.006 C 
ENDBRANCH   8   9
BRANCH   8  11
ATOM     11  C   LIG d   1      -6.141  79.094 117.586  0.00  0.00     0.028 C 
ATOM     12  C   LIG d   1      -6.337  80.612 117.717  0.00  0.00     0.006 C 
ENDBRANCH   8  11
ENDBRANCH   7   8
ENDBRANCH   1   7
BRANCH   6  13
ATOM     13  N   LIG d   1      -1.951  76.217 116.266  0.00  0.00    -0.311 N 
ATOM     14  C   LIG d   1      -2.030  74.889 116.316  0.00  0.00     0.210 C 
ATOM     15  C   LIG d   1      -1.484  74.257 117.600  0.00  0.00     0.109 C 
ATOM     16  O   LIG d   1      -2.471  74.171 115.405  0.00  0.00    -0.276 OA
ATOM     17  H   LIG d   1      -1.550  76.717 117.035  0.00  0.00     0.149 HD
ENDBRANCH   6  13
BRANCH   5  18
ATOM     18  N   LIG d   1      -0.777  76.134 113.446  0.00  0.00     0.381 N 
ATOM     19  H   LIG d   1      -0.949  75.332 114.019  0.00  0.00    -0.090 HD
ATOM     20  H   LIG d   1       0.217  76.241 113.344  0.00  0.00    -0.090 HD
ATOM     21  H   LIG d   1      -1.199  76.009 112.552  0.00  0.00    -0.090 HD
ENDBRANCH   5  18
BRANCH   3  22
ATOM     22  C   LIG d   1      -2.557  80.523 112.734  0.00  0.00     0.382 C 
ATOM     23  O   LIG d   1      -1.481  80.961 112.260  0.00  0.00    -0.241 OA
ATOM     24  O   LIG d   1      -3.612  81.157 112.548  0.00  0.00    -0.241 OA
ENDBRANCH   3  22
TORSDOF 7
ENDMDL
MODEL 6
REMARK VINA RESULT:      -5.1      4.445      6.885
REMARK  7 active torsions:
REMARK  status: ('A' for Active; 'I' for Inactive)
REMARK    1  A    between atoms: C_2  and  C_3 
REMARK    2  A    between atoms: C_3  and  O_6 
REMARK    3  A    between atoms: C_3  and  C_4 
REMARK    4  A    between atoms: C_7  and  O_6 
REMARK    5  A    between atoms: C_9  and  C_10 
REMARK    6  A    between atoms: N_15  and  C_14 
REMARK    7  A    between atoms: N_20  and  C_19 
REMARK       I    between atoms: C_22  and  N_20 
ROOT
ATOM      1  C   LIG d   1      -3.082  77.378 116.463  0.00  0.00     0.161 C 
ATOM      2  C   LIG d   1      -3.284  78.294 115.417  0.00  0.00     0.016 C 
ATOM      3  C   LIG d   1      -2.586  78.239 114.189  0.00  0.00     0.038 C 
ATOM      4  C   LIG d   1      -1.742  77.167 113.863  0.00  0.00     0.028 C 
ATOM      5  C   LIG d   1      -1.123  76.491 115.082  0.00  0.00    -0.047 C 
ATOM      6  C   LIG d   1      -2.246  76.137 116.083  0.00  0.00     0.091 C 
ENDROOT
BRANCH   1   7
ATOM      7  O   LIG d   1      -4.352  76.977 117.013  0.00  0.00    -0.368 OA
BRANCH   7   8
ATOM      8  C   LIG d   1      -5.529  77.477 116.332  0.00  0.00     0.119 C 
BRANCH   8   9
ATOM      9  C   LIG d   1      -6.402  78.192 117.381  0.00  0.00     0.028 C 
ATOM     10  C   LIG d   1      -5.983  79.657 117.594  0.00  0.00     0.006 C 
ENDBRANCH   8   9
BRANCH   8  11
ATOM     11  C   LIG d   1      -6.393  76.331 115.798  0.00  0.00     0.028 C 
ATOM     12  C   LIG d   1      -5.861  75.747 114.480  0.00  0.00     0.006 C 
ENDBRANCH   8  11
ENDBRANCH   7   8
ENDBRANCH   1   7
BRANCH   6  13
ATOM     13  N   LIG d   1      -1.719  75.548 117.341  0.00  0.00    -0.311 N 
ATOM     14  C   LIG d   1      -1.607  74.237 117.546  0.00  0.00     0.210 C 
ATOM     15  C   LIG d   1      -1.058  73.842 118.921  0.00  0.00     0.109 C 
ATOM     16  O   LIG d   1      -1.880  73.364 116.709  0.00  0.00    -0.276 OA
ATOM     17  H   LIG d   1      -1.444  76.185 118.063  0.00  0.00     0.149 HD
ENDBRANCH   6  13
BRANCH   5  18
ATOM     18  N   LIG d   1      -0.379  75.310 114.606  0.00  0.00     0.381 N 
ATOM     19  H   LIG d   1      -0.984  74.514 114.586  0.00  0.00    -0.090 HD
ATOM     20  H   LIG d   1       0.371  75.119 115.247  0.00  0.00    -0.090 HD
ATOM     21  H   LIG d   1      -0.012  75.481 113.696  0.00  0.00    -0.090 HD
ENDBRANCH   5  18
BRANCH   3  22
ATOM     22  C   LIG d   1      -2.699  79.286 113.287  0.00  0.00     0.382 C 
ATOM     23  O   LIG d   1      -3.130  80.400 113.670  0.00  0.00    -0.241 OA
ATOM     24  O   LIG d   1      -2.418  79.118 112.085  0.00  0.00    -0.241 OA
ENDBRANCH   3  22
TORSDOF 7
ENDMDL
MODEL 7
REMARK VINA RESULT:      -5.1     14.508     16.463
REMARK  7 active torsions:
REMARK  status: ('A' for Active; 'I' for Inactive)
REMARK    1  A    between atoms: C_2  and  C_3 
REMARK    2  A    between atoms: C_3  and  O_6 
REMARK    3  A    between atoms: C_3  and  C_4 
REMARK    4  A    between atoms: C_7  and  O_6 
REMARK    5  A    between atoms: C_9  and  C_10 
REMARK    6  A    between atoms: N_15  and  C_14 
REMARK    7  A    between atoms: N_20  and  C_19 
REMARK       I    between atoms: C_22  and  N_20 
ROOT
ATOM      1  C   LIG d   1       2.451  86.862 114.714  0.00  0.00     0.161 C 
ATOM      2  C   LIG d   1       1.334  86.624 115.533  0.00  0.00     0.016 C 
ATOM      3  C   LIG d   1       0.804  87.586 116.423  0.00  0.00     0.038 C 
ATOM      4  C   LIG d   1       1.266  88.910 116.446  0.00  0.00     0.028 C 
ATOM      5  C   LIG d   1       2.717  89.053 116.001  0.00  0.00    -0.047 C 
ATOM      6  C   LIG d   1       2.899  88.337 114.643  0.00  0.00     0.091 C 
ENDROOT
BRANCH   1   7
ATOM      7  O   LIG d   1       2.204  86.349 113.390  0.00  0.00    -0.368 OA
BRANCH   7   8
ATOM      8  C   LIG d   1       2.736  85.032 113.106  0.00  0.00     0.119 C 
BRANCH   8   9
ATOM      9  C   LIG d   1       3.703  85.170 111.914  0.00  0.00     0.028 C 
ATOM     10  C   LIG d   1       3.513  86.494 111.155  0.00  0.00     0.006 C 
ENDBRANCH   8   9
BRANCH   8  11
ATOM     11  C   LIG d   1       1.637  84.078 112.629  0.00  0.00     0.028 C 
ATOM     12  C   LIG d   1       0.376  84.814 112.149  0.00  0.00     0.006 C 
ENDBRANCH   8  11
ENDBRANCH   7   8
ENDBRANCH   1   7
BRANCH   6  13
ATOM     13  N   LIG d   1       4.310  88.356 114.176  0.00  0.00    -0.311 N 
ATOM     14  C   LIG d   1       4.776  89.232 113.288  0.00  0.00     0.210 C 
ATOM     15  C   LIG d   1       6.256  89.064 112.930  0.00  0.00     0.109 C 
ATOM     16  O   LIG d   1       4.113  90.153 112.787  0.00  0.00    -0.276 OA
ATOM     17  H   LIG d   1       4.925  87.663 114.555  0.00  0.00     0.149 HD
ENDBRANCH   6  13
BRANCH   5  18
ATOM     18  N   LIG d   1       3.025  90.495 115.940  0.00  0.00     0.381 N 
ATOM     19  H   LIG d   1       2.184  91.014 115.790  0.00  0.00    -0.090 HD
ATOM     20  H   LIG d   1       3.642  90.663 115.164  0.00  0.00    -0.090 HD
ATOM     21  H   LIG d   1       3.458  90.787 116.788  0.00  0.00    -0.090 HD
ENDBRANCH   5  18
BRANCH   3  22
ATOM     22  C   LIG d   1      -0.174  87.214 117.333  0.00  0.00     0.382 C 
ATOM     23  O   LIG d   1      -1.208  87.912 117.462  0.00  0.00    -0.241 OA
ATOM     24  O   LIG d   1      -0.015  86.214 118.058  0.00  0.00    -0.241 OA
ENDBRANCH   3  22
TORSDOF 7
ENDMDL
MODEL 8
REMARK VINA RESULT:      -5.0     15.057     17.793
REMARK  7 active torsions:
REMARK  status: ('A' for Active; 'I' for Inactive)
REMARK    1  A    between atoms: C_2  and  C_3 
REMARK    2  A    between atoms: C_3  and  O_6 
REMARK    3  A    between atoms: C_3  and  C_4 
REMARK    4  A    between atoms: C_7  and  O_6 
REMARK    5  A    between atoms: C_9  and  C_10 
REMARK    6  A    between atoms: N_15  and  C_14 
REMARK    7  A    between atoms: N_20  and  C_19 
REMARK       I    between atoms: C_22  and  N_20 
ROOT
ATOM      1  C   LIG d   1       2.984  87.637 114.990  0.00  0.00     0.161 C 
ATOM      2  C   LIG d   1       3.065  86.587 114.060  0.00  0.00     0.016 C 
ATOM      3  C   LIG d   1       3.843  86.651 112.881  0.00  0.00     0.038 C 
ATOM      4  C   LIG d   1       4.718  87.717 112.627  0.00  0.00     0.028 C 
ATOM      5  C   LIG d   1       4.289  89.023 113.286  0.00  0.00    -0.047 C 
ATOM      6  C   LIG d   1       4.018  88.763 114.786  0.00  0.00     0.091 C 
ENDROOT
BRANCH   1   7
ATOM      7  O   LIG d   1       3.075  87.111 116.329  0.00  0.00    -0.368 OA
BRANCH   7   8
ATOM      8  C   LIG d   1       1.841  87.082 117.088  0.00  0.00     0.119 C 
BRANCH   8   9
ATOM      9  C   LIG d   1       1.307  85.637 117.049  0.00  0.00     0.028 C 
ATOM     10  C   LIG d   1       0.255  85.370 118.139  0.00  0.00     0.006 C 
ENDBRANCH   8   9
BRANCH   8  11
ATOM     11  C   LIG d   1       0.757  87.933 116.420  0.00  0.00     0.028 C 
ATOM     12  C   LIG d   1       0.402  89.190 117.230  0.00  0.00     0.006 C 
ENDBRANCH   8  11
ENDBRANCH   7   8
ENDBRANCH   1   7
BRANCH   6  13
ATOM     13  N   LIG d   1       3.512  89.971 115.488  0.00  0.00    -0.311 N 
ATOM     14  C   LIG d   1       4.297  90.810 116.162  0.00  0.00     0.210 C 
ATOM     15  C   LIG d   1       3.569  91.982 116.829  0.00  0.00     0.109 C 
ATOM     16  O   LIG d   1       5.531  90.714 116.243  0.00  0.00    -0.276 OA
ATOM     17  H   LIG d   1       2.527  90.143 115.447  0.00  0.00     0.149 HD
ENDBRANCH   6  13
BRANCH   5  18
ATOM     18  N   LIG d   1       5.358  90.012 113.054  0.00  0.00     0.381 N 
ATOM     19  H   LIG d   1       6.213  89.689 113.463  0.00  0.00    -0.090 HD
ATOM     20  H   LIG d   1       5.104  90.877 113.499  0.00  0.00    -0.090 HD
ATOM     21  H   LIG d   1       5.483  90.157 112.077  0.00  0.00    -0.090 HD
ENDBRANCH   5  18
BRANCH   3  22
ATOM     22  C   LIG d   1       3.720  85.657 111.922  0.00  0.00     0.382 C 
ATOM     23  O   LIG d   1       2.814  85.729 111.057  0.00  0.00    -0.241 OA
ATOM     24  O   LIG d   1       4.475  84.666 111.938  0.00  0.00    -0.241 OA
ENDBRANCH   3  22
TORSDOF 7
ENDMDL
MODEL 9
REMARK VINA RESULT:      -5.0      2.182      3.507
REMARK  7 active torsions:
REMARK  status: ('A' for Active; 'I' for Inactive)
REMARK    1  A    between atoms: C_2  and  C_3 
REMARK    2  A    between atoms: C_3  and  O_6 
REMARK    3  A    between atoms: C_3  and  C_4 
REMARK    4  A    between atoms: C_7  and  O_6 
REMARK    5  A    between atoms: C_9  and  C_10 
REMARK    6  A    between atoms: N_15  and  C_14 
REMARK    7  A    between atoms: N_20  and  C_19 
REMARK       I    between atoms: C_22  and  N_20 
ROOT
ATOM      1  C   LIG d   1      -6.361  77.278 117.478  0.00  0.00     0.161 C 
ATOM      2  C   LIG d   1      -7.724  77.202 117.807  0.00  0.00     0.016 C 
ATOM      3  C   LIG d   1      -8.502  78.327 118.164  0.00  0.00     0.038 C 
ATOM      4  C   LIG d   1      -8.002  79.634 118.070  0.00  0.00     0.028 C 
ATOM      5  C   LIG d   1      -6.488  79.717 118.230  0.00  0.00    -0.047 C 
ATOM      6  C   LIG d   1      -5.826  78.709 117.262  0.00  0.00     0.091 C 
ENDROOT
BRANCH   1   7
ATOM      7  O   LIG d   1      -6.091  76.463 116.321  0.00  0.00    -0.368 OA
BRANCH   7   8
ATOM      8  C   LIG d   1      -5.588  75.130 116.583  0.00  0.00     0.119 C 
BRANCH   8   9
ATOM      9  C   LIG d   1      -4.076  75.138 116.284  0.00  0.00     0.028 C 
ATOM     10  C   LIG d   1      -3.302  74.126 117.147  0.00  0.00     0.006 C 
ENDBRANCH   8   9
BRANCH   8  11
ATOM     11  C   LIG d   1      -6.188  74.107 115.613  0.00  0.00     0.028 C 
ATOM     12  C   LIG d   1      -7.082  73.073 116.316  0.00  0.00     0.006 C 
ENDBRANCH   8  11
ENDBRANCH   7   8
ENDBRANCH   1   7
BRANCH   6  13
ATOM     13  N   LIG d   1      -4.348  78.665 117.414  0.00  0.00    -0.311 N 
ATOM     14  C   LIG d   1      -3.502  78.880 116.409  0.00  0.00     0.210 C 
ATOM     15  C   LIG d   1      -2.019  78.768 116.777  0.00  0.00     0.109 C 
ATOM     16  O   LIG d   1      -3.837  79.185 115.254  0.00  0.00    -0.276 OA
ATOM     17  H   LIG d   1      -3.989  78.455 118.325  0.00  0.00     0.149 HD
ENDBRANCH   6  13
BRANCH   5  18
ATOM     18  N   LIG d   1      -6.088  81.113 117.973  0.00  0.00     0.381 N 
ATOM     19  H   LIG d   1      -6.684  81.735 118.482  0.00  0.00    -0.090 HD
ATOM     20  H   LIG d   1      -6.194  81.307 116.993  0.00  0.00    -0.090 HD
ATOM     21  H   LIG d   1      -5.140  81.252 118.246  0.00  0.00    -0.090 HD
ENDBRANCH   5  18
BRANCH   3  22
ATOM     22  C   LIG d   1      -9.785  78.146 118.660  0.00  0.00     0.382 C 
ATOM     23  O   LIG d   1     -10.179  76.998 118.976  0.00  0.00    -0.241 OA
ATOM     24  O   LIG d   1     -10.567  79.111 118.755  0.00  0.00    -0.241 OA
ENDBRANCH   3  22
TORSDOF 7
ENDMDL
