MODEL 1
REMARK VINA RESULT:      -5.5      0.000      0.000
REMARK  7 active torsions:
REMARK  status: ('A' for Active; 'I' for Inactive)
REMARK    1  A    between atoms: C_2  and  C_3 
REMARK    2  A    between atoms: C_3  and  O_6 
REMARK    3  A    between atoms: C_3  and  C_4 
REMARK    4  A    between atoms: C_7  and  O_6 
REMARK    5  A    between atoms: C_9  and  C_10 
REMARK    6  A    between atoms: N_15  and  C_14 
REMARK    7  A    between atoms: N_20  and  C_19 
REMARK       I    between atoms: C_22  and  N_20 
ROOT
ATOM      1  C   LIG d   1     -16.112  66.196 114.402  0.00  0.00     0.161 C 
ATOM      2  C   LIG d   1     -15.455  66.930 113.401  0.00  0.00     0.016 C 
ATOM      3  C   LIG d   1     -14.808  68.164 113.639  0.00  0.00     0.038 C 
ATOM      4  C   LIG d   1     -14.641  68.676 114.934  0.00  0.00     0.028 C 
ATOM      5  C   LIG d   1     -15.723  68.223 115.908  0.00  0.00    -0.047 C 
ATOM      6  C   LIG d   1     -15.845  66.684 115.842  0.00  0.00     0.091 C 
ENDROOT
BRANCH   1   7
ATOM      7  O   LIG d   1     -15.783  64.798 114.278  0.00  0.00    -0.368 OA
BRANCH   7   8
ATOM      8  C   LIG d   1     -16.760  63.971 113.600  0.00  0.00     0.119 C 
BRANCH   8   9
ATOM      9  C   LIG d   1     -18.105  64.721 113.635  0.00  0.00     0.028 C 
ATOM     10  C   LIG d   1     -18.862  64.632 112.298  0.00  0.00     0.006 C 
ENDBRANCH   8   9
BRANCH   8  11
ATOM     11  C   LIG d   1     -17.006  62.663 114.359  0.00  0.00     0.028 C 
ATOM     12  C   LIG d   1     -18.214  62.742 115.306  0.00  0.00     0.006 C 
ENDBRANCH   8  11
ENDBRANCH   7   8
ENDBRANCH   1   7
BRANCH   6  13
ATOM     13  N   LIG d   1     -16.939  66.164 116.703  0.00  0.00    -0.311 N 
ATOM     14  C   LIG d   1     -16.749  65.268 117.669  0.00  0.00     0.210 C 
ATOM     15  C   LIG d   1     -18.016  64.852 118.424  0.00  0.00     0.109 C 
ATOM     16  O   LIG d   1     -15.647  64.802 117.995  0.00  0.00    -0.276 OA
ATOM     17  H   LIG d   1     -17.862  66.513 116.528  0.00  0.00     0.149 HD
ENDBRANCH   6  13
BRANCH   5  18
ATOM     18  N   LIG d   1     -15.352  68.716 117.248  0.00  0.00     0.381 N 
ATOM     19  H   LIG d   1     -16.175  68.969 117.756  0.00  0.00    -0.090 HD
ATOM     20  H   LIG d   1     -14.781  69.537 117.145  0.00  0.00    -0.090 HD
ATOM     21  H   LIG d   1     -14.849  68.013 117.743  0.00  0.00    -0.090 HD
ENDBRANCH   5  18
BRANCH   3  22
ATOM     22  C   LIG d   1     -14.353  68.919 112.568  0.00  0.00     0.382 C 
ATOM     23  O   LIG d   1     -14.732  68.648 111.404  0.00  0.00    -0.241 OA
ATOM     24  O   LIG d   1     -13.533  69.839 112.747  0.00  0.00    -0.241 OA
ENDBRANCH   3  22
TORSDOF 7
ENDMDL
MODEL 2
REMARK VINA RESULT:      -5.1     22.841     26.148
REMARK  7 active torsions:
REMARK  status: ('A' for Active; 'I' for Inactive)
REMARK    1  A    between atoms: C_2  and  C_3 
REMARK    2  A    between atoms: C_3  and  O_6 
REMARK    3  A    between atoms: C_3  and  C_4 
REMARK    4  A    between atoms: C_7  and  O_6 
REMARK    5  A    between atoms: C_9  and  C_10 
REMARK    6  A    between atoms: N_15  and  C_14 
REMARK    7  A    between atoms: N_20  and  C_19 
REMARK       I    between atoms: C_22  and  N_20 
ROOT
ATOM      1  C   LIG d   1       3.622  83.713 111.992  0.00  0.00     0.161 C 
ATOM      2  C   LIG d   1       4.029  85.047 112.164  0.00  0.00     0.016 C 
ATOM      3  C   LIG d   1       3.125  86.118 112.353  0.00  0.00     0.038 C 
ATOM      4  C   LIG d   1       1.750  85.904 112.536  0.00  0.00     0.028 C 
ATOM      5  C   LIG d   1       1.241  84.632 111.867  0.00  0.00    -0.047 C 
ATOM      6  C   LIG d   1       2.134  83.446 112.299  0.00  0.00     0.091 C 
ENDROOT
BRANCH   1   7
ATOM      7  O   LIG d   1       4.460  82.842 112.777  0.00  0.00    -0.368 OA
BRANCH   7   8
ATOM      8  C   LIG d   1       3.912  82.402 114.044  0.00  0.00     0.119 C 
BRANCH   8   9
ATOM      9  C   LIG d   1       4.711  83.098 115.162  0.00  0.00     0.028 C 
ATOM     10  C   LIG d   1       3.935  84.262 115.801  0.00  0.00     0.006 C 
ENDBRANCH   8   9
BRANCH   8  11
ATOM     11  C   LIG d   1       4.137  80.902 114.258  0.00  0.00     0.028 C 
ATOM     12  C   LIG d   1       5.016  80.601 115.482  0.00  0.00     0.006 C 
ENDBRANCH   8  11
ENDBRANCH   7   8
ENDBRANCH   1   7
BRANCH   6  13
ATOM     13  N   LIG d   1       1.756  82.177 111.624  0.00  0.00    -0.311 N 
ATOM     14  C   LIG d   1       0.920  81.285 112.154  0.00  0.00     0.210 C 
ATOM     15  C   LIG d   1       0.682  80.036 111.301  0.00  0.00     0.109 C 
ATOM     16  O   LIG d   1       0.328  81.426 113.235  0.00  0.00    -0.276 OA
ATOM     17  H   LIG d   1       2.166  81.997 110.729  0.00  0.00     0.149 HD
ENDBRANCH   6  13
BRANCH   5  18
ATOM     18  N   LIG d   1      -0.173  84.461 112.252  0.00  0.00     0.381 N 
ATOM     19  H   LIG d   1      -0.721  85.203 111.865  0.00  0.00    -0.090 HD
ATOM     20  H   LIG d   1      -0.245  84.506 113.254  0.00  0.00    -0.090 HD
ATOM     21  H   LIG d   1      -0.511  83.582 111.927  0.00  0.00    -0.090 HD
ENDBRANCH   5  18
BRANCH   3  22
ATOM     22  C   LIG d   1       3.590  87.423 112.322  0.00  0.00     0.382 C 
ATOM     23  O   LIG d   1       2.784  88.379 112.430  0.00  0.00    -0.241 OA
ATOM     24  O   LIG d   1       4.800  87.659 112.142  0.00  0.00    -0.241 OA
ENDBRANCH   3  22
TORSDOF 7
ENDMDL
MODEL 3
REMARK VINA RESULT:      -5.1     24.121     27.409
REMARK  7 active torsions:
REMARK  status: ('A' for Active; 'I' for Inactive)
REMARK    1  A    between atoms: C_2  and  C_3 
REMARK    2  A    between atoms: C_3  and  O_6 
REMARK    3  A    between atoms: C_3  and  C_4 
REMARK    4  A    between atoms: C_7  and  O_6 
REMARK    5  A    between atoms: C_9  and  C_10 
REMARK    6  A    between atoms: N_15  and  C_14 
REMARK    7  A    between atoms: N_20  and  C_19 
REMARK       I    between atoms: C_22  and  N_20 
ROOT
ATOM      1  C   LIG d   1       3.629  85.184 113.332  0.00  0.00     0.161 C 
ATOM      2  C   LIG d   1       4.415  86.311 113.624  0.00  0.00     0.016 C 
ATOM      3  C   LIG d   1       4.146  87.601 113.114  0.00  0.00     0.038 C 
ATOM      4  C   LIG d   1       2.977  87.884 112.393  0.00  0.00     0.028 C 
ATOM      5  C   LIG d   1       2.416  86.677 111.649  0.00  0.00    -0.047 C 
ATOM      6  C   LIG d   1       2.287  85.495 112.637  0.00  0.00     0.091 C 
ENDROOT
BRANCH   1   7
ATOM      7  O   LIG d   1       3.407  84.418 114.532  0.00  0.00    -0.368 OA
BRANCH   7   8
ATOM      8  C   LIG d   1       4.134  83.170 114.636  0.00  0.00     0.119 C 
BRANCH   8   9
ATOM      9  C   LIG d   1       3.117  82.025 114.463  0.00  0.00     0.028 C 
ATOM     10  C   LIG d   1       3.391  81.181 113.207  0.00  0.00     0.006 C 
ENDBRANCH   8   9
BRANCH   8  11
ATOM     11  C   LIG d   1       4.721  82.982 116.038  0.00  0.00     0.028 C 
ATOM     12  C   LIG d   1       5.358  84.265 116.595  0.00  0.00     0.006 C 
ENDBRANCH   8  11
ENDBRANCH   7   8
ENDBRANCH   1   7
BRANCH   6  13
ATOM     13  N   LIG d   1       1.825  84.248 111.973  0.00  0.00    -0.311 N 
ATOM     14  C   LIG d   1       0.550  83.864 111.940  0.00  0.00     0.210 C 
ATOM     15  C   LIG d   1       0.293  82.537 111.220  0.00  0.00     0.109 C 
ATOM     16  O   LIG d   1      -0.397  84.513 112.410  0.00  0.00    -0.276 OA
ATOM     17  H   LIG d   1       2.523  83.677 111.538  0.00  0.00     0.149 HD
ENDBRANCH   6  13
BRANCH   5  18
ATOM     18  N   LIG d   1       1.127  87.078 111.055  0.00  0.00     0.381 N 
ATOM     19  H   LIG d   1       0.555  87.514 111.750  0.00  0.00    -0.090 HD
ATOM     20  H   LIG d   1       0.651  86.256 110.726  0.00  0.00    -0.090 HD
ATOM     21  H   LIG d   1       1.282  87.707 110.298  0.00  0.00    -0.090 HD
ENDBRANCH   5  18
BRANCH   3  22
ATOM     22  C   LIG d   1       5.073  88.617 113.290  0.00  0.00     0.382 C 
ATOM     23  O   LIG d   1       4.878  89.500 114.161  0.00  0.00    -0.241 OA
ATOM     24  O   LIG d   1       6.080  88.688 112.560  0.00  0.00    -0.241 OA
ENDBRANCH   3  22
TORSDOF 7
ENDMDL
MODEL 4
REMARK VINA RESULT:      -5.0     25.512     27.799
REMARK  7 active torsions:
REMARK  status: ('A' for Active; 'I' for Inactive)
REMARK    1  A    between atoms: C_2  and  C_3 
REMARK    2  A    between atoms: C_3  and  O_6 
REMARK    3  A    between atoms: C_3  and  C_4 
REMARK    4  A    between atoms: C_7  and  O_6 
REMARK    5  A    between atoms: C_9  and  C_10 
REMARK    6  A    between atoms: N_15  and  C_14 
REMARK    7  A    between atoms: N_20  and  C_19 
REMARK       I    between atoms: C_22  and  N_20 
ROOT
ATOM      1  C   LIG d   1       2.306  86.916 114.816  0.00  0.00     0.161 C 
ATOM      2  C   LIG d   1       3.063  87.612 113.858  0.00  0.00     0.016 C 
ATOM      3  C   LIG d   1       4.426  87.943 114.035  0.00  0.00     0.038 C 
ATOM      4  C   LIG d   1       5.170  87.466 115.124  0.00  0.00     0.028 C 
ATOM      5  C   LIG d   1       4.323  87.189 116.361  0.00  0.00    -0.047 C 
ATOM      6  C   LIG d   1       3.129  86.291 115.961  0.00  0.00     0.091 C 
ENDROOT
BRANCH   1   7
ATOM      7  O   LIG d   1       1.504  85.909 114.167  0.00  0.00    -0.368 OA
BRANCH   7   8
ATOM      8  C   LIG d   1       2.030  85.377 112.926  0.00  0.00     0.119 C 
BRANCH   8   9
ATOM      9  C   LIG d   1       0.830  85.071 112.009  0.00  0.00     0.028 C 
ATOM     10  C   LIG d   1      -0.428  85.861 112.405  0.00  0.00     0.006 C 
ENDBRANCH   8   9
BRANCH   8  11
ATOM     11  C   LIG d   1       2.726  84.031 113.148  0.00  0.00     0.028 C 
ATOM     12  C   LIG d   1       4.121  83.969 112.505  0.00  0.00     0.006 C 
ENDBRANCH   8  11
ENDBRANCH   7   8
ENDBRANCH   1   7
BRANCH   6  13
ATOM     13  N   LIG d   1       2.203  86.041 117.096  0.00  0.00    -0.311 N 
ATOM     14  C   LIG d   1       1.696  84.842 117.377  0.00  0.00     0.210 C 
ATOM     15  C   LIG d   1       0.746  84.807 118.578  0.00  0.00     0.109 C 
ATOM     16  O   LIG d   1       1.968  83.797 116.766  0.00  0.00    -0.276 OA
ATOM     17  H   LIG d   1       1.954  86.827 117.663  0.00  0.00     0.149 HD
ENDBRANCH   6  13
BRANCH   5  18
ATOM     18  N   LIG d   1       5.200  86.568 117.372  0.00  0.00     0.381 N 
ATOM     19  H   LIG d   1       5.205  87.125 118.203  0.00  0.00    -0.090 HD
ATOM     20  H   LIG d   1       6.137  86.531 117.011  0.00  0.00    -0.090 HD
ATOM     21  H   LIG d   1       4.880  85.648 117.582  0.00  0.00    -0.090 HD
ENDBRANCH   5  18
BRANCH   3  22
ATOM     22  C   LIG d   1       5.049  88.794 113.134  0.00  0.00     0.382 C 
ATOM     23  O   LIG d   1       4.434  89.792 112.687  0.00  0.00    -0.241 OA
ATOM     24  O   LIG d   1       6.202  88.552 112.730  0.00  0.00    -0.241 OA
ENDBRANCH   3  22
TORSDOF 7
ENDMDL
MODEL 5
REMARK VINA RESULT:      -5.0     24.479     27.819
REMARK  7 active torsions:
REMARK  status: ('A' for Active; 'I' for Inactive)
REMARK    1  A    between atoms: C_2  and  C_3 
REMARK    2  A    between atoms: C_3  and  O_6 
REMARK    3  A    between atoms: C_3  and  C_4 
REMARK    4  A    between atoms: C_7  and  O_6 
REMARK    5  A    between atoms: C_9  and  C_10 
REMARK    6  A    between atoms: N_15  and  C_14 
REMARK    7  A    between atoms: N_20  and  C_19 
REMARK       I    between atoms: C_22  and  N_20 
ROOT
ATOM      1  C   LIG d   1       3.413  85.248 113.747  0.00  0.00     0.161 C 
ATOM      2  C   LIG d   1       4.348  86.269 113.986  0.00  0.00     0.016 C 
ATOM      3  C   LIG d   1       4.322  87.519 113.326  0.00  0.00     0.038 C 
ATOM      4  C   LIG d   1       3.261  87.891 112.486  0.00  0.00     0.028 C 
ATOM      5  C   LIG d   1       2.566  86.705 111.827  0.00  0.00    -0.047 C 
ATOM      6  C   LIG d   1       2.186  85.677 112.917  0.00  0.00     0.091 C 
ENDROOT
BRANCH   1   7
ATOM      7  O   LIG d   1       2.994  84.666 114.997  0.00  0.00    -0.368 OA
BRANCH   7   8
ATOM      8  C   LIG d   1       3.225  85.468 116.182  0.00  0.00     0.119 C 
BRANCH   8   9
ATOM      9  C   LIG d   1       3.830  84.543 117.256  0.00  0.00     0.028 C 
ATOM     10  C   LIG d   1       5.327  84.274 117.023  0.00  0.00     0.006 C 
ENDBRANCH   8   9
BRANCH   8  11
ATOM     11  C   LIG d   1       1.907  85.973 116.778  0.00  0.00     0.028 C 
ATOM     12  C   LIG d   1       1.508  87.360 116.251  0.00  0.00     0.006 C 
ENDBRANCH   8  11
ENDBRANCH   7   8
ENDBRANCH   1   7
BRANCH   6  13
ATOM     13  N   LIG d   1       1.576  84.447 112.347  0.00  0.00    -0.311 N 
ATOM     14  C   LIG d   1       0.261  84.273 112.218  0.00  0.00     0.210 C 
ATOM     15  C   LIG d   1      -0.157  82.924 111.626  0.00  0.00     0.109 C 
ATOM     16  O   LIG d   1      -0.596  85.121 112.507  0.00  0.00    -0.276 OA
ATOM     17  H   LIG d   1       2.200  83.720 112.058  0.00  0.00     0.149 HD
ENDBRANCH   6  13
BRANCH   5  18
ATOM     18  N   LIG d   1       1.398  87.226 111.091  0.00  0.00     0.381 N 
ATOM     19  H   LIG d   1       1.005  88.003 111.585  0.00  0.00    -0.090 HD
ATOM     20  H   LIG d   1       0.702  86.504 111.033  0.00  0.00    -0.090 HD
ATOM     21  H   LIG d   1       1.670  87.509 110.176  0.00  0.00    -0.090 HD
ENDBRANCH   5  18
BRANCH   3  22
ATOM     22  C   LIG d   1       5.385  88.396 113.473  0.00  0.00     0.382 C 
ATOM     23  O   LIG d   1       5.566  88.985 114.566  0.00  0.00    -0.241 OA
ATOM     24  O   LIG d   1       6.139  88.641 112.513  0.00  0.00    -0.241 OA
ENDBRANCH   3  22
TORSDOF 7
ENDMDL
MODEL 6
REMARK VINA RESULT:      -4.9     24.597     27.862
REMARK  7 active torsions:
REMARK  status: ('A' for Active; 'I' for Inactive)
REMARK    1  A    between atoms: C_2  and  C_3 
REMARK    2  A    between atoms: C_3  and  O_6 
REMARK    3  A    between atoms: C_3  and  C_4 
REMARK    4  A    between atoms: C_7  and  O_6 
REMARK    5  A    between atoms: C_9  and  C_10 
REMARK    6  A    between atoms: N_15  and  C_14 
REMARK    7  A    between atoms: N_20  and  C_19 
REMARK       I    between atoms: C_22  and  N_20 
ROOT
ATOM      1  C   LIG d   1       3.859  85.662 114.746  0.00  0.00     0.161 C 
ATOM      2  C   LIG d   1       4.305  86.953 114.420  0.00  0.00     0.016 C 
ATOM      3  C   LIG d   1       4.523  87.389 113.093  0.00  0.00     0.038 C 
ATOM      4  C   LIG d   1       4.161  86.606 111.986  0.00  0.00     0.028 C 
ATOM      5  C   LIG d   1       4.180  85.108 112.273  0.00  0.00    -0.047 C 
ATOM      6  C   LIG d   1       3.353  84.830 113.549  0.00  0.00     0.091 C 
ENDROOT
BRANCH   1   7
ATOM      7  O   LIG d   1       2.844  85.739 115.767  0.00  0.00    -0.368 OA
BRANCH   7   8
ATOM      8  C   LIG d   1       3.289  86.166 117.078  0.00  0.00     0.119 C 
BRANCH   8   9
ATOM      9  C   LIG d   1       2.944  85.042 118.073  0.00  0.00     0.028 C 
ATOM     10  C   LIG d   1       2.077  83.941 117.438  0.00  0.00     0.006 C 
ENDBRANCH   8   9
BRANCH   8  11
ATOM     11  C   LIG d   1       2.506  87.391 117.561  0.00  0.00     0.028 C 
ATOM     12  C   LIG d   1       1.165  87.565 116.831  0.00  0.00     0.006 C 
ENDBRANCH   8  11
ENDBRANCH   7   8
ENDBRANCH   1   7
BRANCH   6  13
ATOM     13  N   LIG d   1       3.389  83.399 113.948  0.00  0.00    -0.311 N 
ATOM     14  C   LIG d   1       2.429  82.528 113.641  0.00  0.00     0.210 C 
ATOM     15  C   LIG d   1       2.654  81.107 114.167  0.00  0.00     0.109 C 
ATOM     16  O   LIG d   1       1.429  82.790 112.957  0.00  0.00    -0.276 OA
ATOM     17  H   LIG d   1       4.181  83.094 114.479  0.00  0.00     0.149 HD
ENDBRANCH   6  13
BRANCH   5  18
ATOM     18  N   LIG d   1       3.651  84.419 111.080  0.00  0.00     0.381 N 
ATOM     19  H   LIG d   1       3.415  83.475 111.311  0.00  0.00    -0.090 HD
ATOM     20  H   LIG d   1       4.364  84.403 110.372  0.00  0.00    -0.090 HD
ATOM     21  H   LIG d   1       2.846  84.897 110.740  0.00  0.00    -0.090 HD
ENDBRANCH   5  18
BRANCH   3  22
ATOM     22  C   LIG d   1       5.145  88.606 112.862  0.00  0.00     0.382 C 
ATOM     23  O   LIG d   1       4.466  89.660 112.825  0.00  0.00    -0.241 OA
ATOM     24  O   LIG d   1       6.371  88.658 112.647  0.00  0.00    -0.241 OA
ENDBRANCH   3  22
TORSDOF 7
ENDMDL
MODEL 7
REMARK VINA RESULT:      -4.9     25.397     28.123
REMARK  7 active torsions:
REMARK  status: ('A' for Active; 'I' for Inactive)
REMARK    1  A    between atoms: C_2  and  C_3 
REMARK    2  A    between atoms: C_3  and  O_6 
REMARK    3  A    between atoms: C_3  and  C_4 
REMARK    4  A    between atoms: C_7  and  O_6 
REMARK    5  A    between atoms: C_9  and  C_10 
REMARK    6  A    between atoms: N_15  and  C_14 
REMARK    7  A    between atoms: N_20  and  C_19 
REMARK       I    between atoms: C_22  and  N_20 
ROOT
ATOM      1  C   LIG d   1      -4.549  91.302 116.916  0.00  0.00     0.161 C 
ATOM      2  C   LIG d   1      -3.466  90.408 116.948  0.00  0.00     0.016 C 
ATOM      3  C   LIG d   1      -2.266  90.664 117.649  0.00  0.00     0.038 C 
ATOM      4  C   LIG d   1      -2.125  91.773 118.497  0.00  0.00     0.028 C 
ATOM      5  C   LIG d   1      -3.001  92.956 118.097  0.00  0.00    -0.047 C 
ATOM      6  C   LIG d   1      -4.457  92.466 117.924  0.00  0.00     0.091 C 
ENDROOT
BRANCH   1   7
ATOM      7  O   LIG d   1      -5.784  90.580 117.095  0.00  0.00    -0.368 OA
BRANCH   7   8
ATOM      8  C   LIG d   1      -6.584  90.379 115.904  0.00  0.00     0.119 C 
BRANCH   8   9
ATOM      9  C   LIG d   1      -6.166  91.452 114.880  0.00  0.00     0.028 C 
ATOM     10  C   LIG d   1      -7.321  92.404 114.523  0.00  0.00     0.006 C 
ENDBRANCH   8   9
BRANCH   8  11
ATOM     11  C   LIG d   1      -8.068  90.637 116.179  0.00  0.00     0.028 C 
ATOM     12  C   LIG d   1      -8.934  89.379 116.004  0.00  0.00     0.006 C 
ENDBRANCH   8  11
ENDBRANCH   7   8
ENDBRANCH   1   7
BRANCH   6  13
ATOM     13  N   LIG d   1      -5.365  93.543 117.452  0.00  0.00    -0.311 N 
ATOM     14  C   LIG d   1      -6.562  93.779 117.986  0.00  0.00     0.210 C 
ATOM     15  C   LIG d   1      -7.346  94.924 117.336  0.00  0.00     0.109 C 
ATOM     16  O   LIG d   1      -7.037  93.170 118.956  0.00  0.00    -0.276 OA
ATOM     17  H   LIG d   1      -5.046  94.107 116.688  0.00  0.00     0.149 HD
ENDBRANCH   6  13
BRANCH   5  18
ATOM     18  N   LIG d   1      -2.858  93.989 119.141  0.00  0.00     0.381 N 
ATOM     19  H   LIG d   1      -2.190  94.673 118.851  0.00  0.00    -0.090 HD
ATOM     20  H   LIG d   1      -2.521  93.556 119.983  0.00  0.00    -0.090 HD
ATOM     21  H   LIG d   1      -3.738  94.424 119.312  0.00  0.00    -0.090 HD
ENDBRANCH   5  18
BRANCH   3  22
ATOM     22  C   LIG d   1      -1.176  89.825 117.475  0.00  0.00     0.382 C 
ATOM     23  O   LIG d   1      -0.247  90.157 116.699  0.00  0.00    -0.241 OA
ATOM     24  O   LIG d   1      -1.129  88.722 118.050  0.00  0.00    -0.241 OA
ENDBRANCH   3  22
TORSDOF 7
ENDMDL
MODEL 8
REMARK VINA RESULT:      -4.8     24.924     27.493
REMARK  7 active torsions:
REMARK  status: ('A' for Active; 'I' for Inactive)
REMARK    1  A    between atoms: C_2  and  C_3 
REMARK    2  A    between atoms: C_3  and  O_6 
REMARK    3  A    between atoms: C_3  and  C_4 
REMARK    4  A    between atoms: C_7  and  O_6 
REMARK    5  A    between atoms: C_9  and  C_10 
REMARK    6  A    between atoms: N_15  and  C_14 
REMARK    7  A    between atoms: N_20  and  C_19 
REMARK       I    between atoms: C_22  and  N_20 
ROOT
ATOM      1  C   LIG d   1       3.454  85.553 113.067  0.00  0.00     0.161 C 
ATOM      2  C   LIG d   1       3.793  86.912 112.957  0.00  0.00     0.016 C 
ATOM      3  C   LIG d   1       4.428  87.641 113.989  0.00  0.00     0.038 C 
ATOM      4  C   LIG d   1       4.905  87.018 115.151  0.00  0.00     0.028 C 
ATOM      5  C   LIG d   1       4.136  85.755 115.521  0.00  0.00    -0.047 C 
ATOM      6  C   LIG d   1       4.067  84.830 114.284  0.00  0.00     0.091 C 
ENDROOT
BRANCH   1   7
ATOM      7  O   LIG d   1       3.798  84.864 111.849  0.00  0.00    -0.368 OA
BRANCH   7   8
ATOM      8  C   LIG d   1       2.687  84.376 111.056  0.00  0.00     0.119 C 
BRANCH   8   9
ATOM      9  C   LIG d   1       1.389  84.831 111.750  0.00  0.00     0.028 C 
ATOM     10  C   LIG d   1       0.354  83.699 111.859  0.00  0.00     0.006 C 
ENDBRANCH   8   9
BRANCH   8  11
ATOM     11  C   LIG d   1       2.632  82.846 111.056  0.00  0.00     0.028 C 
ATOM     12  C   LIG d   1       4.020  82.200 111.191  0.00  0.00     0.006 C 
ENDBRANCH   8  11
ENDBRANCH   7   8
ENDBRANCH   1   7
BRANCH   6  13
ATOM     13  N   LIG d   1       3.259  83.608 114.535  0.00  0.00    -0.311 N 
ATOM     14  C   LIG d   1       3.791  82.432 114.865  0.00  0.00     0.210 C 
ATOM     15  C   LIG d   1       2.780  81.297 115.059  0.00  0.00     0.109 C 
ATOM     16  O   LIG d   1       5.001  82.230 115.047  0.00  0.00    -0.276 OA
ATOM     17  H   LIG d   1       2.265  83.690 114.439  0.00  0.00     0.149 HD
ENDBRANCH   6  13
BRANCH   5  18
ATOM     18  N   LIG d   1       4.824  85.134 116.669  0.00  0.00     0.381 N 
ATOM     19  H   LIG d   1       5.809  85.291 116.598  0.00  0.00    -0.090 HD
ATOM     20  H   LIG d   1       4.660  84.143 116.649  0.00  0.00    -0.090 HD
ATOM     21  H   LIG d   1       4.479  85.518 117.521  0.00  0.00    -0.090 HD
ENDBRANCH   5  18
BRANCH   3  22
ATOM     22  C   LIG d   1       4.554  89.018 113.880  0.00  0.00     0.382 C 
ATOM     23  O   LIG d   1       4.700  89.718 114.911  0.00  0.00    -0.241 OA
ATOM     24  O   LIG d   1       4.480  89.573 112.767  0.00  0.00    -0.241 OA
ENDBRANCH   3  22
TORSDOF 7
ENDMDL
MODEL 9
REMARK VINA RESULT:      -4.6     27.833     30.756
REMARK  7 active torsions:
REMARK  status: ('A' for Active; 'I' for Inactive)
REMARK    1  A    between atoms: C_2  and  C_3 
REMARK    2  A    between atoms: C_3  and  O_6 
REMARK    3  A    between atoms: C_3  and  C_4 
REMARK    4  A    between atoms: C_7  and  O_6 
REMARK    5  A    between atoms: C_9  and  C_10 
REMARK    6  A    between atoms: N_15  and  C_14 
REMARK    7  A    between atoms: N_20  and  C_19 
REMARK       I    between atoms: C_22  and  N_20 
ROOT
ATOM      1  C   LIG d   1      12.241  77.887 115.365  0.00  0.00     0.161 C 
ATOM      2  C   LIG d   1      11.616  76.727 114.878  0.00  0.00     0.016 C 
ATOM      3  C   LIG d   1      10.213  76.574 114.797  0.00  0.00     0.038 C 
ATOM      4  C   LIG d   1       9.335  77.636 115.059  0.00  0.00     0.028 C 
ATOM      5  C   LIG d   1       9.900  78.663 116.035  0.00  0.00    -0.047 C 
ATOM      6  C   LIG d   1      11.302  79.098 115.550  0.00  0.00     0.091 C 
ENDROOT
BRANCH   1   7
ATOM      7  O   LIG d   1      13.350  78.239 114.514  0.00  0.00    -0.368 OA
BRANCH   7   8
ATOM      8  C   LIG d   1      13.014  78.641 113.163  0.00  0.00     0.119 C 
BRANCH   8   9
ATOM      9  C   LIG d   1      13.786  77.719 112.200  0.00  0.00     0.028 C 
ATOM     10  C   LIG d   1      14.933  76.969 112.899  0.00  0.00     0.006 C 
ENDBRANCH   8   9
BRANCH   8  11
ATOM     11  C   LIG d   1      13.518  80.056 112.862  0.00  0.00     0.028 C 
ATOM     12  C   LIG d   1      14.526  80.564 113.905  0.00  0.00     0.006 C 
ENDBRANCH   8  11
ENDBRANCH   7   8
ENDBRANCH   1   7
BRANCH   6  13
ATOM     13  N   LIG d   1      11.961  80.038 116.494  0.00  0.00    -0.311 N 
ATOM     14  C   LIG d   1      11.900  81.363 116.371  0.00  0.00     0.210 C 
ATOM     15  C   LIG d   1      12.667  82.147 117.440  0.00  0.00     0.109 C 
ATOM     16  O   LIG d   1      11.256  81.963 115.497  0.00  0.00    -0.276 OA
ATOM     17  H   LIG d   1      12.479  79.636 117.251  0.00  0.00     0.149 HD
ENDBRANCH   6  13
BRANCH   5  18
ATOM     18  N   LIG d   1       8.941  79.781 116.110  0.00  0.00     0.381 N 
ATOM     19  H   LIG d   1       8.846  80.207 115.210  0.00  0.00    -0.090 HD
ATOM     20  H   LIG d   1       9.296  80.471 116.749  0.00  0.00    -0.090 HD
ATOM     21  H   LIG d   1       8.056  79.450 116.425  0.00  0.00    -0.090 HD
ENDBRANCH   5  18
BRANCH   3  22
ATOM     22  C   LIG d   1       9.674  75.334 114.490  0.00  0.00     0.382 C 
ATOM     23  O   LIG d   1       8.504  75.253 114.043  0.00  0.00    -0.241 OA
ATOM     24  O   LIG d   1      10.326  74.293 114.695  0.00  0.00    -0.241 OA
ENDBRANCH   3  22
TORSDOF 7
ENDMDL
