MODEL 1
REMARK VINA RESULT:      -5.7      0.000      0.000
REMARK  7 active torsions:
REMARK  status: ('A' for Active; 'I' for Inactive)
REMARK    1  A    between atoms: C_2  and  C_3 
REMARK    2  A    between atoms: C_3  and  O_6 
REMARK    3  A    between atoms: C_3  and  C_4 
REMARK    4  A    between atoms: C_7  and  O_6 
REMARK    5  A    between atoms: C_9  and  C_10 
REMARK    6  A    between atoms: N_15  and  C_14 
REMARK    7  A    between atoms: N_20  and  C_19 
REMARK       I    between atoms: C_22  and  N_20 
ROOT
ATOM      1  C   LIG d   1     -16.687  65.395 114.154  0.00  0.00     0.161 C 
ATOM      2  C   LIG d   1     -16.281  66.234 113.102  0.00  0.00     0.016 C 
ATOM      3  C   LIG d   1     -15.572  67.441 113.298  0.00  0.00     0.038 C 
ATOM      4  C   LIG d   1     -15.084  67.817 114.558  0.00  0.00     0.028 C 
ATOM      5  C   LIG d   1     -15.903  67.259 115.717  0.00  0.00    -0.047 C 
ATOM      6  C   LIG d   1     -16.067  65.734 115.526  0.00  0.00     0.091 C 
ENDROOT
BRANCH   1   7
ATOM      7  O   LIG d   1     -16.425  64.020 113.811  0.00  0.00    -0.368 OA
BRANCH   7   8
ATOM      8  C   LIG d   1     -17.587  63.198 113.542  0.00  0.00     0.119 C 
BRANCH   8   9
ATOM      9  C   LIG d   1     -18.830  64.098 113.668  0.00  0.00     0.028 C 
ATOM     10  C   LIG d   1     -19.850  63.851 112.544  0.00  0.00     0.006 C 
ENDBRANCH   8   9
BRANCH   8  11
ATOM     11  C   LIG d   1     -17.761  62.113 114.610  0.00  0.00     0.028 C 
ATOM     12  C   LIG d   1     -18.067  60.731 114.011  0.00  0.00     0.006 C 
ENDBRANCH   8  11
ENDBRANCH   7   8
ENDBRANCH   1   7
BRANCH   6  13
ATOM     13  N   LIG d   1     -16.928  65.121 116.571  0.00  0.00    -0.311 N 
ATOM     14  C   LIG d   1     -16.529  64.119 117.354  0.00  0.00     0.210 C 
ATOM     15  C   LIG d   1     -17.580  63.622 118.352  0.00  0.00     0.109 C 
ATOM     16  O   LIG d   1     -15.395  63.617 117.339  0.00  0.00    -0.276 OA
ATOM     17  H   LIG d   1     -17.853  65.488 116.673  0.00  0.00     0.149 HD
ENDBRANCH   6  13
BRANCH   5  18
ATOM     18  N   LIG d   1     -15.206  67.613 116.968  0.00  0.00     0.381 N 
ATOM     19  H   LIG d   1     -14.711  68.474 116.847  0.00  0.00    -0.090 HD
ATOM     20  H   LIG d   1     -14.540  66.893 117.184  0.00  0.00    -0.090 HD
ATOM     21  H   LIG d   1     -15.864  67.701 117.711  0.00  0.00    -0.090 HD
ENDBRANCH   5  18
BRANCH   3  22
ATOM     22  C   LIG d   1     -15.378  68.305 112.232  0.00  0.00     0.382 C 
ATOM     23  O   LIG d   1     -15.459  67.877 111.055  0.00  0.00    -0.241 OA
ATOM     24  O   LIG d   1     -15.079  69.498 112.431  0.00  0.00    -0.241 OA
ENDBRANCH   3  22
TORSDOF 7
ENDMDL
MODEL 2
REMARK VINA RESULT:      -5.4     11.641     14.535
REMARK  7 active torsions:
REMARK  status: ('A' for Active; 'I' for Inactive)
REMARK    1  A    between atoms: C_2  and  C_3 
REMARK    2  A    between atoms: C_3  and  O_6 
REMARK    3  A    between atoms: C_3  and  C_4 
REMARK    4  A    between atoms: C_7  and  O_6 
REMARK    5  A    between atoms: C_9  and  C_10 
REMARK    6  A    between atoms: N_15  and  C_14 
REMARK    7  A    between atoms: N_20  and  C_19 
REMARK       I    between atoms: C_22  and  N_20 
ROOT
ATOM      1  C   LIG d   1      -8.459  76.100 117.909  0.00  0.00     0.161 C 
ATOM      2  C   LIG d   1      -9.467  76.986 118.325  0.00  0.00     0.016 C 
ATOM      3  C   LIG d   1      -9.296  78.389 118.379  0.00  0.00     0.038 C 
ATOM      4  C   LIG d   1      -8.147  79.016 117.872  0.00  0.00     0.028 C 
ATOM      5  C   LIG d   1      -6.907  78.130 117.911  0.00  0.00    -0.047 C 
ATOM      6  C   LIG d   1      -7.238  76.773 117.248  0.00  0.00     0.091 C 
ENDROOT
BRANCH   1   7
ATOM      7  O   LIG d   1      -9.018  75.103 117.031  0.00  0.00    -0.368 OA
BRANCH   7   8
ATOM      8  C   LIG d   1      -9.024  73.744 117.533  0.00  0.00     0.119 C 
BRANCH   8   9
ATOM      9  C   LIG d   1      -8.327  72.859 116.482  0.00  0.00     0.028 C 
ATOM     10  C   LIG d   1      -8.889  71.428 116.453  0.00  0.00     0.006 C 
ENDBRANCH   8   9
BRANCH   8  11
ATOM     11  C   LIG d   1     -10.451  73.196 117.642  0.00  0.00     0.028 C 
ATOM     12  C   LIG d   1     -11.518  74.237 117.267  0.00  0.00     0.006 C 
ENDBRANCH   8  11
ENDBRANCH   7   8
ENDBRANCH   1   7
BRANCH   6  13
ATOM     13  N   LIG d   1      -6.104  75.816 117.318  0.00  0.00    -0.311 N 
ATOM     14  C   LIG d   1      -5.201  75.676 116.349  0.00  0.00     0.210 C 
ATOM     15  C   LIG d   1      -4.125  74.618 116.615  0.00  0.00     0.109 C 
ATOM     16  O   LIG d   1      -5.170  76.350 115.309  0.00  0.00    -0.276 OA
ATOM     17  H   LIG d   1      -6.035  75.250 118.142  0.00  0.00     0.149 HD
ENDBRANCH   6  13
BRANCH   5  18
ATOM     18  N   LIG d   1      -5.819  78.856 117.229  0.00  0.00     0.381 N 
ATOM     19  H   LIG d   1      -5.404  78.269 116.533  0.00  0.00    -0.090 HD
ATOM     20  H   LIG d   1      -5.113  79.093 117.904  0.00  0.00    -0.090 HD
ATOM     21  H   LIG d   1      -6.175  79.685 116.805  0.00  0.00    -0.090 HD
ENDBRANCH   5  18
BRANCH   3  22
ATOM     22  C   LIG d   1     -10.265  79.177 118.981  0.00  0.00     0.382 C 
ATOM     23  O   LIG d   1     -11.419  78.720 119.165  0.00  0.00    -0.241 OA
ATOM     24  O   LIG d   1     -10.013  80.354 119.301  0.00  0.00    -0.241 OA
ENDBRANCH   3  22
TORSDOF 7
ENDMDL
MODEL 3
REMARK VINA RESULT:      -5.3     25.894     28.866
REMARK  7 active torsions:
REMARK  status: ('A' for Active; 'I' for Inactive)
REMARK    1  A    between atoms: C_2  and  C_3 
REMARK    2  A    between atoms: C_3  and  O_6 
REMARK    3  A    between atoms: C_3  and  C_4 
REMARK    4  A    between atoms: C_7  and  O_6 
REMARK    5  A    between atoms: C_9  and  C_10 
REMARK    6  A    between atoms: N_15  and  C_14 
REMARK    7  A    between atoms: N_20  and  C_19 
REMARK       I    between atoms: C_22  and  N_20 
ROOT
ATOM      1  C   LIG d   1       2.518  86.949 114.719  0.00  0.00     0.161 C 
ATOM      2  C   LIG d   1       3.145  88.017 114.058  0.00  0.00     0.016 C 
ATOM      3  C   LIG d   1       4.544  88.225 114.067  0.00  0.00     0.038 C 
ATOM      4  C   LIG d   1       5.429  87.285 114.615  0.00  0.00     0.028 C 
ATOM      5  C   LIG d   1       4.810  86.449 115.731  0.00  0.00    -0.047 C 
ATOM      6  C   LIG d   1       3.476  85.852 115.229  0.00  0.00     0.091 C 
ENDROOT
BRANCH   1   7
ATOM      7  O   LIG d   1       1.506  86.374 113.869  0.00  0.00    -0.368 OA
BRANCH   7   8
ATOM      8  C   LIG d   1       1.903  85.211 113.102  0.00  0.00     0.119 C 
BRANCH   8   9
ATOM      9  C   LIG d   1       1.963  85.631 111.620  0.00  0.00     0.028 C 
ATOM     10  C   LIG d   1       3.403  85.691 111.085  0.00  0.00     0.006 C 
ENDBRANCH   8   9
BRANCH   8  11
ATOM     11  C   LIG d   1       0.841  84.110 113.169  0.00  0.00     0.028 C 
ATOM     12  C   LIG d   1      -0.538  84.582 112.682  0.00  0.00     0.006 C 
ENDBRANCH   8  11
ENDBRANCH   7   8
ENDBRANCH   1   7
BRANCH   6  13
ATOM     13  N   LIG d   1       2.763  85.089 116.287  0.00  0.00    -0.311 N 
ATOM     14  C   LIG d   1       2.873  83.770 116.439  0.00  0.00     0.210 C 
ATOM     15  C   LIG d   1       2.037  83.179 117.580  0.00  0.00     0.109 C 
ATOM     16  O   LIG d   1       3.606  83.038 115.758  0.00  0.00    -0.276 OA
ATOM     17  H   LIG d   1       2.170  85.609 116.904  0.00  0.00     0.149 HD
ENDBRANCH   6  13
BRANCH   5  18
ATOM     18  N   LIG d   1       5.795  85.421 116.116  0.00  0.00     0.381 N 
ATOM     19  H   LIG d   1       6.675  85.853 116.317  0.00  0.00    -0.090 HD
ATOM     20  H   LIG d   1       5.923  84.788 115.346  0.00  0.00    -0.090 HD
ATOM     21  H   LIG d   1       5.472  84.922 116.915  0.00  0.00    -0.090 HD
ENDBRANCH   5  18
BRANCH   3  22
ATOM     22  C   LIG d   1       5.067  89.403 113.556  0.00  0.00     0.382 C 
ATOM     23  O   LIG d   1       6.264  89.448 113.185  0.00  0.00    -0.241 OA
ATOM     24  O   LIG d   1       4.369  90.434 113.505  0.00  0.00    -0.241 OA
ENDBRANCH   3  22
TORSDOF 7
ENDMDL
MODEL 4
REMARK VINA RESULT:      -5.3     11.834     14.830
REMARK  7 active torsions:
REMARK  status: ('A' for Active; 'I' for Inactive)
REMARK    1  A    between atoms: C_2  and  C_3 
REMARK    2  A    between atoms: C_3  and  O_6 
REMARK    3  A    between atoms: C_3  and  C_4 
REMARK    4  A    between atoms: C_7  and  O_6 
REMARK    5  A    between atoms: C_9  and  C_10 
REMARK    6  A    between atoms: N_15  and  C_14 
REMARK    7  A    between atoms: N_20  and  C_19 
REMARK       I    between atoms: C_22  and  N_20 
ROOT
ATOM      1  C   LIG d   1      -8.724  77.138 117.559  0.00  0.00     0.161 C 
ATOM      2  C   LIG d   1      -8.696  78.523 117.793  0.00  0.00     0.016 C 
ATOM      3  C   LIG d   1      -9.734  79.222 118.450  0.00  0.00     0.038 C 
ATOM      4  C   LIG d   1     -10.809  78.555 119.056  0.00  0.00     0.028 C 
ATOM      5  C   LIG d   1     -11.133  77.214 118.407  0.00  0.00    -0.047 C 
ATOM      6  C   LIG d   1      -9.837  76.377 118.310  0.00  0.00     0.091 C 
ENDROOT
BRANCH   1   7
ATOM      7  O   LIG d   1      -7.436  76.565 117.858  0.00  0.00    -0.368 OA
BRANCH   7   8
ATOM      8  C   LIG d   1      -6.454  76.613 116.794  0.00  0.00     0.119 C 
BRANCH   8   9
ATOM      9  C   LIG d   1      -6.992  75.761 115.628  0.00  0.00     0.028 C 
ATOM     10  C   LIG d   1      -6.806  74.253 115.869  0.00  0.00     0.006 C 
ENDBRANCH   8   9
BRANCH   8  11
ATOM     11  C   LIG d   1      -5.143  75.942 117.215  0.00  0.00     0.028 C 
ATOM     12  C   LIG d   1      -4.556  76.537 118.505  0.00  0.00     0.006 C 
ENDBRANCH   8  11
ENDBRANCH   7   8
ENDBRANCH   1   7
BRANCH   6  13
ATOM     13  N   LIG d   1     -10.048  75.083 117.610  0.00  0.00    -0.311 N 
ATOM     14  C   LIG d   1      -9.751  73.902 118.149  0.00  0.00     0.210 C 
ATOM     15  C   LIG d   1     -10.029  72.693 117.250  0.00  0.00     0.109 C 
ATOM     16  O   LIG d   1      -9.314  73.738 119.298  0.00  0.00    -0.276 OA
ATOM     17  H   LIG d   1     -10.428  75.121 116.685  0.00  0.00     0.149 HD
ENDBRANCH   6  13
BRANCH   5  18
ATOM     18  N   LIG d   1     -12.180  76.566 119.220  0.00  0.00     0.381 N 
ATOM     19  H   LIG d   1     -12.853  77.247 119.510  0.00  0.00    -0.090 HD
ATOM     20  H   LIG d   1     -11.756  76.172 120.041  0.00  0.00    -0.090 HD
ATOM     21  H   LIG d   1     -12.627  75.849 118.692  0.00  0.00    -0.090 HD
ENDBRANCH   5  18
BRANCH   3  22
ATOM     22  C   LIG d   1      -9.722  80.608 118.472  0.00  0.00     0.382 C 
ATOM     23  O   LIG d   1      -8.696  81.221 118.853  0.00  0.00    -0.241 OA
ATOM     24  O   LIG d   1     -10.740  81.254 118.156  0.00  0.00    -0.241 OA
ENDBRANCH   3  22
TORSDOF 7
ENDMDL
MODEL 5
REMARK VINA RESULT:      -5.1     20.460     22.794
REMARK  7 active torsions:
REMARK  status: ('A' for Active; 'I' for Inactive)
REMARK    1  A    between atoms: C_2  and  C_3 
REMARK    2  A    between atoms: C_3  and  O_6 
REMARK    3  A    between atoms: C_3  and  C_4 
REMARK    4  A    between atoms: C_7  and  O_6 
REMARK    5  A    between atoms: C_9  and  C_10 
REMARK    6  A    between atoms: N_15  and  C_14 
REMARK    7  A    between atoms: N_20  and  C_19 
REMARK       I    between atoms: C_22  and  N_20 
ROOT
ATOM      1  C   LIG d   1     -25.741  86.056 113.295  0.00  0.00     0.161 C 
ATOM      2  C   LIG d   1     -24.622  86.894 113.425  0.00  0.00     0.016 C 
ATOM      3  C   LIG d   1     -23.329  86.421 113.750  0.00  0.00     0.038 C 
ATOM      4  C   LIG d   1     -23.037  85.051 113.818  0.00  0.00     0.028 C 
ATOM      5  C   LIG d   1     -24.241  84.192 114.190  0.00  0.00    -0.047 C 
ATOM      6  C   LIG d   1     -25.419  84.547 113.255  0.00  0.00     0.091 C 
ENDROOT
BRANCH   1   7
ATOM      7  O   LIG d   1     -26.503  86.436 112.131  0.00  0.00    -0.368 OA
BRANCH   7   8
ATOM      8  C   LIG d   1     -27.306  87.635 112.259  0.00  0.00     0.119 C 
BRANCH   8   9
ATOM      9  C   LIG d   1     -28.754  87.264 111.881  0.00  0.00     0.028 C 
ATOM     10  C   LIG d   1     -28.831  85.968 111.057  0.00  0.00     0.006 C 
ENDBRANCH   8   9
BRANCH   8  11
ATOM     11  C   LIG d   1     -26.882  88.701 111.244  0.00  0.00     0.028 C 
ATOM     12  C   LIG d   1     -27.609  90.039 111.448  0.00  0.00     0.006 C 
ENDBRANCH   8  11
ENDBRANCH   7   8
ENDBRANCH   1   7
BRANCH   6  13
ATOM     13  N   LIG d   1     -26.663  83.813 113.606  0.00  0.00    -0.311 N 
ATOM     14  C   LIG d   1     -27.287  82.986 112.769  0.00  0.00     0.210 C 
ATOM     15  C   LIG d   1     -28.564  82.347 113.323  0.00  0.00     0.109 C 
ATOM     16  O   LIG d   1     -26.887  82.698 111.630  0.00  0.00    -0.276 OA
ATOM     17  H   LIG d   1     -27.039  83.964 114.522  0.00  0.00     0.149 HD
ENDBRANCH   6  13
BRANCH   5  18
ATOM     18  N   LIG d   1     -23.829  82.779 114.090  0.00  0.00     0.381 N 
ATOM     19  H   LIG d   1     -23.660  82.410 115.004  0.00  0.00    -0.090 HD
ATOM     20  H   LIG d   1     -22.973  82.726 113.565  0.00  0.00    -0.090 HD
ATOM     21  H   LIG d   1     -24.539  82.248 113.635  0.00  0.00    -0.090 HD
ENDBRANCH   5  18
BRANCH   3  22
ATOM     22  C   LIG d   1     -22.322  87.325 114.050  0.00  0.00     0.382 C 
ATOM     23  O   LIG d   1     -22.550  88.281 114.830  0.00  0.00    -0.241 OA
ATOM     24  O   LIG d   1     -21.201  87.222 113.517  0.00  0.00    -0.241 OA
ENDBRANCH   3  22
TORSDOF 7
ENDMDL
MODEL 6
REMARK VINA RESULT:      -5.1     28.370     31.199
REMARK  7 active torsions:
REMARK  status: ('A' for Active; 'I' for Inactive)
REMARK    1  A    between atoms: C_2  and  C_3 
REMARK    2  A    between atoms: C_3  and  O_6 
REMARK    3  A    between atoms: C_3  and  C_4 
REMARK    4  A    between atoms: C_7  and  O_6 
REMARK    5  A    between atoms: C_9  and  C_10 
REMARK    6  A    between atoms: N_15  and  C_14 
REMARK    7  A    between atoms: N_20  and  C_19 
REMARK       I    between atoms: C_22  and  N_20 
ROOT
ATOM      1  C   LIG d   1      10.761  80.257 114.908  0.00  0.00     0.161 C 
ATOM      2  C   LIG d   1      10.330  78.974 114.530  0.00  0.00     0.016 C 
ATOM      3  C   LIG d   1       9.228  78.317 115.122  0.00  0.00     0.038 C 
ATOM      4  C   LIG d   1       8.382  78.964 116.036  0.00  0.00     0.028 C 
ATOM      5  C   LIG d   1       9.074  80.075 116.819  0.00  0.00    -0.047 C 
ATOM      6  C   LIG d   1       9.784  81.022 115.825  0.00  0.00     0.091 C 
ENDROOT
BRANCH   1   7
ATOM      7  O   LIG d   1      11.063  81.037 113.735  0.00  0.00    -0.368 OA
BRANCH   7   8
ATOM      8  C   LIG d   1      11.851  80.376 112.715  0.00  0.00     0.119 C 
BRANCH   8   9
ATOM      9  C   LIG d   1      13.335  80.561 113.084  0.00  0.00     0.028 C 
ATOM     10  C   LIG d   1      14.277  79.812 112.126  0.00  0.00     0.006 C 
ENDBRANCH   8   9
BRANCH   8  11
ATOM     11  C   LIG d   1      11.684  81.056 111.353  0.00  0.00     0.028 C 
ATOM     12  C   LIG d   1      10.600  82.146 111.360  0.00  0.00     0.006 C 
ENDBRANCH   8  11
ENDBRANCH   7   8
ENDBRANCH   1   7
BRANCH   6  13
ATOM     13  N   LIG d   1      10.556  82.090 116.513  0.00  0.00    -0.311 N 
ATOM     14  C   LIG d   1      10.085  83.319 116.718  0.00  0.00     0.210 C 
ATOM     15  C   LIG d   1      11.052  84.271 117.429  0.00  0.00     0.109 C 
ATOM     16  O   LIG d   1       8.947  83.701 116.408  0.00  0.00    -0.276 OA
ATOM     17  H   LIG d   1      11.479  81.857 116.826  0.00  0.00     0.149 HD
ENDBRANCH   6  13
BRANCH   5  18
ATOM     18  N   LIG d   1       8.047  80.754 117.632  0.00  0.00     0.381 N 
ATOM     19  H   LIG d   1       8.328  80.765 118.592  0.00  0.00    -0.090 HD
ATOM     20  H   LIG d   1       7.186  80.241 117.561  0.00  0.00    -0.090 HD
ATOM     21  H   LIG d   1       7.915  81.686 117.305  0.00  0.00    -0.090 HD
ENDBRANCH   5  18
BRANCH   3  22
ATOM     22  C   LIG d   1       8.985  76.983 114.831  0.00  0.00     0.382 C 
ATOM     23  O   LIG d   1       7.862  76.631 114.395  0.00  0.00    -0.241 OA
ATOM     24  O   LIG d   1       9.859  76.122 115.041  0.00  0.00    -0.241 OA
ENDBRANCH   3  22
TORSDOF 7
ENDMDL
MODEL 7
REMARK VINA RESULT:      -5.1     12.056     15.223
REMARK  7 active torsions:
REMARK  status: ('A' for Active; 'I' for Inactive)
REMARK    1  A    between atoms: C_2  and  C_3 
REMARK    2  A    between atoms: C_3  and  O_6 
REMARK    3  A    between atoms: C_3  and  C_4 
REMARK    4  A    between atoms: C_7  and  O_6 
REMARK    5  A    between atoms: C_9  and  C_10 
REMARK    6  A    between atoms: N_15  and  C_14 
REMARK    7  A    between atoms: N_20  and  C_19 
REMARK       I    between atoms: C_22  and  N_20 
ROOT
ATOM      1  C   LIG d   1      -8.338  76.638 117.599  0.00  0.00     0.161 C 
ATOM      2  C   LIG d   1      -9.391  75.719 117.462  0.00  0.00     0.016 C 
ATOM      3  C   LIG d   1     -10.730  76.012 117.808  0.00  0.00     0.038 C 
ATOM      4  C   LIG d   1     -11.135  77.303 118.177  0.00  0.00     0.028 C 
ATOM      5  C   LIG d   1     -10.022  78.129 118.813  0.00  0.00    -0.047 C 
ATOM      6  C   LIG d   1      -8.779  78.087 117.894  0.00  0.00     0.091 C 
ENDROOT
BRANCH   1   7
ATOM      7  O   LIG d   1      -7.499  76.599 116.428  0.00  0.00    -0.368 OA
BRANCH   7   8
ATOM      8  C   LIG d   1      -6.362  75.703 116.489  0.00  0.00     0.119 C 
BRANCH   8   9
ATOM      9  C   LIG d   1      -5.104  76.527 116.151  0.00  0.00     0.028 C 
ATOM     10  C   LIG d   1      -4.129  75.763 115.240  0.00  0.00     0.006 C 
ENDBRANCH   8   9
BRANCH   8  11
ATOM     11  C   LIG d   1      -6.443  74.624 115.405  0.00  0.00     0.028 C 
ATOM     12  C   LIG d   1      -7.009  73.295 115.929  0.00  0.00     0.006 C 
ENDBRANCH   8  11
ENDBRANCH   7   8
ENDBRANCH   1   7
BRANCH   6  13
ATOM     13  N   LIG d   1      -7.616  78.801 118.483  0.00  0.00    -0.311 N 
ATOM     14  C   LIG d   1      -7.297  80.058 118.180  0.00  0.00     0.210 C 
ATOM     15  C   LIG d   1      -6.048  80.596 118.884  0.00  0.00     0.109 C 
ATOM     16  O   LIG d   1      -7.949  80.789 117.420  0.00  0.00    -0.276 OA
ATOM     17  H   LIG d   1      -7.050  78.292 119.133  0.00  0.00     0.149 HD
ENDBRANCH   6  13
BRANCH   5  18
ATOM     18  N   LIG d   1     -10.542  79.494 119.020  0.00  0.00     0.381 N 
ATOM     19  H   LIG d   1     -10.018  79.950 119.740  0.00  0.00    -0.090 HD
ATOM     20  H   LIG d   1     -11.500  79.435 119.316  0.00  0.00    -0.090 HD
ATOM     21  H   LIG d   1     -10.480  80.015 118.173  0.00  0.00    -0.090 HD
ENDBRANCH   5  18
BRANCH   3  22
ATOM     22  C   LIG d   1     -11.673  74.995 117.827  0.00  0.00     0.382 C 
ATOM     23  O   LIG d   1     -11.343  73.828 117.508  0.00  0.00    -0.241 OA
ATOM     24  O   LIG d   1     -12.860  75.240 118.115  0.00  0.00    -0.241 OA
ENDBRANCH   3  22
TORSDOF 7
ENDMDL
MODEL 8
REMARK VINA RESULT:      -5.0     15.370     18.394
REMARK  7 active torsions:
REMARK  status: ('A' for Active; 'I' for Inactive)
REMARK    1  A    between atoms: C_2  and  C_3 
REMARK    2  A    between atoms: C_3  and  O_6 
REMARK    3  A    between atoms: C_3  and  C_4 
REMARK    4  A    between atoms: C_7  and  O_6 
REMARK    5  A    between atoms: C_9  and  C_10 
REMARK    6  A    between atoms: N_15  and  C_14 
REMARK    7  A    between atoms: N_20  and  C_19 
REMARK       I    between atoms: C_22  and  N_20 
ROOT
ATOM      1  C   LIG d   1      -2.182  75.477 115.073  0.00  0.00     0.161 C 
ATOM      2  C   LIG d   1      -2.087  74.630 116.190  0.00  0.00     0.016 C 
ATOM      3  C   LIG d   1      -1.340  74.950 117.347  0.00  0.00     0.038 C 
ATOM      4  C   LIG d   1      -0.756  76.212 117.528  0.00  0.00     0.028 C 
ATOM      5  C   LIG d   1      -0.402  76.909 116.219  0.00  0.00    -0.047 C 
ATOM      6  C   LIG d   1      -1.643  76.905 115.297  0.00  0.00     0.091 C 
ENDROOT
BRANCH   1   7
ATOM      7  O   LIG d   1      -3.545  75.523 114.609  0.00  0.00    -0.368 OA
BRANCH   7   8
ATOM      8  C   LIG d   1      -4.569  75.371 115.622  0.00  0.00     0.119 C 
BRANCH   8   9
ATOM      9  C   LIG d   1      -5.857  74.909 114.914  0.00  0.00     0.028 C 
ATOM     10  C   LIG d   1      -6.799  74.137 115.854  0.00  0.00     0.006 C 
ENDBRANCH   8   9
BRANCH   8  11
ATOM     11  C   LIG d   1      -4.921  76.716 116.265  0.00  0.00     0.028 C 
ATOM     12  C   LIG d   1      -4.697  76.727 117.785  0.00  0.00     0.006 C 
ENDBRANCH   8  11
ENDBRANCH   7   8
ENDBRANCH   1   7
BRANCH   6  13
ATOM     13  N   LIG d   1      -1.358  77.493 113.962  0.00  0.00    -0.311 N 
ATOM     14  C   LIG d   1      -2.128  78.417 113.389  0.00  0.00     0.210 C 
ATOM     15  C   LIG d   1      -1.665  78.874 112.001  0.00  0.00     0.109 C 
ATOM     16  O   LIG d   1      -3.131  78.926 113.911  0.00  0.00    -0.276 OA
ATOM     17  H   LIG d   1      -0.546  77.160 113.480  0.00  0.00     0.149 HD
ENDBRANCH   6  13
BRANCH   5  18
ATOM     18  N   LIG d   1       0.069  78.267 116.549  0.00  0.00     0.381 N 
ATOM     19  H   LIG d   1      -0.016  78.859 115.748  0.00  0.00    -0.090 HD
ATOM     20  H   LIG d   1       1.040  78.221 116.806  0.00  0.00    -0.090 HD
ATOM     21  H   LIG d   1      -0.464  78.638 117.305  0.00  0.00    -0.090 HD
ENDBRANCH   5  18
BRANCH   3  22
ATOM     22  C   LIG d   1      -1.139  73.985 118.323  0.00  0.00     0.382 C 
ATOM     23  O   LIG d   1      -1.727  72.880 118.243  0.00  0.00    -0.241 OA
ATOM     24  O   LIG d   1      -0.410  74.222 119.305  0.00  0.00    -0.241 OA
ENDBRANCH   3  22
TORSDOF 7
ENDMDL
MODEL 9
REMARK VINA RESULT:      -5.0     13.103     15.656
REMARK  7 active torsions:
REMARK  status: ('A' for Active; 'I' for Inactive)
REMARK    1  A    between atoms: C_2  and  C_3 
REMARK    2  A    between atoms: C_3  and  O_6 
REMARK    3  A    between atoms: C_3  and  C_4 
REMARK    4  A    between atoms: C_7  and  O_6 
REMARK    5  A    between atoms: C_9  and  C_10 
REMARK    6  A    between atoms: N_15  and  C_14 
REMARK    7  A    between atoms: N_20  and  C_19 
REMARK       I    between atoms: C_22  and  N_20 
ROOT
ATOM      1  C   LIG d   1      -7.635  76.572 116.742  0.00  0.00     0.161 C 
ATOM      2  C   LIG d   1      -8.998  76.279 116.917  0.00  0.00     0.016 C 
ATOM      3  C   LIG d   1      -9.848  77.014 117.775  0.00  0.00     0.038 C 
ATOM      4  C   LIG d   1      -9.424  78.194 118.405  0.00  0.00     0.028 C 
ATOM      5  C   LIG d   1      -7.921  78.241 118.655  0.00  0.00    -0.047 C 
ATOM      6  C   LIG d   1      -7.182  77.922 117.335  0.00  0.00     0.091 C 
ENDROOT
BRANCH   1   7
ATOM      7  O   LIG d   1      -7.296  76.500 115.343  0.00  0.00    -0.368 OA
BRANCH   7   8
ATOM      8  C   LIG d   1      -6.500  75.360 114.937  0.00  0.00     0.119 C 
BRANCH   8   9
ATOM      9  C   LIG d   1      -6.394  74.414 116.150  0.00  0.00     0.028 C 
ATOM     10  C   LIG d   1      -7.122  73.080 115.919  0.00  0.00     0.006 C 
ENDBRANCH   8   9
BRANCH   8  11
ATOM     11  C   LIG d   1      -5.059  75.771 114.617  0.00  0.00     0.028 C 
ATOM     12  C   LIG d   1      -4.046  75.237 115.641  0.00  0.00     0.006 C 
ENDBRANCH   8  11
ENDBRANCH   7   8
ENDBRANCH   1   7
BRANCH   6  13
ATOM     13  N   LIG d   1      -5.707  77.864 117.511  0.00  0.00    -0.311 N 
ATOM     14  C   LIG d   1      -4.898  78.889 117.252  0.00  0.00     0.210 C 
ATOM     15  C   LIG d   1      -3.409  78.611 117.481  0.00  0.00     0.109 C 
ATOM     16  O   LIG d   1      -5.274  80.013 116.884  0.00  0.00    -0.276 OA
ATOM     17  H   LIG d   1      -5.320  77.000 117.835  0.00  0.00     0.149 HD
ENDBRANCH   6  13
BRANCH   5  18
ATOM     18  N   LIG d   1      -7.599  79.578 119.189  0.00  0.00     0.381 N 
ATOM     19  H   LIG d   1      -7.545  80.238 118.440  0.00  0.00    -0.090 HD
ATOM     20  H   LIG d   1      -6.703  79.540 119.642  0.00  0.00    -0.090 HD
ATOM     21  H   LIG d   1      -8.297  79.861 119.842  0.00  0.00    -0.090 HD
ENDBRANCH   5  18
BRANCH   3  22
ATOM     22  C   LIG d   1     -11.126  76.548 118.040  0.00  0.00     0.382 C 
ATOM     23  O   LIG d   1     -12.027  77.350 118.385  0.00  0.00    -0.241 OA
ATOM     24  O   LIG d   1     -11.379  75.330 117.983  0.00  0.00    -0.241 OA
ENDBRANCH   3  22
TORSDOF 7
ENDMDL
