MODEL 1
REMARK VINA RESULT:      -5.6      0.000      0.000
REMARK  7 active torsions:
REMARK  status: ('A' for Active; 'I' for Inactive)
REMARK    1  A    between atoms: C_2  and  C_3 
REMARK    2  A    between atoms: C_3  and  O_6 
REMARK    3  A    between atoms: C_3  and  C_4 
REMARK    4  A    between atoms: C_7  and  O_6 
REMARK    5  A    between atoms: C_9  and  C_10 
REMARK    6  A    between atoms: N_15  and  C_14 
REMARK    7  A    between atoms: N_20  and  C_19 
REMARK       I    between atoms: C_22  and  N_20 
ROOT
ATOM      1  C   LIG d   1      -6.898  76.839 117.128  0.00  0.00     0.161 C 
ATOM      2  C   LIG d   1      -8.170  77.195 117.606  0.00  0.00     0.016 C 
ATOM      3  C   LIG d   1      -8.508  78.505 118.017  0.00  0.00     0.038 C 
ATOM      4  C   LIG d   1      -7.635  79.588 117.834  0.00  0.00     0.028 C 
ATOM      5  C   LIG d   1      -6.164  79.185 117.824  0.00  0.00    -0.047 C 
ATOM      6  C   LIG d   1      -5.967  78.029 116.817  0.00  0.00     0.091 C 
ENDROOT
BRANCH   1   7
ATOM      7  O   LIG d   1      -7.032  75.991 115.970  0.00  0.00    -0.368 OA
BRANCH   7   8
ATOM      8  C   LIG d   1      -6.419  74.681 116.064  0.00  0.00     0.119 C 
BRANCH   8   9
ATOM      9  C   LIG d   1      -5.883  74.319 114.666  0.00  0.00     0.028 C 
ATOM     10  C   LIG d   1      -5.565  75.562 113.819  0.00  0.00     0.006 C 
ENDBRANCH   8   9
BRANCH   8  11
ATOM     11  C   LIG d   1      -7.457  73.604 116.393  0.00  0.00     0.028 C 
ATOM     12  C   LIG d   1      -6.989  72.190 116.012  0.00  0.00     0.006 C 
ENDBRANCH   8  11
ENDBRANCH   7   8
ENDBRANCH   1   7
BRANCH   6  13
ATOM     13  N   LIG d   1      -4.572  77.518 116.806  0.00  0.00    -0.311 N 
ATOM     14  C   LIG d   1      -3.638  77.955 115.963  0.00  0.00     0.210 C 
ATOM     15  C   LIG d   1      -2.270  77.280 116.108  0.00  0.00     0.109 C 
ATOM     16  O   LIG d   1      -3.804  78.858 115.130  0.00  0.00    -0.276 OA
ATOM     17  H   LIG d   1      -4.342  76.805 117.470  0.00  0.00     0.149 HD
ENDBRANCH   6  13
BRANCH   5  18
ATOM     18  N   LIG d   1      -5.376  80.386 117.488  0.00  0.00     0.381 N 
ATOM     19  H   LIG d   1      -4.405  80.150 117.437  0.00  0.00    -0.090 HD
ATOM     20  H   LIG d   1      -5.497  81.068 118.216  0.00  0.00    -0.090 HD
ATOM     21  H   LIG d   1      -5.681  80.761 116.617  0.00  0.00    -0.090 HD
ENDBRANCH   5  18
BRANCH   3  22
ATOM     22  C   LIG d   1      -9.717  78.734 118.656  0.00  0.00     0.382 C 
ATOM     23  O   LIG d   1     -10.652  77.905 118.545  0.00  0.00    -0.241 OA
ATOM     24  O   LIG d   1      -9.901  79.781 119.305  0.00  0.00    -0.241 OA
ENDBRANCH   3  22
TORSDOF 7
ENDMDL
MODEL 2
REMARK VINA RESULT:      -5.4      4.337      6.017
REMARK  7 active torsions:
REMARK  status: ('A' for Active; 'I' for Inactive)
REMARK    1  A    between atoms: C_2  and  C_3 
REMARK    2  A    between atoms: C_3  and  O_6 
REMARK    3  A    between atoms: C_3  and  C_4 
REMARK    4  A    between atoms: C_7  and  O_6 
REMARK    5  A    between atoms: C_9  and  C_10 
REMARK    6  A    between atoms: N_15  and  C_14 
REMARK    7  A    between atoms: N_20  and  C_19 
REMARK       I    between atoms: C_22  and  N_20 
ROOT
ATOM      1  C   LIG d   1      -2.621  75.341 115.555  0.00  0.00     0.161 C 
ATOM      2  C   LIG d   1      -2.083  74.686 116.675  0.00  0.00     0.016 C 
ATOM      3  C   LIG d   1      -0.961  75.162 117.391  0.00  0.00     0.038 C 
ATOM      4  C   LIG d   1      -0.389  76.415 117.125  0.00  0.00     0.028 C 
ATOM      5  C   LIG d   1      -0.581  76.874 115.683  0.00  0.00    -0.047 C 
ATOM      6  C   LIG d   1      -2.078  76.766 115.317  0.00  0.00     0.091 C 
ENDROOT
BRANCH   1   7
ATOM      7  O   LIG d   1      -4.059  75.360 115.643  0.00  0.00    -0.368 OA
BRANCH   7   8
ATOM      8  C   LIG d   1      -4.743  74.176 115.166  0.00  0.00     0.119 C 
BRANCH   8   9
ATOM      9  C   LIG d   1      -5.278  74.487 113.755  0.00  0.00     0.028 C 
ATOM     10  C   LIG d   1      -5.812  75.924 113.633  0.00  0.00     0.006 C 
ENDBRANCH   8   9
BRANCH   8  11
ATOM     11  C   LIG d   1      -5.983  73.870 116.012  0.00  0.00     0.028 C 
ATOM     12  C   LIG d   1      -6.533  72.455 115.773  0.00  0.00     0.006 C 
ENDBRANCH   8  11
ENDBRANCH   7   8
ENDBRANCH   1   7
BRANCH   6  13
ATOM     13  N   LIG d   1      -2.341  77.116 113.897  0.00  0.00    -0.311 N 
ATOM     14  C   LIG d   1      -2.744  78.323 113.502  0.00  0.00     0.210 C 
ATOM     15  C   LIG d   1      -2.976  78.465 111.994  0.00  0.00     0.109 C 
ATOM     16  O   LIG d   1      -2.899  79.297 114.253  0.00  0.00    -0.276 OA
ATOM     17  H   LIG d   1      -2.210  76.393 113.217  0.00  0.00     0.149 HD
ENDBRANCH   6  13
BRANCH   5  18
ATOM     18  N   LIG d   1      -0.058  78.250 115.581  0.00  0.00     0.381 N 
ATOM     19  H   LIG d   1       0.610  78.304 114.838  0.00  0.00    -0.090 HD
ATOM     20  H   LIG d   1       0.405  78.487 116.440  0.00  0.00    -0.090 HD
ATOM     21  H   LIG d   1      -0.806  78.886 115.411  0.00  0.00    -0.090 HD
ENDBRANCH   5  18
BRANCH   3  22
ATOM     22  C   LIG d   1      -0.375  74.363 118.362  0.00  0.00     0.382 C 
ATOM     23  O   LIG d   1       0.263  74.889 119.305  0.00  0.00    -0.241 OA
ATOM     24  O   LIG d   1      -0.440  73.122 118.281  0.00  0.00    -0.241 OA
ENDBRANCH   3  22
TORSDOF 7
ENDMDL
MODEL 3
REMARK VINA RESULT:      -5.4      4.178      5.578
REMARK  7 active torsions:
REMARK  status: ('A' for Active; 'I' for Inactive)
REMARK    1  A    between atoms: C_2  and  C_3 
REMARK    2  A    between atoms: C_3  and  O_6 
REMARK    3  A    between atoms: C_3  and  C_4 
REMARK    4  A    between atoms: C_7  and  O_6 
REMARK    5  A    between atoms: C_9  and  C_10 
REMARK    6  A    between atoms: N_15  and  C_14 
REMARK    7  A    between atoms: N_20  and  C_19 
REMARK       I    between atoms: C_22  and  N_20 
ROOT
ATOM      1  C   LIG d   1      -3.617  75.429 115.751  0.00  0.00     0.161 C 
ATOM      2  C   LIG d   1      -4.407  74.360 116.208  0.00  0.00     0.016 C 
ATOM      3  C   LIG d   1      -5.606  73.954 115.578  0.00  0.00     0.038 C 
ATOM      4  C   LIG d   1      -6.020  74.497 114.352  0.00  0.00     0.028 C 
ATOM      5  C   LIG d   1      -5.522  75.920 114.120  0.00  0.00    -0.047 C 
ATOM      6  C   LIG d   1      -3.994  75.961 114.353  0.00  0.00     0.091 C 
ENDROOT
BRANCH   1   7
ATOM      7  O   LIG d   1      -2.225  75.058 115.788  0.00  0.00    -0.368 OA
BRANCH   7   8
ATOM      8  C   LIG d   1      -1.336  75.982 116.462  0.00  0.00     0.119 C 
BRANCH   8   9
ATOM      9  C   LIG d   1      -0.011  76.008 115.676  0.00  0.00     0.028 C 
ATOM     10  C   LIG d   1      -0.036  75.075 114.453  0.00  0.00     0.006 C 
ENDBRANCH   8   9
BRANCH   8  11
ATOM     11  C   LIG d   1      -0.967  75.479 117.861  0.00  0.00     0.028 C 
ATOM     12  C   LIG d   1      -0.689  73.968 117.897  0.00  0.00     0.006 C 
ENDBRANCH   8  11
ENDBRANCH   7   8
ENDBRANCH   1   7
BRANCH   6  13
ATOM     13  N   LIG d   1      -3.439  77.334 114.229  0.00  0.00    -0.311 N 
ATOM     14  C   LIG d   1      -2.622  77.708 113.246  0.00  0.00     0.210 C 
ATOM     15  C   LIG d   1      -2.149  79.163 113.317  0.00  0.00     0.109 C 
ATOM     16  O   LIG d   1      -2.269  76.982 112.304  0.00  0.00    -0.276 OA
ATOM     17  H   LIG d   1      -3.698  77.996 114.934  0.00  0.00     0.149 HD
ENDBRANCH   6  13
BRANCH   5  18
ATOM     18  N   LIG d   1      -5.909  76.310 112.752  0.00  0.00     0.381 N 
ATOM     19  H   LIG d   1      -5.690  75.571 112.114  0.00  0.00    -0.090 HD
ATOM     20  H   LIG d   1      -5.384  77.124 112.485  0.00  0.00    -0.090 HD
ATOM     21  H   LIG d   1      -6.885  76.510 112.717  0.00  0.00    -0.090 HD
ENDBRANCH   5  18
BRANCH   3  22
ATOM     22  C   LIG d   1      -6.425  73.022 116.196  0.00  0.00     0.382 C 
ATOM     23  O   LIG d   1      -6.575  73.047 117.441  0.00  0.00    -0.241 OA
ATOM     24  O   LIG d   1      -6.982  72.129 115.529  0.00  0.00    -0.241 OA
ENDBRANCH   3  22
TORSDOF 7
ENDMDL
MODEL 4
REMARK VINA RESULT:      -5.2      2.450      5.397
REMARK  7 active torsions:
REMARK  status: ('A' for Active; 'I' for Inactive)
REMARK    1  A    between atoms: C_2  and  C_3 
REMARK    2  A    between atoms: C_3  and  O_6 
REMARK    3  A    between atoms: C_3  and  C_4 
REMARK    4  A    between atoms: C_7  and  O_6 
REMARK    5  A    between atoms: C_9  and  C_10 
REMARK    6  A    between atoms: N_15  and  C_14 
REMARK    7  A    between atoms: N_20  and  C_19 
REMARK       I    between atoms: C_22  and  N_20 
ROOT
ATOM      1  C   LIG d   1      -4.811  76.191 115.167  0.00  0.00     0.161 C 
ATOM      2  C   LIG d   1      -5.161  74.875 114.823  0.00  0.00     0.016 C 
ATOM      3  C   LIG d   1      -6.149  74.129 115.506  0.00  0.00     0.038 C 
ATOM      4  C   LIG d   1      -6.965  74.706 116.490  0.00  0.00     0.028 C 
ATOM      5  C   LIG d   1      -6.307  75.876 117.214  0.00  0.00    -0.047 C 
ATOM      6  C   LIG d   1      -5.768  76.875 116.165  0.00  0.00     0.091 C 
ENDROOT
BRANCH   1   7
ATOM      7  O   LIG d   1      -4.678  76.988 113.973  0.00  0.00    -0.368 OA
BRANCH   7   8
ATOM      8  C   LIG d   1      -3.383  76.954 113.324  0.00  0.00     0.119 C 
BRANCH   8   9
ATOM      9  C   LIG d   1      -2.365  77.595 114.288  0.00  0.00     0.028 C 
ATOM     10  C   LIG d   1      -1.201  76.648 114.626  0.00  0.00     0.006 C 
ENDBRANCH   8   9
BRANCH   8  11
ATOM     11  C   LIG d   1      -3.364  77.833 112.071  0.00  0.00     0.028 C 
ATOM     12  C   LIG d   1      -2.458  79.065 112.221  0.00  0.00     0.006 C 
ENDBRANCH   8  11
ENDBRANCH   7   8
ENDBRANCH   1   7
BRANCH   6  13
ATOM     13  N   LIG d   1      -5.035  78.009 116.786  0.00  0.00    -0.311 N 
ATOM     14  C   LIG d   1      -5.625  79.136 117.179  0.00  0.00     0.210 C 
ATOM     15  C   LIG d   1      -4.682  80.185 117.777  0.00  0.00     0.109 C 
ATOM     16  O   LIG d   1      -6.845  79.354 117.119  0.00  0.00    -0.276 OA
ATOM     17  H   LIG d   1      -4.046  77.904 116.902  0.00  0.00     0.149 HD
ENDBRANCH   6  13
BRANCH   5  18
ATOM     18  N   LIG d   1      -7.316  76.469 118.112  0.00  0.00     0.381 N 
ATOM     19  H   LIG d   1      -7.239  76.062 119.023  0.00  0.00    -0.090 HD
ATOM     20  H   LIG d   1      -8.232  76.265 117.752  0.00  0.00    -0.090 HD
ATOM     21  H   LIG d   1      -7.185  77.455 118.169  0.00  0.00    -0.090 HD
ENDBRANCH   5  18
BRANCH   3  22
ATOM     22  C   LIG d   1      -6.300  72.777 115.234  0.00  0.00     0.382 C 
ATOM     23  O   LIG d   1      -7.106  72.089 115.905  0.00  0.00    -0.241 OA
ATOM     24  O   LIG d   1      -5.608  72.228 114.356  0.00  0.00    -0.241 OA
ENDBRANCH   3  22
TORSDOF 7
ENDMDL
MODEL 5
REMARK VINA RESULT:      -5.1      3.937      5.908
REMARK  7 active torsions:
REMARK  status: ('A' for Active; 'I' for Inactive)
REMARK    1  A    between atoms: C_2  and  C_3 
REMARK    2  A    between atoms: C_3  and  O_6 
REMARK    3  A    between atoms: C_3  and  C_4 
REMARK    4  A    between atoms: C_7  and  O_6 
REMARK    5  A    between atoms: C_9  and  C_10 
REMARK    6  A    between atoms: N_15  and  C_14 
REMARK    7  A    between atoms: N_20  and  C_19 
REMARK       I    between atoms: C_22  and  N_20 
ROOT
ATOM      1  C   LIG d   1      -2.926  75.656 116.397  0.00  0.00     0.161 C 
ATOM      2  C   LIG d   1      -3.229  76.895 115.807  0.00  0.00     0.016 C 
ATOM      3  C   LIG d   1      -2.333  77.599 114.971  0.00  0.00     0.038 C 
ATOM      4  C   LIG d   1      -1.121  77.037 114.543  0.00  0.00     0.028 C 
ATOM      5  C   LIG d   1      -0.553  76.008 115.516  0.00  0.00    -0.047 C 
ATOM      6  C   LIG d   1      -1.653  74.975 115.852  0.00  0.00     0.091 C 
ENDROOT
BRANCH   1   7
ATOM      7  O   LIG d   1      -4.057  74.770 116.281  0.00  0.00    -0.368 OA
BRANCH   7   8
ATOM      8  C   LIG d   1      -5.302  75.378 115.858  0.00  0.00     0.119 C 
BRANCH   8   9
ATOM      9  C   LIG d   1      -6.388  74.960 116.869  0.00  0.00     0.028 C 
ATOM     10  C   LIG d   1      -7.696  75.748 116.684  0.00  0.00     0.006 C 
ENDBRANCH   8   9
BRANCH   8  11
ATOM     11  C   LIG d   1      -5.766  74.819 114.510  0.00  0.00     0.028 C 
ATOM     12  C   LIG d   1      -5.820  75.889 113.408  0.00  0.00     0.006 C 
ENDBRANCH   8  11
ENDBRANCH   7   8
ENDBRANCH   1   7
BRANCH   6  13
ATOM     13  N   LIG d   1      -1.207  73.981 116.863  0.00  0.00    -0.311 N 
ATOM     14  C   LIG d   1      -0.659  74.318 118.030  0.00  0.00     0.210 C 
ATOM     15  C   LIG d   1      -0.252  73.137 118.917  0.00  0.00     0.109 C 
ATOM     16  O   LIG d   1      -0.501  75.482 118.428  0.00  0.00    -0.276 OA
ATOM     17  H   LIG d   1      -1.327  73.014 116.635  0.00  0.00     0.149 HD
ENDBRANCH   6  13
BRANCH   5  18
ATOM     18  N   LIG d   1       0.634  75.404 114.883  0.00  0.00     0.381 N 
ATOM     19  H   LIG d   1       1.316  75.186 115.581  0.00  0.00    -0.090 HD
ATOM     20  H   LIG d   1       1.036  76.068 114.245  0.00  0.00    -0.090 HD
ATOM     21  H   LIG d   1       0.374  74.576 114.392  0.00  0.00    -0.090 HD
ENDBRANCH   5  18
BRANCH   3  22
ATOM     22  C   LIG d   1      -2.628  78.898 114.586  0.00  0.00     0.382 C 
ATOM     23  O   LIG d   1      -2.595  79.825 115.431  0.00  0.00    -0.241 OA
ATOM     24  O   LIG d   1      -2.969  79.148 113.415  0.00  0.00    -0.241 OA
ENDBRANCH   3  22
TORSDOF 7
ENDMDL
MODEL 6
REMARK VINA RESULT:      -5.1      7.840     10.913
REMARK  7 active torsions:
REMARK  status: ('A' for Active; 'I' for Inactive)
REMARK    1  A    between atoms: C_2  and  C_3 
REMARK    2  A    between atoms: C_3  and  O_6 
REMARK    3  A    between atoms: C_3  and  C_4 
REMARK    4  A    between atoms: C_7  and  O_6 
REMARK    5  A    between atoms: C_9  and  C_10 
REMARK    6  A    between atoms: N_15  and  C_14 
REMARK    7  A    between atoms: N_20  and  C_19 
REMARK       I    between atoms: C_22  and  N_20 
ROOT
ATOM      1  C   LIG d   1      -0.352  84.122 113.302  0.00  0.00     0.161 C 
ATOM      2  C   LIG d   1      -1.427  83.230 113.453  0.00  0.00     0.016 C 
ATOM      3  C   LIG d   1      -1.425  81.914 112.936  0.00  0.00     0.038 C 
ATOM      4  C   LIG d   1      -0.279  81.347 112.358  0.00  0.00     0.028 C 
ATOM      5  C   LIG d   1       0.658  82.375 111.734  0.00  0.00    -0.047 C 
ATOM      6  C   LIG d   1       0.949  83.483 112.772  0.00  0.00     0.091 C 
ENDROOT
BRANCH   1   7
ATOM      7  O   LIG d   1      -0.104  84.804 114.548  0.00  0.00    -0.368 OA
BRANCH   7   8
ATOM      8  C   LIG d   1       0.683  84.079 115.525  0.00  0.00     0.119 C 
BRANCH   8   9
ATOM      9  C   LIG d   1      -0.240  83.757 116.716  0.00  0.00     0.028 C 
ATOM     10  C   LIG d   1       0.402  84.110 118.068  0.00  0.00     0.006 C 
ENDBRANCH   8   9
BRANCH   8  11
ATOM     11  C   LIG d   1       1.799  84.956 116.102  0.00  0.00     0.028 C 
ATOM     12  C   LIG d   1       1.840  86.358 115.474  0.00  0.00     0.006 C 
ENDBRANCH   8  11
ENDBRANCH   7   8
ENDBRANCH   1   7
BRANCH   6  13
ATOM     13  N   LIG d   1       1.791  84.574 112.216  0.00  0.00    -0.311 N 
ATOM     14  C   LIG d   1       3.110  84.643 112.388  0.00  0.00     0.210 C 
ATOM     15  C   LIG d   1       3.783  85.860 111.748  0.00  0.00     0.109 C 
ATOM     16  O   LIG d   1       3.790  83.794 112.983  0.00  0.00    -0.276 OA
ATOM     17  H   LIG d   1       1.324  85.289 111.692  0.00  0.00     0.149 HD
ENDBRANCH   6  13
BRANCH   5  18
ATOM     18  N   LIG d   1       1.872  81.663 111.294  0.00  0.00     0.381 N 
ATOM     19  H   LIG d   1       2.374  81.325 112.090  0.00  0.00    -0.090 HD
ATOM     20  H   LIG d   1       2.463  82.305 110.796  0.00  0.00    -0.090 HD
ATOM     21  H   LIG d   1       1.624  80.901 110.701  0.00  0.00    -0.090 HD
ENDBRANCH   5  18
BRANCH   3  22
ATOM     22  C   LIG d   1      -2.592  81.166 112.957  0.00  0.00     0.382 C 
ATOM     23  O   LIG d   1      -2.656  80.126 113.657  0.00  0.00    -0.241 OA
ATOM     24  O   LIG d   1      -3.565  81.492 112.252  0.00  0.00    -0.241 OA
ENDBRANCH   3  22
TORSDOF 7
ENDMDL
MODEL 7
REMARK VINA RESULT:      -5.0      2.214      5.421
REMARK  7 active torsions:
REMARK  status: ('A' for Active; 'I' for Inactive)
REMARK    1  A    between atoms: C_2  and  C_3 
REMARK    2  A    between atoms: C_3  and  O_6 
REMARK    3  A    between atoms: C_3  and  C_4 
REMARK    4  A    between atoms: C_7  and  O_6 
REMARK    5  A    between atoms: C_9  and  C_10 
REMARK    6  A    between atoms: N_15  and  C_14 
REMARK    7  A    between atoms: N_20  and  C_19 
REMARK       I    between atoms: C_22  and  N_20 
ROOT
ATOM      1  C   LIG d   1      -4.867  76.668 115.454  0.00  0.00     0.161 C 
ATOM      2  C   LIG d   1      -3.729  75.938 115.074  0.00  0.00     0.016 C 
ATOM      3  C   LIG d   1      -2.498  76.001 115.767  0.00  0.00     0.038 C 
ATOM      4  C   LIG d   1      -2.365  76.686 116.983  0.00  0.00     0.028 C 
ATOM      5  C   LIG d   1      -3.345  77.845 117.135  0.00  0.00    -0.047 C 
ATOM      6  C   LIG d   1      -4.775  77.335 116.842  0.00  0.00     0.091 C 
ENDROOT
BRANCH   1   7
ATOM      7  O   LIG d   1      -6.035  75.826 115.380  0.00  0.00    -0.368 OA
BRANCH   7   8
ATOM      8  C   LIG d   1      -6.047  74.674 116.258  0.00  0.00     0.119 C 
BRANCH   8   9
ATOM      9  C   LIG d   1      -6.333  73.433 115.390  0.00  0.00     0.028 C 
ATOM     10  C   LIG d   1      -6.826  72.237 116.222  0.00  0.00     0.006 C 
ENDBRANCH   8   9
BRANCH   8  11
ATOM     11  C   LIG d   1      -7.205  74.747 117.257  0.00  0.00     0.028 C 
ATOM     12  C   LIG d   1      -8.304  75.731 116.825  0.00  0.00     0.006 C 
ENDBRANCH   8  11
ENDBRANCH   7   8
ENDBRANCH   1   7
BRANCH   6  13
ATOM     13  N   LIG d   1      -5.785  78.424 116.887  0.00  0.00    -0.311 N 
ATOM     14  C   LIG d   1      -6.512  78.706 117.967  0.00  0.00     0.210 C 
ATOM     15  C   LIG d   1      -7.511  79.855 117.792  0.00  0.00     0.109 C 
ATOM     16  O   LIG d   1      -6.403  78.135 119.062  0.00  0.00    -0.276 OA
ATOM     17  H   LIG d   1      -5.917  78.959 116.051  0.00  0.00     0.149 HD
ENDBRANCH   6  13
BRANCH   5  18
ATOM     18  N   LIG d   1      -3.191  78.383 118.500  0.00  0.00     0.381 N 
ATOM     19  H   LIG d   1      -2.333  78.893 118.569  0.00  0.00    -0.090 HD
ATOM     20  H   LIG d   1      -3.155  77.616 119.149  0.00  0.00    -0.090 HD
ATOM     21  H   LIG d   1      -3.959  78.978 118.721  0.00  0.00    -0.090 HD
ENDBRANCH   5  18
BRANCH   3  22
ATOM     22  C   LIG d   1      -1.371  75.405 115.221  0.00  0.00     0.382 C 
ATOM     23  O   LIG d   1      -1.063  75.625 114.025  0.00  0.00    -0.241 OA
ATOM     24  O   LIG d   1      -0.684  74.615 115.896  0.00  0.00    -0.241 OA
ENDBRANCH   3  22
TORSDOF 7
ENDMDL
MODEL 8
REMARK VINA RESULT:      -5.0      2.276      5.082
REMARK  7 active torsions:
REMARK  status: ('A' for Active; 'I' for Inactive)
REMARK    1  A    between atoms: C_2  and  C_3 
REMARK    2  A    between atoms: C_3  and  O_6 
REMARK    3  A    between atoms: C_3  and  C_4 
REMARK    4  A    between atoms: C_7  and  O_6 
REMARK    5  A    between atoms: C_9  and  C_10 
REMARK    6  A    between atoms: N_15  and  C_14 
REMARK    7  A    between atoms: N_20  and  C_19 
REMARK       I    between atoms: C_22  and  N_20 
ROOT
ATOM      1  C   LIG d   1      -4.935  76.174 115.696  0.00  0.00     0.161 C 
ATOM      2  C   LIG d   1      -4.413  76.281 114.396  0.00  0.00     0.016 C 
ATOM      3  C   LIG d   1      -3.356  77.155 114.052  0.00  0.00     0.038 C 
ATOM      4  C   LIG d   1      -2.644  77.875 115.022  0.00  0.00     0.028 C 
ATOM      5  C   LIG d   1      -3.462  78.180 116.272  0.00  0.00    -0.047 C 
ATOM      6  C   LIG d   1      -4.096  76.869 116.789  0.00  0.00     0.091 C 
ENDROOT
BRANCH   1   7
ATOM      7  O   LIG d   1      -5.138  74.786 116.028  0.00  0.00    -0.368 OA
BRANCH   7   8
ATOM      8  C   LIG d   1      -6.447  74.243 115.726  0.00  0.00     0.119 C 
BRANCH   8   9
ATOM      9  C   LIG d   1      -7.327  74.435 116.976  0.00  0.00     0.028 C 
ATOM     10  C   LIG d   1      -8.403  75.515 116.776  0.00  0.00     0.006 C 
ENDBRANCH   8   9
BRANCH   8  11
ATOM     11  C   LIG d   1      -6.384  72.729 115.503  0.00  0.00     0.028 C 
ATOM     12  C   LIG d   1      -7.563  71.983 116.146  0.00  0.00     0.006 C 
ENDBRANCH   8  11
ENDBRANCH   7   8
ENDBRANCH   1   7
BRANCH   6  13
ATOM     13  N   LIG d   1      -4.982  77.092 117.962  0.00  0.00    -0.311 N 
ATOM     14  C   LIG d   1      -6.012  77.937 117.953  0.00  0.00     0.210 C 
ATOM     15  C   LIG d   1      -6.782  78.030 119.273  0.00  0.00     0.109 C 
ATOM     16  O   LIG d   1      -6.380  78.593 116.967  0.00  0.00    -0.276 OA
ATOM     17  H   LIG d   1      -4.774  76.577 118.795  0.00  0.00     0.149 HD
ENDBRANCH   6  13
BRANCH   5  18
ATOM     18  N   LIG d   1      -2.558  78.811 117.253  0.00  0.00     0.381 N 
ATOM     19  H   LIG d   1      -1.979  79.486 116.794  0.00  0.00    -0.090 HD
ATOM     20  H   LIG d   1      -1.965  78.104 117.650  0.00  0.00    -0.090 HD
ATOM     21  H   LIG d   1      -3.089  79.252 117.971  0.00  0.00    -0.090 HD
ENDBRANCH   5  18
BRANCH   3  22
ATOM     22  C   LIG d   1      -3.029  77.345 112.718  0.00  0.00     0.382 C 
ATOM     23  O   LIG d   1      -1.831  77.279 112.351  0.00  0.00    -0.241 OA
ATOM     24  O   LIG d   1      -3.912  77.626 111.885  0.00  0.00    -0.241 OA
ENDBRANCH   3  22
TORSDOF 7
ENDMDL
MODEL 9
REMARK VINA RESULT:      -4.9      2.479      3.406
REMARK  7 active torsions:
REMARK  status: ('A' for Active; 'I' for Inactive)
REMARK    1  A    between atoms: C_2  and  C_3 
REMARK    2  A    between atoms: C_3  and  O_6 
REMARK    3  A    between atoms: C_3  and  C_4 
REMARK    4  A    between atoms: C_7  and  O_6 
REMARK    5  A    between atoms: C_9  and  C_10 
REMARK    6  A    between atoms: N_15  and  C_14 
REMARK    7  A    between atoms: N_20  and  C_19 
REMARK       I    between atoms: C_22  and  N_20 
ROOT
ATOM      1  C   LIG d   1      -4.247  76.598 116.928  0.00  0.00     0.161 C 
ATOM      2  C   LIG d   1      -5.194  77.512 117.419  0.00  0.00     0.016 C 
ATOM      3  C   LIG d   1      -5.128  78.904 117.182  0.00  0.00     0.038 C 
ATOM      4  C   LIG d   1      -4.186  79.463 116.306  0.00  0.00     0.028 C 
ATOM      5  C   LIG d   1      -2.905  78.644 116.190  0.00  0.00    -0.047 C 
ATOM      6  C   LIG d   1      -3.275  77.176 115.877  0.00  0.00     0.091 C 
ENDROOT
BRANCH   1   7
ATOM      7  O   LIG d   1      -4.916  75.434 116.404  0.00  0.00    -0.368 OA
BRANCH   7   8
ATOM      8  C   LIG d   1      -6.178  75.673 115.732  0.00  0.00     0.119 C 
BRANCH   8   9
ATOM      9  C   LIG d   1      -7.192  74.646 116.273  0.00  0.00     0.028 C 
ATOM     10  C   LIG d   1      -6.509  73.460 116.975  0.00  0.00     0.006 C 
ENDBRANCH   8   9
BRANCH   8  11
ATOM     11  C   LIG d   1      -6.073  75.386 114.232  0.00  0.00     0.028 C 
ATOM     12  C   LIG d   1      -4.899  74.457 113.883  0.00  0.00     0.006 C 
ENDBRANCH   8  11
ENDBRANCH   7   8
ENDBRANCH   1   7
BRANCH   6  13
ATOM     13  N   LIG d   1      -2.084  76.289 115.831  0.00  0.00    -0.311 N 
ATOM     14  C   LIG d   1      -1.427  76.002 114.708  0.00  0.00     0.210 C 
ATOM     15  C   LIG d   1      -0.238  75.051 114.879  0.00  0.00     0.109 C 
ATOM     16  O   LIG d   1      -1.696  76.470 113.592  0.00  0.00    -0.276 OA
ATOM     17  H   LIG d   1      -1.778  75.890 116.697  0.00  0.00     0.149 HD
ENDBRANCH   6  13
BRANCH   5  18
ATOM     18  N   LIG d   1      -2.072  79.265 115.143  0.00  0.00     0.381 N 
ATOM     19  H   LIG d   1      -2.422  79.017 114.240  0.00  0.00    -0.090 HD
ATOM     20  H   LIG d   1      -1.134  78.915 115.225  0.00  0.00    -0.090 HD
ATOM     21  H   LIG d   1      -2.075  80.256 115.248  0.00  0.00    -0.090 HD
ENDBRANCH   5  18
BRANCH   3  22
ATOM     22  C   LIG d   1      -5.986  79.757 117.859  0.00  0.00     0.382 C 
ATOM     23  O   LIG d   1      -5.675  80.190 118.995  0.00  0.00    -0.241 OA
ATOM     24  O   LIG d   1      -7.088  80.065 117.366  0.00  0.00    -0.241 OA
ENDBRANCH   3  22
TORSDOF 7
ENDMDL
