MODEL 1
REMARK VINA RESULT:      -5.5      0.000      0.000
REMARK  7 active torsions:
REMARK  status: ('A' for Active; 'I' for Inactive)
REMARK    1  A    between atoms: C_2  and  C_3 
REMARK    2  A    between atoms: C_3  and  O_6 
REMARK    3  A    between atoms: C_3  and  C_4 
REMARK    4  A    between atoms: C_7  and  O_6 
REMARK    5  A    between atoms: C_9  and  C_10 
REMARK    6  A    between atoms: N_15  and  C_14 
REMARK    7  A    between atoms: N_20  and  C_19 
REMARK       I    between atoms: C_22  and  N_20 
ROOT
ATOM      1  C   LIG d   1      -7.211  74.973 117.996  0.00  0.00     0.161 C 
ATOM      2  C   LIG d   1      -7.301  73.632 117.587  0.00  0.00     0.016 C 
ATOM      3  C   LIG d   1      -8.515  73.014 117.208  0.00  0.00     0.038 C 
ATOM      4  C   LIG d   1      -9.706  73.743 117.067  0.00  0.00     0.028 C 
ATOM      5  C   LIG d   1      -9.766  74.982 117.954  0.00  0.00    -0.047 C 
ATOM      6  C   LIG d   1      -8.480  75.813 117.742  0.00  0.00     0.091 C 
ENDROOT
BRANCH   1   7
ATOM      7  O   LIG d   1      -6.066  75.595 117.380  0.00  0.00    -0.368 OA
BRANCH   7   8
ATOM      8  C   LIG d   1      -5.228  74.732 116.573  0.00  0.00     0.119 C 
BRANCH   8   9
ATOM      9  C   LIG d   1      -3.806  74.783 117.165  0.00  0.00     0.028 C 
ATOM     10  C   LIG d   1      -3.609  75.974 118.118  0.00  0.00     0.006 C 
ENDBRANCH   8   9
BRANCH   8  11
ATOM     11  C   LIG d   1      -5.092  75.264 115.144  0.00  0.00     0.028 C 
ATOM     12  C   LIG d   1      -6.448  75.599 114.501  0.00  0.00     0.006 C 
ENDBRANCH   8  11
ENDBRANCH   7   8
ENDBRANCH   1   7
BRANCH   6  13
ATOM     13  N   LIG d   1      -8.419  77.000 118.634  0.00  0.00    -0.311 N 
ATOM     14  C   LIG d   1      -8.056  78.212 118.218  0.00  0.00     0.210 C 
ATOM     15  C   LIG d   1      -8.042  79.292 119.305  0.00  0.00     0.109 C 
ATOM     16  O   LIG d   1      -7.776  78.503 117.045  0.00  0.00    -0.276 OA
ATOM     17  H   LIG d   1      -8.660  76.861 119.596  0.00  0.00     0.149 HD
ENDBRANCH   6  13
BRANCH   5  18
ATOM     18  N   LIG d   1     -10.995  75.720 117.606  0.00  0.00     0.381 N 
ATOM     19  H   LIG d   1     -10.783  76.438 116.943  0.00  0.00    -0.090 HD
ATOM     20  H   LIG d   1     -11.360  76.153 118.436  0.00  0.00    -0.090 HD
ATOM     21  H   LIG d   1     -11.671  75.095 117.224  0.00  0.00    -0.090 HD
ENDBRANCH   5  18
BRANCH   3  22
ATOM     22  C   LIG d   1      -8.554  71.643 117.004  0.00  0.00     0.382 C 
ATOM     23  O   LIG d   1      -7.801  71.114 116.152  0.00  0.00    -0.241 OA
ATOM     24  O   LIG d   1      -9.365  70.934 117.630  0.00  0.00    -0.241 OA
ENDBRANCH   3  22
TORSDOF 7
ENDMDL
MODEL 2
REMARK VINA RESULT:      -5.2      1.803      4.874
REMARK  7 active torsions:
REMARK  status: ('A' for Active; 'I' for Inactive)
REMARK    1  A    between atoms: C_2  and  C_3 
REMARK    2  A    between atoms: C_3  and  O_6 
REMARK    3  A    between atoms: C_3  and  C_4 
REMARK    4  A    between atoms: C_7  and  O_6 
REMARK    5  A    between atoms: C_9  and  C_10 
REMARK    6  A    between atoms: N_15  and  C_14 
REMARK    7  A    between atoms: N_20  and  C_19 
REMARK       I    between atoms: C_22  and  N_20 
ROOT
ATOM      1  C   LIG d   1      -7.556  76.624 117.273  0.00  0.00     0.161 C 
ATOM      2  C   LIG d   1      -7.544  78.026 117.368  0.00  0.00     0.016 C 
ATOM      3  C   LIG d   1      -8.636  78.783 117.851  0.00  0.00     0.038 C 
ATOM      4  C   LIG d   1      -9.767  78.175 118.417  0.00  0.00     0.028 C 
ATOM      5  C   LIG d   1     -10.034  76.774 117.879  0.00  0.00    -0.047 C 
ATOM      6  C   LIG d   1      -8.738  75.938 117.990  0.00  0.00     0.091 C 
ENDROOT
BRANCH   1   7
ATOM      7  O   LIG d   1      -6.305  76.091 117.749  0.00  0.00    -0.368 OA
BRANCH   7   8
ATOM      8  C   LIG d   1      -5.480  75.423 116.762  0.00  0.00     0.119 C 
BRANCH   8   9
ATOM      9  C   LIG d   1      -4.032  75.910 116.963  0.00  0.00     0.028 C 
ATOM     10  C   LIG d   1      -3.081  74.771 117.369  0.00  0.00     0.006 C 
ENDBRANCH   8   9
BRANCH   8  11
ATOM     11  C   LIG d   1      -5.858  75.849 115.340  0.00  0.00     0.028 C 
ATOM     12  C   LIG d   1      -5.620  74.740 114.303  0.00  0.00     0.006 C 
ENDBRANCH   8  11
ENDBRANCH   7   8
ENDBRANCH   1   7
BRANCH   6  13
ATOM     13  N   LIG d   1      -8.889  74.579 117.408  0.00  0.00    -0.311 N 
ATOM     14  C   LIG d   1      -9.304  73.524 118.107  0.00  0.00     0.210 C 
ATOM     15  C   LIG d   1      -9.370  72.211 117.319  0.00  0.00     0.109 C 
ATOM     16  O   LIG d   1      -9.654  73.557 119.296  0.00  0.00    -0.276 OA
ATOM     17  H   LIG d   1      -8.657  74.468 116.440  0.00  0.00     0.149 HD
ENDBRANCH   6  13
BRANCH   5  18
ATOM     18  N   LIG d   1     -11.155  76.206 118.652  0.00  0.00     0.381 N 
ATOM     19  H   LIG d   1     -11.238  75.228 118.461  0.00  0.00    -0.090 HD
ATOM     20  H   LIG d   1     -12.007  76.656 118.367  0.00  0.00    -0.090 HD
ATOM     21  H   LIG d   1     -11.006  76.351 119.626  0.00  0.00    -0.090 HD
ENDBRANCH   5  18
BRANCH   3  22
ATOM     22  C   LIG d   1      -8.620  80.164 117.734  0.00  0.00     0.382 C 
ATOM     23  O   LIG d   1      -7.769  80.721 116.999  0.00  0.00    -0.241 OA
ATOM     24  O   LIG d   1      -9.417  80.863 118.388  0.00  0.00    -0.241 OA
ENDBRANCH   3  22
TORSDOF 7
ENDMDL
MODEL 3
REMARK VINA RESULT:      -5.1     16.064     18.950
REMARK  7 active torsions:
REMARK  status: ('A' for Active; 'I' for Inactive)
REMARK    1  A    between atoms: C_2  and  C_3 
REMARK    2  A    between atoms: C_3  and  O_6 
REMARK    3  A    between atoms: C_3  and  C_4 
REMARK    4  A    between atoms: C_7  and  O_6 
REMARK    5  A    between atoms: C_9  and  C_10 
REMARK    6  A    between atoms: N_15  and  C_14 
REMARK    7  A    between atoms: N_20  and  C_19 
REMARK       I    between atoms: C_22  and  N_20 
ROOT
ATOM      1  C   LIG d   1      10.169  78.751 114.467  0.00  0.00     0.161 C 
ATOM      2  C   LIG d   1       8.835  78.951 114.858  0.00  0.00     0.016 C 
ATOM      3  C   LIG d   1       8.036  77.942 115.444  0.00  0.00     0.038 C 
ATOM      4  C   LIG d   1       8.568  76.699 115.818  0.00  0.00     0.028 C 
ATOM      5  C   LIG d   1       9.773  76.280 114.984  0.00  0.00    -0.047 C 
ATOM      6  C   LIG d   1      10.800  77.435 114.969  0.00  0.00     0.091 C 
ENDROOT
BRANCH   1   7
ATOM      7  O   LIG d   1      10.971  79.878 114.871  0.00  0.00    -0.368 OA
BRANCH   7   8
ATOM      8  C   LIG d   1      11.597  80.630 113.803  0.00  0.00     0.119 C 
BRANCH   8   9
ATOM      9  C   LIG d   1      12.858  81.299 114.386  0.00  0.00     0.028 C 
ATOM     10  C   LIG d   1      14.150  80.797 113.720  0.00  0.00     0.006 C 
ENDBRANCH   8   9
BRANCH   8  11
ATOM     11  C   LIG d   1      10.705  81.784 113.337  0.00  0.00     0.028 C 
ATOM     12  C   LIG d   1      10.664  81.925 111.807  0.00  0.00     0.006 C 
ENDBRANCH   8  11
ENDBRANCH   7   8
ENDBRANCH   1   7
BRANCH   6  13
ATOM     13  N   LIG d   1      11.973  77.140 114.105  0.00  0.00    -0.311 N 
ATOM     14  C   LIG d   1      13.234  77.286 114.507  0.00  0.00     0.210 C 
ATOM     15  C   LIG d   1      14.292  76.946 113.453  0.00  0.00     0.109 C 
ATOM     16  O   LIG d   1      13.578  77.634 115.647  0.00  0.00    -0.276 OA
ATOM     17  H   LIG d   1      11.786  76.823 113.174  0.00  0.00     0.149 HD
ENDBRANCH   6  13
BRANCH   5  18
ATOM     18  N   LIG d   1      10.310  75.037 115.569  0.00  0.00     0.381 N 
ATOM     19  H   LIG d   1      10.450  74.356 114.849  0.00  0.00    -0.090 HD
ATOM     20  H   LIG d   1       9.641  74.670 116.223  0.00  0.00    -0.090 HD
ATOM     21  H   LIG d   1      11.172  75.223 116.033  0.00  0.00    -0.090 HD
ENDBRANCH   5  18
BRANCH   3  22
ATOM     22  C   LIG d   1       6.678  78.158 115.623  0.00  0.00     0.382 C 
ATOM     23  O   LIG d   1       5.879  77.948 114.679  0.00  0.00    -0.241 OA
ATOM     24  O   LIG d   1       6.247  78.603 116.704  0.00  0.00    -0.241 OA
ENDBRANCH   3  22
TORSDOF 7
ENDMDL
MODEL 4
REMARK VINA RESULT:      -4.8     13.261     16.298
REMARK  7 active torsions:
REMARK  status: ('A' for Active; 'I' for Inactive)
REMARK    1  A    between atoms: C_2  and  C_3 
REMARK    2  A    between atoms: C_3  and  O_6 
REMARK    3  A    between atoms: C_3  and  C_4 
REMARK    4  A    between atoms: C_7  and  O_6 
REMARK    5  A    between atoms: C_9  and  C_10 
REMARK    6  A    between atoms: N_15  and  C_14 
REMARK    7  A    between atoms: N_20  and  C_19 
REMARK       I    between atoms: C_22  and  N_20 
ROOT
ATOM      1  C   LIG d   1       2.343  86.199 114.152  0.00  0.00     0.161 C 
ATOM      2  C   LIG d   1       2.911  87.317 113.518  0.00  0.00     0.016 C 
ATOM      3  C   LIG d   1       4.087  87.956 113.974  0.00  0.00     0.038 C 
ATOM      4  C   LIG d   1       4.863  87.426 115.014  0.00  0.00     0.028 C 
ATOM      5  C   LIG d   1       4.060  86.590 116.004  0.00  0.00    -0.047 C 
ATOM      6  C   LIG d   1       3.238  85.540 115.223  0.00  0.00     0.091 C 
ENDROOT
BRANCH   1   7
ATOM      7  O   LIG d   1       1.944  85.228 113.166  0.00  0.00    -0.368 OA
BRANCH   7   8
ATOM      8  C   LIG d   1       0.525  84.942 113.090  0.00  0.00     0.119 C 
BRANCH   8   9
ATOM      9  C   LIG d   1       0.069  85.239 111.649  0.00  0.00     0.028 C 
ATOM     10  C   LIG d   1      -0.414  86.688 111.472  0.00  0.00     0.006 C 
ENDBRANCH   8   9
BRANCH   8  11
ATOM     11  C   LIG d   1      -0.283  85.895 113.976  0.00  0.00     0.028 C 
ATOM     12  C   LIG d   1      -1.096  85.162 115.054  0.00  0.00     0.006 C 
ENDBRANCH   8  11
ENDBRANCH   7   8
ENDBRANCH   1   7
BRANCH   6  13
ATOM     13  N   LIG d   1       2.358  84.734 116.110  0.00  0.00    -0.311 N 
ATOM     14  C   LIG d   1       2.366  83.402 116.136  0.00  0.00     0.210 C 
ATOM     15  C   LIG d   1       1.366  82.769 117.109  0.00  0.00     0.109 C 
ATOM     16  O   LIG d   1       3.129  82.686 115.471  0.00  0.00    -0.276 OA
ATOM     17  H   LIG d   1       1.729  85.235 116.706  0.00  0.00     0.149 HD
ENDBRANCH   6  13
BRANCH   5  18
ATOM     18  N   LIG d   1       5.013  85.987 116.955  0.00  0.00     0.381 N 
ATOM     19  H   LIG d   1       4.536  85.336 117.546  0.00  0.00    -0.090 HD
ATOM     20  H   LIG d   1       5.399  86.713 117.533  0.00  0.00    -0.090 HD
ATOM     21  H   LIG d   1       5.742  85.524 116.459  0.00  0.00    -0.090 HD
ENDBRANCH   5  18
BRANCH   3  22
ATOM     22  C   LIG d   1       4.474  89.163 113.411  0.00  0.00     0.382 C 
ATOM     23  O   LIG d   1       3.710  90.156 113.470  0.00  0.00    -0.241 OA
ATOM     24  O   LIG d   1       5.559  89.259 112.807  0.00  0.00    -0.241 OA
ENDBRANCH   3  22
TORSDOF 7
ENDMDL
MODEL 5
REMARK VINA RESULT:      -4.8     12.936     15.731
REMARK  7 active torsions:
REMARK  status: ('A' for Active; 'I' for Inactive)
REMARK    1  A    between atoms: C_2  and  C_3 
REMARK    2  A    between atoms: C_3  and  O_6 
REMARK    3  A    between atoms: C_3  and  C_4 
REMARK    4  A    between atoms: C_7  and  O_6 
REMARK    5  A    between atoms: C_9  and  C_10 
REMARK    6  A    between atoms: N_15  and  C_14 
REMARK    7  A    between atoms: N_20  and  C_19 
REMARK       I    between atoms: C_22  and  N_20 
ROOT
ATOM      1  C   LIG d   1       1.469  86.393 112.880  0.00  0.00     0.161 C 
ATOM      2  C   LIG d   1       2.481  87.329 112.610  0.00  0.00     0.016 C 
ATOM      3  C   LIG d   1       3.292  87.909 113.612  0.00  0.00     0.038 C 
ATOM      4  C   LIG d   1       3.247  87.476 114.946  0.00  0.00     0.028 C 
ATOM      5  C   LIG d   1       1.895  86.898 115.349  0.00  0.00    -0.047 C 
ATOM      6  C   LIG d   1       1.479  85.826 114.315  0.00  0.00     0.091 C 
ENDROOT
BRANCH   1   7
ATOM      7  O   LIG d   1       1.525  85.321 111.918  0.00  0.00    -0.368 OA
BRANCH   7   8
ATOM      8  C   LIG d   1       2.312  84.165 112.296  0.00  0.00     0.119 C 
BRANCH   8   9
ATOM      9  C   LIG d   1       3.578  84.160 111.418  0.00  0.00     0.028 C 
ATOM     10  C   LIG d   1       4.838  84.561 112.203  0.00  0.00     0.006 C 
ENDBRANCH   8   9
BRANCH   8  11
ATOM     11  C   LIG d   1       1.582  82.861 111.962  0.00  0.00     0.028 C 
ATOM     12  C   LIG d   1       0.078  83.066 111.717  0.00  0.00     0.006 C 
ENDBRANCH   8  11
ENDBRANCH   7   8
ENDBRANCH   1   7
BRANCH   6  13
ATOM     13  N   LIG d   1       0.129  85.268 114.588  0.00  0.00    -0.311 N 
ATOM     14  C   LIG d   1      -0.076  84.154 115.289  0.00  0.00     0.210 C 
ATOM     15  C   LIG d   1      -1.545  83.744 115.435  0.00  0.00     0.109 C 
ATOM     16  O   LIG d   1       0.816  83.484 115.830  0.00  0.00    -0.276 OA
ATOM     17  H   LIG d   1      -0.654  85.766 114.213  0.00  0.00     0.149 HD
ENDBRANCH   6  13
BRANCH   5  18
ATOM     18  N   LIG d   1       2.029  86.361 116.716  0.00  0.00     0.381 N 
ATOM     19  H   LIG d   1       2.664  85.588 116.715  0.00  0.00    -0.090 HD
ATOM     20  H   LIG d   1       1.132  86.032 117.026  0.00  0.00    -0.090 HD
ATOM     21  H   LIG d   1       2.361  87.072 117.330  0.00  0.00    -0.090 HD
ENDBRANCH   5  18
BRANCH   3  22
ATOM     22  C   LIG d   1       4.134  88.963 113.290  0.00  0.00     0.382 C 
ATOM     23  O   LIG d   1       3.759  90.146 113.480  0.00  0.00    -0.241 OA
ATOM     24  O   LIG d   1       5.245  88.749 112.771  0.00  0.00    -0.241 OA
ENDBRANCH   3  22
TORSDOF 7
ENDMDL
MODEL 6
REMARK VINA RESULT:      -4.8      7.912     10.914
REMARK  7 active torsions:
REMARK  status: ('A' for Active; 'I' for Inactive)
REMARK    1  A    between atoms: C_2  and  C_3 
REMARK    2  A    between atoms: C_3  and  O_6 
REMARK    3  A    between atoms: C_3  and  C_4 
REMARK    4  A    between atoms: C_7  and  O_6 
REMARK    5  A    between atoms: C_9  and  C_10 
REMARK    6  A    between atoms: N_15  and  C_14 
REMARK    7  A    between atoms: N_20  and  C_19 
REMARK       I    between atoms: C_22  and  N_20 
ROOT
ATOM      1  C   LIG d   1      -0.141  81.072 114.940  0.00  0.00     0.161 C 
ATOM      2  C   LIG d   1       0.054  82.381 114.469  0.00  0.00     0.016 C 
ATOM      3  C   LIG d   1      -0.289  82.796 113.162  0.00  0.00     0.038 C 
ATOM      4  C   LIG d   1      -0.995  81.963 112.281  0.00  0.00     0.028 C 
ATOM      5  C   LIG d   1      -0.763  80.478 112.535  0.00  0.00    -0.047 C 
ATOM      6  C   LIG d   1      -1.011  80.180 114.031  0.00  0.00     0.091 C 
ENDROOT
BRANCH   1   7
ATOM      7  O   LIG d   1      -0.685  81.109 116.275  0.00  0.00    -0.368 OA
BRANCH   7   8
ATOM      8  C   LIG d   1      -1.272  82.368 116.688  0.00  0.00     0.119 C 
BRANCH   8   9
ATOM      9  C   LIG d   1      -0.758  82.674 118.108  0.00  0.00     0.028 C 
ATOM     10  C   LIG d   1      -1.700  82.143 119.201  0.00  0.00     0.006 C 
ENDBRANCH   8   9
BRANCH   8  11
ATOM     11  C   LIG d   1      -2.794  82.254 116.824  0.00  0.00     0.028 C 
ATOM     12  C   LIG d   1      -3.542  82.746 115.575  0.00  0.00     0.006 C 
ENDBRANCH   8  11
ENDBRANCH   7   8
ENDBRANCH   1   7
BRANCH   6  13
ATOM     13  N   LIG d   1      -0.725  78.764 114.382  0.00  0.00    -0.311 N 
ATOM     14  C   LIG d   1      -1.648  77.804 114.369  0.00  0.00     0.210 C 
ATOM     15  C   LIG d   1      -1.145  76.418 114.784  0.00  0.00     0.109 C 
ATOM     16  O   LIG d   1      -2.828  77.963 114.022  0.00  0.00    -0.276 OA
ATOM     17  H   LIG d   1       0.215  78.541 114.646  0.00  0.00     0.149 HD
ENDBRANCH   6  13
BRANCH   5  18
ATOM     18  N   LIG d   1      -1.663  79.727 111.639  0.00  0.00     0.381 N 
ATOM     19  H   LIG d   1      -2.518  79.517 112.115  0.00  0.00    -0.090 HD
ATOM     20  H   LIG d   1      -1.222  78.860 111.387  0.00  0.00    -0.090 HD
ATOM     21  H   LIG d   1      -1.853  80.261 110.820  0.00  0.00    -0.090 HD
ENDBRANCH   5  18
BRANCH   3  22
ATOM     22  C   LIG d   1       0.110  84.045 112.710  0.00  0.00     0.382 C 
ATOM     23  O   LIG d   1       1.029  84.661 113.302  0.00  0.00    -0.241 OA
ATOM     24  O   LIG d   1      -0.467  84.582 111.746  0.00  0.00    -0.241 OA
ENDBRANCH   3  22
TORSDOF 7
ENDMDL
MODEL 7
REMARK VINA RESULT:      -4.8      5.498      8.603
REMARK  7 active torsions:
REMARK  status: ('A' for Active; 'I' for Inactive)
REMARK    1  A    between atoms: C_2  and  C_3 
REMARK    2  A    between atoms: C_3  and  O_6 
REMARK    3  A    between atoms: C_3  and  C_4 
REMARK    4  A    between atoms: C_7  and  O_6 
REMARK    5  A    between atoms: C_9  and  C_10 
REMARK    6  A    between atoms: N_15  and  C_14 
REMARK    7  A    between atoms: N_20  and  C_19 
REMARK       I    between atoms: C_22  and  N_20 
ROOT
ATOM      1  C   LIG d   1      -2.591  78.422 115.033  0.00  0.00     0.161 C 
ATOM      2  C   LIG d   1      -2.865  79.290 113.963  0.00  0.00     0.016 C 
ATOM      3  C   LIG d   1      -1.978  80.306 113.538  0.00  0.00     0.038 C 
ATOM      4  C   LIG d   1      -0.682  80.425 114.062  0.00  0.00     0.028 C 
ATOM      5  C   LIG d   1      -0.554  79.896 115.487  0.00  0.00    -0.047 C 
ATOM      6  C   LIG d   1      -1.136  78.465 115.545  0.00  0.00     0.091 C 
ENDROOT
BRANCH   1   7
ATOM      7  O   LIG d   1      -2.957  77.075 114.676  0.00  0.00    -0.368 OA
BRANCH   7   8
ATOM      8  C   LIG d   1      -4.123  76.533 115.343  0.00  0.00     0.119 C 
BRANCH   8   9
ATOM      9  C   LIG d   1      -3.631  75.472 116.347  0.00  0.00     0.028 C 
ATOM     10  C   LIG d   1      -3.964  75.842 117.802  0.00  0.00     0.006 C 
ENDBRANCH   8   9
BRANCH   8  11
ATOM     11  C   LIG d   1      -5.025  75.776 114.363  0.00  0.00     0.028 C 
ATOM     12  C   LIG d   1      -6.471  75.642 114.866  0.00  0.00     0.006 C 
ENDBRANCH   8  11
ENDBRANCH   7   8
ENDBRANCH   1   7
BRANCH   6  13
ATOM     13  N   LIG d   1      -1.127  77.905 116.921  0.00  0.00    -0.311 N 
ATOM     14  C   LIG d   1      -0.149  77.133 117.392  0.00  0.00     0.210 C 
ATOM     15  C   LIG d   1      -0.345  76.645 118.831  0.00  0.00     0.109 C 
ATOM     16  O   LIG d   1       0.878  76.832 116.765  0.00  0.00    -0.276 OA
ATOM     17  H   LIG d   1      -1.907  78.125 117.509  0.00  0.00     0.149 HD
ENDBRANCH   6  13
BRANCH   5  18
ATOM     18  N   LIG d   1       0.873  79.955 115.857  0.00  0.00     0.381 N 
ATOM     19  H   LIG d   1       1.175  79.060 116.187  0.00  0.00    -0.090 HD
ATOM     20  H   LIG d   1       0.989  80.621 116.601  0.00  0.00    -0.090 HD
ATOM     21  H   LIG d   1       1.419  80.228 115.069  0.00  0.00    -0.090 HD
ENDBRANCH   5  18
BRANCH   3  22
ATOM     22  C   LIG d   1      -2.400  81.241 112.606  0.00  0.00     0.382 C 
ATOM     23  O   LIG d   1      -1.599  81.669 111.740  0.00  0.00    -0.241 OA
ATOM     24  O   LIG d   1      -3.559  81.695 112.646  0.00  0.00    -0.241 OA
ENDBRANCH   3  22
TORSDOF 7
ENDMDL
MODEL 8
REMARK VINA RESULT:      -4.8     15.528     18.591
REMARK  7 active torsions:
REMARK  status: ('A' for Active; 'I' for Inactive)
REMARK    1  A    between atoms: C_2  and  C_3 
REMARK    2  A    between atoms: C_3  and  O_6 
REMARK    3  A    between atoms: C_3  and  C_4 
REMARK    4  A    between atoms: C_7  and  O_6 
REMARK    5  A    between atoms: C_9  and  C_10 
REMARK    6  A    between atoms: N_15  and  C_14 
REMARK    7  A    between atoms: N_20  and  C_19 
REMARK       I    between atoms: C_22  and  N_20 
ROOT
ATOM      1  C   LIG d   1       3.413  88.237 115.398  0.00  0.00     0.161 C 
ATOM      2  C   LIG d   1       4.549  88.797 116.005  0.00  0.00     0.016 C 
ATOM      3  C   LIG d   1       5.829  88.804 115.405  0.00  0.00     0.038 C 
ATOM      4  C   LIG d   1       6.030  88.382 114.083  0.00  0.00     0.028 C 
ATOM      5  C   LIG d   1       5.013  87.345 113.617  0.00  0.00    -0.047 C 
ATOM      6  C   LIG d   1       3.590  87.872 113.909  0.00  0.00     0.091 C 
ENDROOT
BRANCH   1   7
ATOM      7  O   LIG d   1       2.284  89.117 115.567  0.00  0.00    -0.368 OA
BRANCH   7   8
ATOM      8  C   LIG d   1       2.159  89.751 116.864  0.00  0.00     0.119 C 
BRANCH   8   9
ATOM      9  C   LIG d   1       1.110  88.958 117.667  0.00  0.00     0.028 C 
ATOM     10  C   LIG d   1      -0.312  89.516 117.486  0.00  0.00     0.006 C 
ENDBRANCH   8   9
BRANCH   8  11
ATOM     11  C   LIG d   1       1.589  91.167 116.740  0.00  0.00     0.028 C 
ATOM     12  C   LIG d   1       2.416  92.211 117.506  0.00  0.00     0.006 C 
ENDBRANCH   8  11
ENDBRANCH   7   8
ENDBRANCH   1   7
BRANCH   6  13
ATOM     13  N   LIG d   1       2.537  86.882 113.561  0.00  0.00    -0.311 N 
ATOM     14  C   LIG d   1       1.936  86.839 112.373  0.00  0.00     0.210 C 
ATOM     15  C   LIG d   1       0.864  85.754 112.230  0.00  0.00     0.109 C 
ATOM     16  O   LIG d   1       2.210  87.576 111.414  0.00  0.00    -0.276 OA
ATOM     17  H   LIG d   1       2.275  86.226 114.270  0.00  0.00     0.149 HD
ENDBRANCH   6  13
BRANCH   5  18
ATOM     18  N   LIG d   1       5.255  87.097 112.183  0.00  0.00     0.381 N 
ATOM     19  H   LIG d   1       6.238  87.014 112.014  0.00  0.00    -0.090 HD
ATOM     20  H   LIG d   1       4.910  87.880 111.655  0.00  0.00    -0.090 HD
ATOM     21  H   LIG d   1       4.790  86.264 111.898  0.00  0.00    -0.090 HD
ENDBRANCH   5  18
BRANCH   3  22
ATOM     22  C   LIG d   1       6.933  89.200 116.145  0.00  0.00     0.382 C 
ATOM     23  O   LIG d   1       7.650  88.340 116.710  0.00  0.00    -0.241 OA
ATOM     24  O   LIG d   1       7.195  90.409 116.292  0.00  0.00    -0.241 OA
ENDBRANCH   3  22
TORSDOF 7
ENDMDL
MODEL 9
REMARK VINA RESULT:      -4.6     18.399     20.914
REMARK  7 active torsions:
REMARK  status: ('A' for Active; 'I' for Inactive)
REMARK    1  A    between atoms: C_2  and  C_3 
REMARK    2  A    between atoms: C_3  and  O_6 
REMARK    3  A    between atoms: C_3  and  C_4 
REMARK    4  A    between atoms: C_7  and  O_6 
REMARK    5  A    between atoms: C_9  and  C_10 
REMARK    6  A    between atoms: N_15  and  C_14 
REMARK    7  A    between atoms: N_20  and  C_19 
REMARK       I    between atoms: C_22  and  N_20 
ROOT
ATOM      1  C   LIG d   1     -25.265  85.747 115.152  0.00  0.00     0.161 C 
ATOM      2  C   LIG d   1     -24.254  86.592 114.666  0.00  0.00     0.016 C 
ATOM      3  C   LIG d   1     -22.907  86.188 114.517  0.00  0.00     0.038 C 
ATOM      4  C   LIG d   1     -22.508  84.856 114.702  0.00  0.00     0.028 C 
ATOM      5  C   LIG d   1     -23.394  84.088 115.677  0.00  0.00    -0.047 C 
ATOM      6  C   LIG d   1     -24.871  84.259 115.254  0.00  0.00     0.091 C 
ENDROOT
BRANCH   1   7
ATOM      7  O   LIG d   1     -26.454  85.897 114.350  0.00  0.00    -0.368 OA
BRANCH   7   8
ATOM      8  C   LIG d   1     -26.244  86.207 112.951  0.00  0.00     0.119 C 
BRANCH   8   9
ATOM      9  C   LIG d   1     -27.316  87.234 112.538  0.00  0.00     0.028 C 
ATOM     10  C   LIG d   1     -26.711  88.472 111.854  0.00  0.00     0.006 C 
ENDBRANCH   8   9
BRANCH   8  11
ATOM     11  C   LIG d   1     -26.493  84.983 112.065  0.00  0.00     0.028 C 
ATOM     12  C   LIG d   1     -25.195  84.373 111.512  0.00  0.00     0.006 C 
ENDBRANCH   8  11
ENDBRANCH   7   8
ENDBRANCH   1   7
BRANCH   6  13
ATOM     13  N   LIG d   1     -25.812  83.609 116.203  0.00  0.00    -0.311 N 
ATOM     14  C   LIG d   1     -26.279  82.372 116.041  0.00  0.00     0.210 C 
ATOM     15  C   LIG d   1     -27.253  81.901 117.125  0.00  0.00     0.109 C 
ATOM     16  O   LIG d   1     -25.954  81.608 115.119  0.00  0.00    -0.276 OA
ATOM     17  H   LIG d   1     -26.104  84.146 116.996  0.00  0.00     0.149 HD
ENDBRANCH   6  13
BRANCH   5  18
ATOM     18  N   LIG d   1     -22.950  82.682 115.670  0.00  0.00     0.381 N 
ATOM     19  H   LIG d   1     -23.527  82.141 116.284  0.00  0.00    -0.090 HD
ATOM     20  H   LIG d   1     -22.004  82.638 116.007  0.00  0.00    -0.090 HD
ATOM     21  H   LIG d   1     -22.999  82.313 114.746  0.00  0.00    -0.090 HD
ENDBRANCH   5  18
BRANCH   3  22
ATOM     22  C   LIG d   1     -21.936  87.131 114.217  0.00  0.00     0.382 C 
ATOM     23  O   LIG d   1     -22.082  88.321 114.586  0.00  0.00    -0.241 OA
ATOM     24  O   LIG d   1     -20.936  86.816 113.544  0.00  0.00    -0.241 OA
ENDBRANCH   3  22
TORSDOF 7
ENDMDL
