MODEL 1
REMARK VINA RESULT:      -5.6      0.000      0.000
REMARK  7 active torsions:
REMARK  status: ('A' for Active; 'I' for Inactive)
REMARK    1  A    between atoms: C_2  and  C_3 
REMARK    2  A    between atoms: C_3  and  O_6 
REMARK    3  A    between atoms: C_3  and  C_4 
REMARK    4  A    between atoms: C_7  and  O_6 
REMARK    5  A    between atoms: C_9  and  C_10 
REMARK    6  A    between atoms: N_15  and  C_14 
REMARK    7  A    between atoms: N_20  and  C_19 
REMARK       I    between atoms: C_22  and  N_20 
ROOT
ATOM      1  C   LIG d   1       2.058  84.559 112.542  0.00  0.00     0.161 C 
ATOM      2  C   LIG d   1       1.279  83.405 112.353  0.00  0.00     0.016 C 
ATOM      3  C   LIG d   1      -0.035  83.430 111.833  0.00  0.00     0.038 C 
ATOM      4  C   LIG d   1      -0.609  84.604 111.323  0.00  0.00     0.028 C 
ATOM      5  C   LIG d   1      -0.053  85.875 111.956  0.00  0.00    -0.047 C 
ATOM      6  C   LIG d   1       1.491  85.836 111.887  0.00  0.00     0.091 C 
ENDROOT
BRANCH   1   7
ATOM      7  O   LIG d   1       3.405  84.320 112.088  0.00  0.00    -0.368 OA
BRANCH   7   8
ATOM      8  C   LIG d   1       4.323  83.783 113.073  0.00  0.00     0.119 C 
BRANCH   8   9
ATOM      9  C   LIG d   1       5.255  84.929 113.510  0.00  0.00     0.028 C 
ATOM     10  C   LIG d   1       4.967  85.406 114.943  0.00  0.00     0.006 C 
ENDBRANCH   8   9
BRANCH   8  11
ATOM     11  C   LIG d   1       5.243  82.724 112.458  0.00  0.00     0.028 C 
ATOM     12  C   LIG d   1       4.713  82.179 111.122  0.00  0.00     0.006 C 
ENDBRANCH   8  11
ENDBRANCH   7   8
ENDBRANCH   1   7
BRANCH   6  13
ATOM     13  N   LIG d   1       2.117  87.003 112.561  0.00  0.00    -0.311 N 
ATOM     14  C   LIG d   1       3.211  87.612 112.105  0.00  0.00     0.210 C 
ATOM     15  C   LIG d   1       3.703  88.783 112.962  0.00  0.00     0.109 C 
ATOM     16  O   LIG d   1       3.802  87.314 111.056  0.00  0.00    -0.276 OA
ATOM     17  H   LIG d   1       1.685  87.331 113.402  0.00  0.00     0.149 HD
ENDBRANCH   6  13
BRANCH   5  18
ATOM     18  N   LIG d   1      -0.636  87.023 111.236  0.00  0.00     0.381 N 
ATOM     19  H   LIG d   1      -1.496  87.294 111.670  0.00  0.00    -0.090 HD
ATOM     20  H   LIG d   1      -0.833  86.747 110.290  0.00  0.00    -0.090 HD
ATOM     21  H   LIG d   1       0.002  87.788 111.241  0.00  0.00    -0.090 HD
ENDBRANCH   5  18
BRANCH   3  22
ATOM     22  C   LIG d   1      -0.806  82.277 111.858  0.00  0.00     0.382 C 
ATOM     23  O   LIG d   1      -1.974  82.313 112.314  0.00  0.00    -0.241 OA
ATOM     24  O   LIG d   1      -0.331  81.192 111.471  0.00  0.00    -0.241 OA
ENDBRANCH   3  22
TORSDOF 7
ENDMDL
MODEL 2
REMARK VINA RESULT:      -5.4      7.465     10.830
REMARK  7 active torsions:
REMARK  status: ('A' for Active; 'I' for Inactive)
REMARK    1  A    between atoms: C_2  and  C_3 
REMARK    2  A    between atoms: C_3  and  O_6 
REMARK    3  A    between atoms: C_3  and  C_4 
REMARK    4  A    between atoms: C_7  and  O_6 
REMARK    5  A    between atoms: C_9  and  C_10 
REMARK    6  A    between atoms: N_15  and  C_14 
REMARK    7  A    between atoms: N_20  and  C_19 
REMARK       I    between atoms: C_22  and  N_20 
ROOT
ATOM      1  C   LIG d   1      -3.372  78.391 115.716  0.00  0.00     0.161 C 
ATOM      2  C   LIG d   1      -3.374  79.233 114.591  0.00  0.00     0.016 C 
ATOM      3  C   LIG d   1      -2.347  79.236 113.619  0.00  0.00     0.038 C 
ATOM      4  C   LIG d   1      -1.317  78.285 113.627  0.00  0.00     0.028 C 
ATOM      5  C   LIG d   1      -1.001  77.745 115.017  0.00  0.00    -0.047 C 
ATOM      6  C   LIG d   1      -2.313  77.269 115.681  0.00  0.00     0.091 C 
ENDROOT
BRANCH   1   7
ATOM      7  O   LIG d   1      -4.687  77.833 115.911  0.00  0.00    -0.368 OA
BRANCH   7   8
ATOM      8  C   LIG d   1      -5.173  77.809 117.275  0.00  0.00     0.119 C 
BRANCH   8   9
ATOM      9  C   LIG d   1      -5.697  76.388 117.555  0.00  0.00     0.028 C 
ATOM     10  C   LIG d   1      -5.548  75.457 116.340  0.00  0.00     0.006 C 
ENDBRANCH   8   9
BRANCH   8  11
ATOM     11  C   LIG d   1      -6.384  78.730 117.451  0.00  0.00     0.028 C 
ATOM     12  C   LIG d   1      -5.993  80.209 117.594  0.00  0.00     0.006 C 
ENDBRANCH   8  11
ENDBRANCH   7   8
ENDBRANCH   1   7
BRANCH   6  13
ATOM     13  N   LIG d   1      -2.106  76.804 117.078  0.00  0.00    -0.311 N 
ATOM     14  C   LIG d   1      -1.961  75.522 117.409  0.00  0.00     0.210 C 
ATOM     15  C   LIG d   1      -1.778  75.259 118.907  0.00  0.00     0.109 C 
ATOM     16  O   LIG d   1      -1.935  74.581 116.602  0.00  0.00    -0.276 OA
ATOM     17  H   LIG d   1      -2.082  77.504 117.793  0.00  0.00     0.149 HD
ENDBRANCH   6  13
BRANCH   5  18
ATOM     18  N   LIG d   1      -0.007  76.665 114.861  0.00  0.00     0.381 N 
ATOM     19  H   LIG d   1      -0.343  75.989 114.206  0.00  0.00    -0.090 HD
ATOM     20  H   LIG d   1       0.119  76.210 115.748  0.00  0.00    -0.090 HD
ATOM     21  H   LIG d   1       0.859  77.042 114.546  0.00  0.00    -0.090 HD
ENDBRANCH   5  18
BRANCH   3  22
ATOM     22  C   LIG d   1      -2.324  80.225 112.648  0.00  0.00     0.382 C 
ATOM     23  O   LIG d   1      -3.223  81.100 112.622  0.00  0.00    -0.241 OA
ATOM     24  O   LIG d   1      -1.440  80.228 111.771  0.00  0.00    -0.241 OA
ENDBRANCH   3  22
TORSDOF 7
ENDMDL
MODEL 3
REMARK VINA RESULT:      -5.2      8.610     11.623
REMARK  7 active torsions:
REMARK  status: ('A' for Active; 'I' for Inactive)
REMARK    1  A    between atoms: C_2  and  C_3 
REMARK    2  A    between atoms: C_3  and  O_6 
REMARK    3  A    between atoms: C_3  and  C_4 
REMARK    4  A    between atoms: C_7  and  O_6 
REMARK    5  A    between atoms: C_9  and  C_10 
REMARK    6  A    between atoms: N_15  and  C_14 
REMARK    7  A    between atoms: N_20  and  C_19 
REMARK       I    between atoms: C_22  and  N_20 
ROOT
ATOM      1  C   LIG d   1      -3.568  76.597 115.192  0.00  0.00     0.161 C 
ATOM      2  C   LIG d   1      -3.780  77.057 113.881  0.00  0.00     0.016 C 
ATOM      3  C   LIG d   1      -2.737  77.488 113.030  0.00  0.00     0.038 C 
ATOM      4  C   LIG d   1      -1.386  77.346 113.381  0.00  0.00     0.028 C 
ATOM      5  C   LIG d   1      -1.148  77.357 114.887  0.00  0.00    -0.047 C 
ATOM      6  C   LIG d   1      -2.092  76.330 115.552  0.00  0.00     0.091 C 
ENDROOT
BRANCH   1   7
ATOM      7  O   LIG d   1      -4.363  75.419 115.431  0.00  0.00    -0.368 OA
BRANCH   7   8
ATOM      8  C   LIG d   1      -5.774  75.641 115.673  0.00  0.00     0.119 C 
BRANCH   8   9
ATOM      9  C   LIG d   1      -5.931  76.057 117.149  0.00  0.00     0.028 C 
ATOM     10  C   LIG d   1      -6.173  77.567 117.310  0.00  0.00     0.006 C 
ENDBRANCH   8   9
BRANCH   8  11
ATOM     11  C   LIG d   1      -6.575  74.343 115.531  0.00  0.00     0.028 C 
ATOM     12  C   LIG d   1      -7.386  74.002 116.791  0.00  0.00     0.006 C 
ENDBRANCH   8  11
ENDBRANCH   7   8
ENDBRANCH   1   7
BRANCH   6  13
ATOM     13  N   LIG d   1      -1.983  76.337 117.035  0.00  0.00    -0.311 N 
ATOM     14  C   LIG d   1      -1.980  75.229 117.775  0.00  0.00     0.210 C 
ATOM     15  C   LIG d   1      -1.879  75.462 119.285  0.00  0.00     0.109 C 
ATOM     16  O   LIG d   1      -2.020  74.076 117.321  0.00  0.00    -0.276 OA
ATOM     17  H   LIG d   1      -1.915  77.229 117.483  0.00  0.00     0.149 HD
ENDBRANCH   6  13
BRANCH   5  18
ATOM     18  N   LIG d   1       0.280  77.062 115.114  0.00  0.00     0.381 N 
ATOM     19  H   LIG d   1       0.765  77.904 115.353  0.00  0.00    -0.090 HD
ATOM     20  H   LIG d   1       0.676  76.700 114.265  0.00  0.00    -0.090 HD
ATOM     21  H   LIG d   1       0.378  76.394 115.846  0.00  0.00    -0.090 HD
ENDBRANCH   5  18
BRANCH   3  22
ATOM     22  C   LIG d   1      -3.043  78.107 111.827  0.00  0.00     0.382 C 
ATOM     23  O   LIG d   1      -4.112  77.827 111.232  0.00  0.00    -0.241 OA
ATOM     24  O   LIG d   1      -2.244  78.908 111.307  0.00  0.00    -0.241 OA
ENDBRANCH   3  22
TORSDOF 7
ENDMDL
MODEL 4
REMARK VINA RESULT:      -5.2      1.807      5.031
REMARK  7 active torsions:
REMARK  status: ('A' for Active; 'I' for Inactive)
REMARK    1  A    between atoms: C_2  and  C_3 
REMARK    2  A    between atoms: C_3  and  O_6 
REMARK    3  A    between atoms: C_3  and  C_4 
REMARK    4  A    between atoms: C_7  and  O_6 
REMARK    5  A    between atoms: C_9  and  C_10 
REMARK    6  A    between atoms: N_15  and  C_14 
REMARK    7  A    between atoms: N_20  and  C_19 
REMARK       I    between atoms: C_22  and  N_20 
ROOT
ATOM      1  C   LIG d   1       3.210  86.111 111.320  0.00  0.00     0.161 C 
ATOM      2  C   LIG d   1       4.051  87.173 111.690  0.00  0.00     0.016 C 
ATOM      3  C   LIG d   1       3.770  88.052 112.761  0.00  0.00     0.038 C 
ATOM      4  C   LIG d   1       2.694  87.835 113.636  0.00  0.00     0.028 C 
ATOM      5  C   LIG d   1       1.538  87.073 112.996  0.00  0.00    -0.047 C 
ATOM      6  C   LIG d   1       2.089  85.791 112.331  0.00  0.00     0.091 C 
ENDROOT
BRANCH   1   7
ATOM      7  O   LIG d   1       3.997  84.933 111.055  0.00  0.00    -0.368 OA
BRANCH   7   8
ATOM      8  C   LIG d   1       3.946  83.893 112.062  0.00  0.00     0.119 C 
BRANCH   8   9
ATOM      9  C   LIG d   1       5.237  83.993 112.898  0.00  0.00     0.028 C 
ATOM     10  C   LIG d   1       5.026  84.763 114.213  0.00  0.00     0.006 C 
ENDBRANCH   8   9
BRANCH   8  11
ATOM     11  C   LIG d   1       3.982  82.500 111.426  0.00  0.00     0.028 C 
ATOM     12  C   LIG d   1       2.921  81.552 112.007  0.00  0.00     0.006 C 
ENDBRANCH   8  11
ENDBRANCH   7   8
ENDBRANCH   1   7
BRANCH   6  13
ATOM     13  N   LIG d   1       1.036  85.029 111.610  0.00  0.00    -0.311 N 
ATOM     14  C   LIG d   1       0.333  84.045 112.166  0.00  0.00     0.210 C 
ATOM     15  C   LIG d   1      -0.689  83.378 111.241  0.00  0.00     0.109 C 
ATOM     16  O   LIG d   1       0.435  83.682 113.348  0.00  0.00    -0.276 OA
ATOM     17  H   LIG d   1       0.866  85.279 110.656  0.00  0.00     0.149 HD
ENDBRANCH   6  13
BRANCH   5  18
ATOM     18  N   LIG d   1       0.548  86.796 114.054  0.00  0.00     0.381 N 
ATOM     19  H   LIG d   1       1.016  86.653 114.927  0.00  0.00    -0.090 HD
ATOM     20  H   LIG d   1       0.051  85.955 113.822  0.00  0.00    -0.090 HD
ATOM     21  H   LIG d   1      -0.090  87.557 114.132  0.00  0.00    -0.090 HD
ENDBRANCH   5  18
BRANCH   3  22
ATOM     22  C   LIG d   1       4.546  89.187 112.942  0.00  0.00     0.382 C 
ATOM     23  O   LIG d   1       4.035  90.226 113.425  0.00  0.00    -0.241 OA
ATOM     24  O   LIG d   1       5.740  89.199 112.586  0.00  0.00    -0.241 OA
ENDBRANCH   3  22
TORSDOF 7
ENDMDL
MODEL 5
REMARK VINA RESULT:      -5.1      9.287     12.194
REMARK  7 active torsions:
REMARK  status: ('A' for Active; 'I' for Inactive)
REMARK    1  A    between atoms: C_2  and  C_3 
REMARK    2  A    between atoms: C_3  and  O_6 
REMARK    3  A    between atoms: C_3  and  C_4 
REMARK    4  A    between atoms: C_7  and  O_6 
REMARK    5  A    between atoms: C_9  and  C_10 
REMARK    6  A    between atoms: N_15  and  C_14 
REMARK    7  A    between atoms: N_20  and  C_19 
REMARK       I    between atoms: C_22  and  N_20 
ROOT
ATOM      1  C   LIG d   1      -3.510  75.352 116.237  0.00  0.00     0.161 C 
ATOM      2  C   LIG d   1      -2.557  76.149 115.581  0.00  0.00     0.016 C 
ATOM      3  C   LIG d   1      -2.778  76.744 114.317  0.00  0.00     0.038 C 
ATOM      4  C   LIG d   1      -4.032  76.706 113.689  0.00  0.00     0.028 C 
ATOM      5  C   LIG d   1      -4.867  75.490 114.077  0.00  0.00    -0.047 C 
ATOM      6  C   LIG d   1      -4.923  75.391 115.618  0.00  0.00     0.091 C 
ENDROOT
BRANCH   1   7
ATOM      7  O   LIG d   1      -3.564  75.707 117.633  0.00  0.00    -0.368 OA
BRANCH   7   8
ATOM      8  C   LIG d   1      -3.113  77.042 117.970  0.00  0.00     0.119 C 
BRANCH   8   9
ATOM      9  C   LIG d   1      -2.294  76.939 119.271  0.00  0.00     0.028 C 
ATOM     10  C   LIG d   1      -0.967  76.189 119.071  0.00  0.00     0.006 C 
ENDBRANCH   8   9
BRANCH   8  11
ATOM     11  C   LIG d   1      -4.292  77.960 118.305  0.00  0.00     0.028 C 
ATOM     12  C   LIG d   1      -4.755  78.798 117.102  0.00  0.00     0.006 C 
ENDBRANCH   8  11
ENDBRANCH   7   8
ENDBRANCH   1   7
BRANCH   6  13
ATOM     13  N   LIG d   1      -5.650  74.181 116.083  0.00  0.00    -0.311 N 
ATOM     14  C   LIG d   1      -6.930  74.193 116.453  0.00  0.00     0.210 C 
ATOM     15  C   LIG d   1      -7.480  72.841 116.917  0.00  0.00     0.109 C 
ATOM     16  O   LIG d   1      -7.670  75.187 116.411  0.00  0.00    -0.276 OA
ATOM     17  H   LIG d   1      -5.134  73.324 116.118  0.00  0.00     0.149 HD
ENDBRANCH   6  13
BRANCH   5  18
ATOM     18  N   LIG d   1      -6.197  75.648 113.459  0.00  0.00     0.381 N 
ATOM     19  H   LIG d   1      -6.404  74.850 112.892  0.00  0.00    -0.090 HD
ATOM     20  H   LIG d   1      -6.187  76.461 112.868  0.00  0.00    -0.090 HD
ATOM     21  H   LIG d   1      -6.891  75.751 114.166  0.00  0.00    -0.090 HD
ENDBRANCH   5  18
BRANCH   3  22
ATOM     22  C   LIG d   1      -1.725  77.352 113.650  0.00  0.00     0.382 C 
ATOM     23  O   LIG d   1      -1.092  78.286 114.199  0.00  0.00    -0.241 OA
ATOM     24  O   LIG d   1      -1.430  77.009 112.490  0.00  0.00    -0.241 OA
ENDBRANCH   3  22
TORSDOF 7
ENDMDL
MODEL 6
REMARK VINA RESULT:      -5.0      8.096     10.481
REMARK  7 active torsions:
REMARK  status: ('A' for Active; 'I' for Inactive)
REMARK    1  A    between atoms: C_2  and  C_3 
REMARK    2  A    between atoms: C_3  and  O_6 
REMARK    3  A    between atoms: C_3  and  C_4 
REMARK    4  A    between atoms: C_7  and  O_6 
REMARK    5  A    between atoms: C_9  and  C_10 
REMARK    6  A    between atoms: N_15  and  C_14 
REMARK    7  A    between atoms: N_20  and  C_19 
REMARK       I    between atoms: C_22  and  N_20 
ROOT
ATOM      1  C   LIG d   1      -2.705  77.833 116.267  0.00  0.00     0.161 C 
ATOM      2  C   LIG d   1      -3.084  78.619 115.167  0.00  0.00     0.016 C 
ATOM      3  C   LIG d   1      -2.423  78.580 113.917  0.00  0.00     0.038 C 
ATOM      4  C   LIG d   1      -1.427  77.633 113.636  0.00  0.00     0.028 C 
ATOM      5  C   LIG d   1      -0.671  77.162 114.874  0.00  0.00    -0.047 C 
ATOM      6  C   LIG d   1      -1.692  76.715 115.944  0.00  0.00     0.091 C 
ENDROOT
BRANCH   1   7
ATOM      7  O   LIG d   1      -3.877  77.280 116.899  0.00  0.00    -0.368 OA
BRANCH   7   8
ATOM      8  C   LIG d   1      -5.009  77.026 116.031  0.00  0.00     0.119 C 
BRANCH   8   9
ATOM      9  C   LIG d   1      -6.282  77.430 116.800  0.00  0.00     0.028 C 
ATOM     10  C   LIG d   1      -6.159  78.818 117.450  0.00  0.00     0.006 C 
ENDBRANCH   8   9
BRANCH   8  11
ATOM     11  C   LIG d   1      -5.167  75.530 115.743  0.00  0.00     0.028 C 
ATOM     12  C   LIG d   1      -5.154  75.207 114.241  0.00  0.00     0.006 C 
ENDBRANCH   8  11
ENDBRANCH   7   8
ENDBRANCH   1   7
BRANCH   6  13
ATOM     13  N   LIG d   1      -1.039  76.318 117.219  0.00  0.00    -0.311 N 
ATOM     14  C   LIG d   1      -0.478  77.188 118.057  0.00  0.00     0.210 C 
ATOM     15  C   LIG d   1       0.158  76.566 119.305  0.00  0.00     0.109 C 
ATOM     16  O   LIG d   1      -0.473  78.418 117.901  0.00  0.00    -0.276 OA
ATOM     17  H   LIG d   1      -1.025  75.341 117.440  0.00  0.00     0.149 HD
ENDBRANCH   6  13
BRANCH   5  18
ATOM     18  N   LIG d   1       0.240  76.080 114.455  0.00  0.00     0.381 N 
ATOM     19  H   LIG d   1       1.177  76.427 114.403  0.00  0.00    -0.090 HD
ATOM     20  H   LIG d   1      -0.030  75.764 113.540  0.00  0.00    -0.090 HD
ATOM     21  H   LIG d   1       0.193  75.325 115.103  0.00  0.00    -0.090 HD
ENDBRANCH   5  18
BRANCH   3  22
ATOM     22  C   LIG d   1      -2.731  79.521 112.947  0.00  0.00     0.382 C 
ATOM     23  O   LIG d   1      -2.345  79.352 111.765  0.00  0.00    -0.241 OA
ATOM     24  O   LIG d   1      -3.351  80.558 113.247  0.00  0.00    -0.241 OA
ENDBRANCH   3  22
TORSDOF 7
ENDMDL
MODEL 7
REMARK VINA RESULT:      -5.0      2.884      6.270
REMARK  7 active torsions:
REMARK  status: ('A' for Active; 'I' for Inactive)
REMARK    1  A    between atoms: C_2  and  C_3 
REMARK    2  A    between atoms: C_3  and  O_6 
REMARK    3  A    between atoms: C_3  and  C_4 
REMARK    4  A    between atoms: C_7  and  O_6 
REMARK    5  A    between atoms: C_9  and  C_10 
REMARK    6  A    between atoms: N_15  and  C_14 
REMARK    7  A    between atoms: N_20  and  C_19 
REMARK       I    between atoms: C_22  and  N_20 
ROOT
ATOM      1  C   LIG d   1       3.597  86.458 112.905  0.00  0.00     0.161 C 
ATOM      2  C   LIG d   1       3.752  87.852 112.838  0.00  0.00     0.016 C 
ATOM      3  C   LIG d   1       4.639  88.578 113.665  0.00  0.00     0.038 C 
ATOM      4  C   LIG d   1       5.549  87.936 114.519  0.00  0.00     0.028 C 
ATOM      5  C   LIG d   1       5.077  86.564 114.986  0.00  0.00    -0.047 C 
ATOM      6  C   LIG d   1       4.662  85.729 113.753  0.00  0.00     0.091 C 
ENDROOT
BRANCH   1   7
ATOM      7  O   LIG d   1       3.553  85.906 111.575  0.00  0.00    -0.368 OA
BRANCH   7   8
ATOM      8  C   LIG d   1       2.262  85.421 111.128  0.00  0.00     0.119 C 
BRANCH   8   9
ATOM      9  C   LIG d   1       1.227  85.805 112.203  0.00  0.00     0.028 C 
ATOM     10  C   LIG d   1       0.201  86.829 111.690  0.00  0.00     0.006 C 
ENDBRANCH   8   9
BRANCH   8  11
ATOM     11  C   LIG d   1       2.233  83.891 111.065  0.00  0.00     0.028 C 
ATOM     12  C   LIG d   1       1.057  83.285 111.846  0.00  0.00     0.006 C 
ENDBRANCH   8  11
ENDBRANCH   7   8
ENDBRANCH   1   7
BRANCH   6  13
ATOM     13  N   LIG d   1       4.108  84.402 114.127  0.00  0.00    -0.311 N 
ATOM     14  C   LIG d   1       4.585  83.250 113.658  0.00  0.00     0.210 C 
ATOM     15  C   LIG d   1       3.856  81.998 114.155  0.00  0.00     0.109 C 
ATOM     16  O   LIG d   1       5.564  83.145 112.903  0.00  0.00    -0.276 OA
ATOM     17  H   LIG d   1       3.332  84.393 114.759  0.00  0.00     0.149 HD
ENDBRANCH   6  13
BRANCH   5  18
ATOM     18  N   LIG d   1       6.178  85.952 115.754  0.00  0.00     0.381 N 
ATOM     19  H   LIG d   1       6.679  86.660 116.251  0.00  0.00    -0.090 HD
ATOM     20  H   LIG d   1       6.812  85.506 115.114  0.00  0.00    -0.090 HD
ATOM     21  H   LIG d   1       5.814  85.281 116.395  0.00  0.00    -0.090 HD
ENDBRANCH   5  18
BRANCH   3  22
ATOM     22  C   LIG d   1       4.594  89.964 113.673  0.00  0.00     0.382 C 
ATOM     23  O   LIG d   1       4.711  90.589 114.754  0.00  0.00    -0.241 OA
ATOM     24  O   LIG d   1       4.392  90.595 112.618  0.00  0.00    -0.241 OA
ENDBRANCH   3  22
TORSDOF 7
ENDMDL
MODEL 8
REMARK VINA RESULT:      -4.8      2.029      5.046
REMARK  7 active torsions:
REMARK  status: ('A' for Active; 'I' for Inactive)
REMARK    1  A    between atoms: C_2  and  C_3 
REMARK    2  A    between atoms: C_3  and  O_6 
REMARK    3  A    between atoms: C_3  and  C_4 
REMARK    4  A    between atoms: C_7  and  O_6 
REMARK    5  A    between atoms: C_9  and  C_10 
REMARK    6  A    between atoms: N_15  and  C_14 
REMARK    7  A    between atoms: N_20  and  C_19 
REMARK       I    between atoms: C_22  and  N_20 
ROOT
ATOM      1  C   LIG d   1       4.317  84.921 112.550  0.00  0.00     0.161 C 
ATOM      2  C   LIG d   1       4.652  86.274 112.723  0.00  0.00     0.016 C 
ATOM      3  C   LIG d   1       3.700  87.320 112.702  0.00  0.00     0.038 C 
ATOM      4  C   LIG d   1       2.321  87.067 112.657  0.00  0.00     0.028 C 
ATOM      5  C   LIG d   1       1.970  85.749 111.975  0.00  0.00    -0.047 C 
ATOM      6  C   LIG d   1       2.806  84.615 112.611  0.00  0.00     0.091 C 
ENDROOT
BRANCH   1   7
ATOM      7  O   LIG d   1       5.030  84.115 113.509  0.00  0.00    -0.368 OA
BRANCH   7   8
ATOM      8  C   LIG d   1       4.361  83.887 114.773  0.00  0.00     0.119 C 
BRANCH   8   9
ATOM      9  C   LIG d   1       5.120  84.686 115.850  0.00  0.00     0.028 C 
ATOM     10  C   LIG d   1       4.269  85.818 116.451  0.00  0.00     0.006 C 
ENDBRANCH   8   9
BRANCH   8  11
ATOM     11  C   LIG d   1       4.468  82.421 115.205  0.00  0.00     0.028 C 
ATOM     12  C   LIG d   1       4.838  81.484 114.044  0.00  0.00     0.006 C 
ENDBRANCH   8  11
ENDBRANCH   7   8
ENDBRANCH   1   7
BRANCH   6  13
ATOM     13  N   LIG d   1       2.585  83.305 111.945  0.00  0.00    -0.311 N 
ATOM     14  C   LIG d   1       1.705  82.403 112.375  0.00  0.00     0.210 C 
ATOM     15  C   LIG d   1       1.650  81.111 111.555  0.00  0.00     0.109 C 
ATOM     16  O   LIG d   1       0.942  82.564 113.340  0.00  0.00    -0.276 OA
ATOM     17  H   LIG d   1       3.140  83.106 111.135  0.00  0.00     0.149 HD
ENDBRANCH   6  13
BRANCH   5  18
ATOM     18  N   LIG d   1       0.516  85.546 112.120  0.00  0.00     0.381 N 
ATOM     19  H   LIG d   1       0.132  86.255 112.712  0.00  0.00    -0.090 HD
ATOM     20  H   LIG d   1       0.354  84.653 112.551  0.00  0.00    -0.090 HD
ATOM     21  H   LIG d   1       0.076  85.576 111.226  0.00  0.00    -0.090 HD
ENDBRANCH   5  18
BRANCH   3  22
ATOM     22  C   LIG d   1       4.129  88.639 112.686  0.00  0.00     0.382 C 
ATOM     23  O   LIG d   1       5.355  88.899 112.641  0.00  0.00    -0.241 OA
ATOM     24  O   LIG d   1       3.306  89.571 112.761  0.00  0.00    -0.241 OA
ENDBRANCH   3  22
TORSDOF 7
ENDMDL
MODEL 9
REMARK VINA RESULT:      -4.8     24.837     28.201
REMARK  7 active torsions:
REMARK  status: ('A' for Active; 'I' for Inactive)
REMARK    1  A    between atoms: C_2  and  C_3 
REMARK    2  A    between atoms: C_3  and  O_6 
REMARK    3  A    between atoms: C_3  and  C_4 
REMARK    4  A    between atoms: C_7  and  O_6 
REMARK    5  A    between atoms: C_9  and  C_10 
REMARK    6  A    between atoms: N_15  and  C_14 
REMARK    7  A    between atoms: N_20  and  C_19 
REMARK       I    between atoms: C_22  and  N_20 
ROOT
ATOM      1  C   LIG d   1     -25.703  85.397 113.258  0.00  0.00     0.161 C 
ATOM      2  C   LIG d   1     -24.574  86.209 113.451  0.00  0.00     0.016 C 
ATOM      3  C   LIG d   1     -23.262  85.699 113.588  0.00  0.00     0.038 C 
ATOM      4  C   LIG d   1     -22.971  84.341 113.389  0.00  0.00     0.028 C 
ATOM      5  C   LIG d   1     -24.146  83.418 113.692  0.00  0.00    -0.047 C 
ATOM      6  C   LIG d   1     -25.391  83.923 112.927  0.00  0.00     0.091 C 
ENDROOT
BRANCH   1   7
ATOM      7  O   LIG d   1     -26.549  85.970 112.242  0.00  0.00    -0.368 OA
BRANCH   7   8
ATOM      8  C   LIG d   1     -26.907  87.363 112.421  0.00  0.00     0.119 C 
BRANCH   8   9
ATOM      9  C   LIG d   1     -28.429  87.423 112.656  0.00  0.00     0.028 C 
ATOM     10  C   LIG d   1     -29.230  86.908 111.448  0.00  0.00     0.006 C 
ENDBRANCH   8   9
BRANCH   8  11
ATOM     11  C   LIG d   1     -26.662  88.170 111.144  0.00  0.00     0.028 C 
ATOM     12  C   LIG d   1     -26.771  89.687 111.367  0.00  0.00     0.006 C 
ENDBRANCH   8  11
ENDBRANCH   7   8
ENDBRANCH   1   7
BRANCH   6  13
ATOM     13  N   LIG d   1     -26.607  83.125 113.234  0.00  0.00    -0.311 N 
ATOM     14  C   LIG d   1     -27.051  82.138 112.458  0.00  0.00     0.210 C 
ATOM     15  C   LIG d   1     -28.334  81.458 112.948  0.00  0.00     0.109 C 
ATOM     16  O   LIG d   1     -26.488  81.740 111.427  0.00  0.00    -0.276 OA
ATOM     17  H   LIG d   1     -27.108  83.360 114.068  0.00  0.00     0.149 HD
ENDBRANCH   6  13
BRANCH   5  18
ATOM     18  N   LIG d   1     -23.748  82.050 113.311  0.00  0.00     0.381 N 
ATOM     19  H   LIG d   1     -23.787  81.951 112.316  0.00  0.00    -0.090 HD
ATOM     20  H   LIG d   1     -24.395  81.398 113.718  0.00  0.00    -0.090 HD
ATOM     21  H   LIG d   1     -22.825  81.860 113.635  0.00  0.00    -0.090 HD
ENDBRANCH   5  18
BRANCH   3  22
ATOM     22  C   LIG d   1     -22.232  86.545 113.968  0.00  0.00     0.382 C 
ATOM     23  O   LIG d   1     -22.264  87.110 115.088  0.00  0.00    -0.241 OA
ATOM     24  O   LIG d   1     -21.292  86.786 113.187  0.00  0.00    -0.241 OA
ENDBRANCH   3  22
TORSDOF 7
ENDMDL
