MODEL 1
REMARK VINA RESULT:      -5.9      0.000      0.000
REMARK  7 active torsions:
REMARK  status: ('A' for Active; 'I' for Inactive)
REMARK    1  A    between atoms: C_2  and  C_3 
REMARK    2  A    between atoms: C_3  and  O_6 
REMARK    3  A    between atoms: C_3  and  C_4 
REMARK    4  A    between atoms: C_7  and  O_6 
REMARK    5  A    between atoms: C_9  and  C_10 
REMARK    6  A    between atoms: N_15  and  C_14 
REMARK    7  A    between atoms: N_20  and  C_19 
REMARK       I    between atoms: C_22  and  N_20 
ROOT
ATOM      1  C   LIG d   1      -2.951  75.284 115.694  0.00  0.00     0.161 C 
ATOM      2  C   LIG d   1      -2.432  74.594 116.802  0.00  0.00     0.016 C 
ATOM      3  C   LIG d   1      -1.135  74.816 117.319  0.00  0.00     0.038 C 
ATOM      4  C   LIG d   1      -0.319  75.857 116.852  0.00  0.00     0.028 C 
ATOM      5  C   LIG d   1      -0.602  76.246 115.405  0.00  0.00    -0.047 C 
ATOM      6  C   LIG d   1      -2.117  76.500 115.241  0.00  0.00     0.091 C 
ENDROOT
BRANCH   1   7
ATOM      7  O   LIG d   1      -4.312  75.679 115.957  0.00  0.00    -0.368 OA
BRANCH   7   8
ATOM      8  C   LIG d   1      -5.327  74.676 115.708  0.00  0.00     0.119 C 
BRANCH   8   9
ATOM      9  C   LIG d   1      -5.559  74.620 114.185  0.00  0.00     0.028 C 
ATOM     10  C   LIG d   1      -5.938  75.991 113.599  0.00  0.00     0.006 C 
ENDBRANCH   8   9
BRANCH   8  11
ATOM     11  C   LIG d   1      -6.675  75.085 116.309  0.00  0.00     0.028 C 
ATOM     12  C   LIG d   1      -7.524  73.880 116.742  0.00  0.00     0.006 C 
ENDBRANCH   8  11
ENDBRANCH   7   8
ENDBRANCH   1   7
BRANCH   6  13
ATOM     13  N   LIG d   1      -2.492  76.804 113.835  0.00  0.00    -0.311 N 
ATOM     14  C   LIG d   1      -2.579  78.041 113.350  0.00  0.00     0.210 C 
ATOM     15  C   LIG d   1      -3.000  78.132 111.880  0.00  0.00     0.109 C 
ATOM     16  O   LIG d   1      -2.316  79.071 113.989  0.00  0.00    -0.276 OA
ATOM     17  H   LIG d   1      -2.692  76.025 113.238  0.00  0.00     0.149 HD
ENDBRANCH   6  13
BRANCH   5  18
ATOM     18  N   LIG d   1       0.221  77.430 115.092  0.00  0.00     0.381 N 
ATOM     19  H   LIG d   1      -0.071  77.824 114.220  0.00  0.00    -0.090 HD
ATOM     20  H   LIG d   1       1.181  77.145 115.004  0.00  0.00    -0.090 HD
ATOM     21  H   LIG d   1       0.133  78.107 115.818  0.00  0.00    -0.090 HD
ENDBRANCH   5  18
BRANCH   3  22
ATOM     22  C   LIG d   1      -0.627  73.965 118.289  0.00  0.00     0.382 C 
ATOM     23  O   LIG d   1      -0.062  74.438 119.305  0.00  0.00    -0.241 OA
ATOM     24  O   LIG d   1      -0.686  72.730 118.139  0.00  0.00    -0.241 OA
ENDBRANCH   3  22
TORSDOF 7
ENDMDL
MODEL 2
REMARK VINA RESULT:      -5.9      3.449      6.067
REMARK  7 active torsions:
REMARK  status: ('A' for Active; 'I' for Inactive)
REMARK    1  A    between atoms: C_2  and  C_3 
REMARK    2  A    between atoms: C_3  and  O_6 
REMARK    3  A    between atoms: C_3  and  C_4 
REMARK    4  A    between atoms: C_7  and  O_6 
REMARK    5  A    between atoms: C_9  and  C_10 
REMARK    6  A    between atoms: N_15  and  C_14 
REMARK    7  A    between atoms: N_20  and  C_19 
REMARK       I    between atoms: C_22  and  N_20 
ROOT
ATOM      1  C   LIG d   1      -5.768  75.430 117.410  0.00  0.00     0.161 C 
ATOM      2  C   LIG d   1      -6.192  74.175 116.944  0.00  0.00     0.016 C 
ATOM      3  C   LIG d   1      -7.545  73.858 116.682  0.00  0.00     0.038 C 
ATOM      4  C   LIG d   1      -8.556  74.830 116.726  0.00  0.00     0.028 C 
ATOM      5  C   LIG d   1      -8.249  75.980 117.678  0.00  0.00    -0.047 C 
ATOM      6  C   LIG d   1      -6.843  76.536 117.358  0.00  0.00     0.091 C 
ENDROOT
BRANCH   1   7
ATOM      7  O   LIG d   1      -4.588  75.844 116.695  0.00  0.00    -0.368 OA
BRANCH   7   8
ATOM      8  C   LIG d   1      -4.264  75.084 115.505  0.00  0.00     0.119 C 
BRANCH   8   9
ATOM      9  C   LIG d   1      -2.759  74.758 115.559  0.00  0.00     0.028 C 
ATOM     10  C   LIG d   1      -2.188  74.855 116.983  0.00  0.00     0.006 C 
ENDBRANCH   8   9
BRANCH   8  11
ATOM     11  C   LIG d   1      -4.452  75.925 114.238  0.00  0.00     0.028 C 
ATOM     12  C   LIG d   1      -5.874  75.829 113.665  0.00  0.00     0.006 C 
ENDBRANCH   8  11
ENDBRANCH   7   8
ENDBRANCH   1   7
BRANCH   6  13
ATOM     13  N   LIG d   1      -6.430  77.610 118.298  0.00  0.00    -0.311 N 
ATOM     14  C   LIG d   1      -5.932  78.780 117.902  0.00  0.00     0.210 C 
ATOM     15  C   LIG d   1      -5.551  79.738 119.036  0.00  0.00     0.109 C 
ATOM     16  O   LIG d   1      -5.800  79.129 116.719  0.00  0.00    -0.276 OA
ATOM     17  H   LIG d   1      -6.532  77.424 119.277  0.00  0.00     0.149 HD
ENDBRANCH   6  13
BRANCH   5  18
ATOM     18  N   LIG d   1      -9.318  76.985 117.522  0.00  0.00     0.381 N 
ATOM     19  H   LIG d   1      -9.267  77.652 118.266  0.00  0.00    -0.090 HD
ATOM     20  H   LIG d   1     -10.209  76.523 117.572  0.00  0.00    -0.090 HD
ATOM     21  H   LIG d   1      -9.225  77.448 116.645  0.00  0.00    -0.090 HD
ENDBRANCH   5  18
BRANCH   3  22
ATOM     22  C   LIG d   1      -7.904  72.546 116.411  0.00  0.00     0.382 C 
ATOM     23  O   LIG d   1      -9.113  72.242 116.277  0.00  0.00    -0.241 OA
ATOM     24  O   LIG d   1      -7.036  71.655 116.343  0.00  0.00    -0.241 OA
ENDBRANCH   3  22
TORSDOF 7
ENDMDL
MODEL 3
REMARK VINA RESULT:      -5.9      4.115      6.571
REMARK  7 active torsions:
REMARK  status: ('A' for Active; 'I' for Inactive)
REMARK    1  A    between atoms: C_2  and  C_3 
REMARK    2  A    between atoms: C_3  and  O_6 
REMARK    3  A    between atoms: C_3  and  C_4 
REMARK    4  A    between atoms: C_7  and  O_6 
REMARK    5  A    between atoms: C_9  and  C_10 
REMARK    6  A    between atoms: N_15  and  C_14 
REMARK    7  A    between atoms: N_20  and  C_19 
REMARK       I    between atoms: C_22  and  N_20 
ROOT
ATOM      1  C   LIG d   1      -7.344  76.535 117.666  0.00  0.00     0.161 C 
ATOM      2  C   LIG d   1      -8.661  77.002 117.812  0.00  0.00     0.016 C 
ATOM      3  C   LIG d   1      -8.979  78.295 118.288  0.00  0.00     0.038 C 
ATOM      4  C   LIG d   1      -7.993  79.268 118.508  0.00  0.00     0.028 C 
ATOM      5  C   LIG d   1      -6.630  78.680 118.856  0.00  0.00    -0.047 C 
ATOM      6  C   LIG d   1      -6.254  77.620 117.796  0.00  0.00     0.091 C 
ENDROOT
BRANCH   1   7
ATOM      7  O   LIG d   1      -7.209  75.837 116.412  0.00  0.00    -0.368 OA
BRANCH   7   8
ATOM      8  C   LIG d   1      -6.724  74.474 116.490  0.00  0.00     0.119 C 
BRANCH   8   9
ATOM      9  C   LIG d   1      -6.043  74.148 115.146  0.00  0.00     0.028 C 
ATOM     10  C   LIG d   1      -5.684  75.413 114.348  0.00  0.00     0.006 C 
ENDBRANCH   8   9
BRANCH   8  11
ATOM     11  C   LIG d   1      -7.880  73.477 116.611  0.00  0.00     0.028 C 
ATOM     12  C   LIG d   1      -7.553  72.108 115.994  0.00  0.00     0.006 C 
ENDBRANCH   8  11
ENDBRANCH   7   8
ENDBRANCH   1   7
BRANCH   6  13
ATOM     13  N   LIG d   1      -4.973  76.935 118.107  0.00  0.00    -0.311 N 
ATOM     14  C   LIG d   1      -3.895  77.007 117.328  0.00  0.00     0.210 C 
ATOM     15  C   LIG d   1      -2.684  76.210 117.823  0.00  0.00     0.109 C 
ATOM     16  O   LIG d   1      -3.817  77.681 116.289  0.00  0.00    -0.276 OA
ATOM     17  H   LIG d   1      -4.938  76.392 118.947  0.00  0.00     0.149 HD
ENDBRANCH   6  13
BRANCH   5  18
ATOM     18  N   LIG d   1      -5.667  79.796 118.924  0.00  0.00     0.381 N 
ATOM     19  H   LIG d   1      -4.880  79.531 119.481  0.00  0.00    -0.090 HD
ATOM     20  H   LIG d   1      -6.113  80.584 119.361  0.00  0.00    -0.090 HD
ATOM     21  H   LIG d   1      -5.366  80.043 118.006  0.00  0.00    -0.090 HD
ENDBRANCH   5  18
BRANCH   3  22
ATOM     22  C   LIG d   1     -10.296  78.612 118.586  0.00  0.00     0.382 C 
ATOM     23  O   LIG d   1     -11.121  77.699 118.830  0.00  0.00    -0.241 OA
ATOM     24  O   LIG d   1     -10.679  79.797 118.571  0.00  0.00    -0.241 OA
ENDBRANCH   3  22
TORSDOF 7
ENDMDL
MODEL 4
REMARK VINA RESULT:      -5.7      2.779      4.871
REMARK  7 active torsions:
REMARK  status: ('A' for Active; 'I' for Inactive)
REMARK    1  A    between atoms: C_2  and  C_3 
REMARK    2  A    between atoms: C_3  and  O_6 
REMARK    3  A    between atoms: C_3  and  C_4 
REMARK    4  A    between atoms: C_7  and  O_6 
REMARK    5  A    between atoms: C_9  and  C_10 
REMARK    6  A    between atoms: N_15  and  C_14 
REMARK    7  A    between atoms: N_20  and  C_19 
REMARK       I    between atoms: C_22  and  N_20 
ROOT
ATOM      1  C   LIG d   1      -4.590  75.894 117.608  0.00  0.00     0.161 C 
ATOM      2  C   LIG d   1      -5.651  76.773 117.882  0.00  0.00     0.016 C 
ATOM      3  C   LIG d   1      -5.629  78.147 117.549  0.00  0.00     0.038 C 
ATOM      4  C   LIG d   1      -4.600  78.707 116.778  0.00  0.00     0.028 C 
ATOM      5  C   LIG d   1      -3.271  77.970 116.914  0.00  0.00    -0.047 C 
ATOM      6  C   LIG d   1      -3.506  76.462 116.668  0.00  0.00     0.091 C 
ENDROOT
BRANCH   1   7
ATOM      7  O   LIG d   1      -5.106  74.654 117.085  0.00  0.00    -0.368 OA
BRANCH   7   8
ATOM      8  C   LIG d   1      -6.284  74.756 116.247  0.00  0.00     0.119 C 
BRANCH   8   9
ATOM      9  C   LIG d   1      -7.295  73.702 116.739  0.00  0.00     0.028 C 
ATOM     10  C   LIG d   1      -7.195  72.382 115.956  0.00  0.00     0.006 C 
ENDBRANCH   8   9
BRANCH   8  11
ATOM     11  C   LIG d   1      -5.971  74.372 114.798  0.00  0.00     0.028 C 
ATOM     12  C   LIG d   1      -5.675  75.591 113.910  0.00  0.00     0.006 C 
ENDBRANCH   8  11
ENDBRANCH   7   8
ENDBRANCH   1   7
BRANCH   6  13
ATOM     13  N   LIG d   1      -2.273  75.657 116.865  0.00  0.00    -0.311 N 
ATOM     14  C   LIG d   1      -1.803  74.801 115.959  0.00  0.00     0.210 C 
ATOM     15  C   LIG d   1      -0.529  74.057 116.371  0.00  0.00     0.109 C 
ATOM     16  O   LIG d   1      -2.303  74.611 114.840  0.00  0.00    -0.276 OA
ATOM     17  H   LIG d   1      -1.787  75.772 117.733  0.00  0.00     0.149 HD
ENDBRANCH   6  13
BRANCH   5  18
ATOM     18  N   LIG d   1      -2.327  78.573 115.955  0.00  0.00     0.381 N 
ATOM     19  H   LIG d   1      -1.445  78.728 116.401  0.00  0.00    -0.090 HD
ATOM     20  H   LIG d   1      -2.690  79.460 115.655  0.00  0.00    -0.090 HD
ATOM     21  H   LIG d   1      -2.209  77.971 115.169  0.00  0.00    -0.090 HD
ENDBRANCH   5  18
BRANCH   3  22
ATOM     22  C   LIG d   1      -6.627  78.985 118.024  0.00  0.00     0.382 C 
ATOM     23  O   LIG d   1      -7.372  78.606 118.959  0.00  0.00    -0.241 OA
ATOM     24  O   LIG d   1      -6.820  80.098 117.498  0.00  0.00    -0.241 OA
ENDBRANCH   3  22
TORSDOF 7
ENDMDL
MODEL 5
REMARK VINA RESULT:      -5.5      3.345      6.084
REMARK  7 active torsions:
REMARK  status: ('A' for Active; 'I' for Inactive)
REMARK    1  A    between atoms: C_2  and  C_3 
REMARK    2  A    between atoms: C_3  and  O_6 
REMARK    3  A    between atoms: C_3  and  C_4 
REMARK    4  A    between atoms: C_7  and  O_6 
REMARK    5  A    between atoms: C_9  and  C_10 
REMARK    6  A    between atoms: N_15  and  C_14 
REMARK    7  A    between atoms: N_20  and  C_19 
REMARK       I    between atoms: C_22  and  N_20 
ROOT
ATOM      1  C   LIG d   1      -5.285  75.286 116.989  0.00  0.00     0.161 C 
ATOM      2  C   LIG d   1      -5.969  74.140 116.550  0.00  0.00     0.016 C 
ATOM      3  C   LIG d   1      -7.379  74.034 116.535  0.00  0.00     0.038 C 
ATOM      4  C   LIG d   1      -8.208  75.130 116.818  0.00  0.00     0.028 C 
ATOM      5  C   LIG d   1      -7.565  76.150 117.751  0.00  0.00    -0.047 C 
ATOM      6  C   LIG d   1      -6.173  76.530 117.197  0.00  0.00     0.091 C 
ENDROOT
BRANCH   1   7
ATOM      7  O   LIG d   1      -4.205  75.587 116.084  0.00  0.00    -0.368 OA
BRANCH   7   8
ATOM      8  C   LIG d   1      -2.866  75.391 116.601  0.00  0.00     0.119 C 
BRANCH   8   9
ATOM      9  C   LIG d   1      -2.199  76.777 116.697  0.00  0.00     0.028 C 
ATOM     10  C   LIG d   1      -2.705  77.748 115.617  0.00  0.00     0.006 C 
ENDBRANCH   8   9
BRANCH   8  11
ATOM     11  C   LIG d   1      -2.001  74.592 115.622  0.00  0.00     0.028 C 
ATOM     12  C   LIG d   1      -0.530  74.506 116.059  0.00  0.00     0.006 C 
ENDBRANCH   8  11
ENDBRANCH   7   8
ENDBRANCH   1   7
BRANCH   6  13
ATOM     13  N   LIG d   1      -5.440  77.461 118.094  0.00  0.00    -0.311 N 
ATOM     14  C   LIG d   1      -5.414  78.781 117.917  0.00  0.00     0.210 C 
ATOM     15  C   LIG d   1      -4.583  79.555 118.945  0.00  0.00     0.109 C 
ATOM     16  O   LIG d   1      -6.027  79.388 117.025  0.00  0.00    -0.276 OA
ATOM     17  H   LIG d   1      -4.941  77.057 118.862  0.00  0.00     0.149 HD
ENDBRANCH   6  13
BRANCH   5  18
ATOM     18  N   LIG d   1      -8.482  77.302 117.851  0.00  0.00     0.381 N 
ATOM     19  H   LIG d   1      -8.721  77.625 116.935  0.00  0.00    -0.090 HD
ATOM     20  H   LIG d   1      -8.015  78.048 118.336  0.00  0.00    -0.090 HD
ATOM     21  H   LIG d   1      -9.306  77.040 118.345  0.00  0.00    -0.090 HD
ENDBRANCH   5  18
BRANCH   3  22
ATOM     22  C   LIG d   1      -7.973  72.809 116.272  0.00  0.00     0.382 C 
ATOM     23  O   LIG d   1      -7.304  71.888 115.744  0.00  0.00    -0.241 OA
ATOM     24  O   LIG d   1      -9.181  72.628 116.516  0.00  0.00    -0.241 OA
ENDBRANCH   3  22
TORSDOF 7
ENDMDL
MODEL 6
REMARK VINA RESULT:      -5.2     11.680     13.644
REMARK  7 active torsions:
REMARK  status: ('A' for Active; 'I' for Inactive)
REMARK    1  A    between atoms: C_2  and  C_3 
REMARK    2  A    between atoms: C_3  and  O_6 
REMARK    3  A    between atoms: C_3  and  C_4 
REMARK    4  A    between atoms: C_7  and  O_6 
REMARK    5  A    between atoms: C_9  and  C_10 
REMARK    6  A    between atoms: N_15  and  C_14 
REMARK    7  A    between atoms: N_20  and  C_19 
REMARK       I    between atoms: C_22  and  N_20 
ROOT
ATOM      1  C   LIG d   1       1.600  87.488 115.094  0.00  0.00     0.161 C 
ATOM      2  C   LIG d   1       0.401  87.211 115.772  0.00  0.00     0.016 C 
ATOM      3  C   LIG d   1      -0.204  88.109 116.682  0.00  0.00     0.038 C 
ATOM      4  C   LIG d   1       0.274  89.416 116.861  0.00  0.00     0.028 C 
ATOM      5  C   LIG d   1       1.765  89.560 116.580  0.00  0.00    -0.047 C 
ATOM      6  C   LIG d   1       2.075  88.953 115.193  0.00  0.00     0.091 C 
ENDROOT
BRANCH   1   7
ATOM      7  O   LIG d   1       1.483  87.091 113.713  0.00  0.00    -0.368 OA
BRANCH   7   8
ATOM      8  C   LIG d   1       1.925  85.749 113.396  0.00  0.00     0.119 C 
BRANCH   8   9
ATOM      9  C   LIG d   1       3.442  85.811 113.132  0.00  0.00     0.028 C 
ATOM     10  C   LIG d   1       3.777  86.491 111.794  0.00  0.00     0.006 C 
ENDBRANCH   8   9
BRANCH   8  11
ATOM     11  C   LIG d   1       1.306  85.253 112.086  0.00  0.00     0.028 C 
ATOM     12  C   LIG d   1      -0.209  85.504 112.010  0.00  0.00     0.006 C 
ENDBRANCH   8  11
ENDBRANCH   7   8
ENDBRANCH   1   7
BRANCH   6  13
ATOM     13  N   LIG d   1       3.527  88.976 114.875  0.00  0.00    -0.311 N 
ATOM     14  C   LIG d   1       4.037  89.614 113.823  0.00  0.00     0.210 C 
ATOM     15  C   LIG d   1       5.556  89.495 113.668  0.00  0.00     0.109 C 
ATOM     16  O   LIG d   1       3.379  90.293 113.020  0.00  0.00    -0.276 OA
ATOM     17  H   LIG d   1       4.137  88.477 115.492  0.00  0.00     0.149 HD
ENDBRANCH   6  13
BRANCH   5  18
ATOM     18  N   LIG d   1       2.100  90.994 116.671  0.00  0.00     0.381 N 
ATOM     19  H   LIG d   1       1.919  91.326 117.597  0.00  0.00    -0.090 HD
ATOM     20  H   LIG d   1       1.515  91.505 116.033  0.00  0.00    -0.090 HD
ATOM     21  H   LIG d   1       3.059  91.136 116.441  0.00  0.00    -0.090 HD
ENDBRANCH   5  18
BRANCH   3  22
ATOM     22  C   LIG d   1      -1.276  87.688 117.453  0.00  0.00     0.382 C 
ATOM     23  O   LIG d   1      -2.392  88.249 117.335  0.00  0.00    -0.241 OA
ATOM     24  O   LIG d   1      -1.130  86.783 118.297  0.00  0.00    -0.241 OA
ENDBRANCH   3  22
TORSDOF 7
ENDMDL
MODEL 7
REMARK VINA RESULT:      -5.2      2.625      3.768
REMARK  7 active torsions:
REMARK  status: ('A' for Active; 'I' for Inactive)
REMARK    1  A    between atoms: C_2  and  C_3 
REMARK    2  A    between atoms: C_3  and  O_6 
REMARK    3  A    between atoms: C_3  and  C_4 
REMARK    4  A    between atoms: C_7  and  O_6 
REMARK    5  A    between atoms: C_9  and  C_10 
REMARK    6  A    between atoms: N_15  and  C_14 
REMARK    7  A    between atoms: N_20  and  C_19 
REMARK       I    between atoms: C_22  and  N_20 
ROOT
ATOM      1  C   LIG d   1      -2.323  74.809 116.066  0.00  0.00     0.161 C 
ATOM      2  C   LIG d   1      -2.803  75.712 117.029  0.00  0.00     0.016 C 
ATOM      3  C   LIG d   1      -1.974  76.622 117.724  0.00  0.00     0.038 C 
ATOM      4  C   LIG d   1      -0.623  76.798 117.391  0.00  0.00     0.028 C 
ATOM      5  C   LIG d   1       0.015  75.557 116.776  0.00  0.00    -0.047 C 
ATOM      6  C   LIG d   1      -0.870  75.062 115.610  0.00  0.00     0.091 C 
ENDROOT
BRANCH   1   7
ATOM      7  O   LIG d   1      -3.209  74.790 114.929  0.00  0.00    -0.368 OA
BRANCH   7   8
ATOM      8  C   LIG d   1      -4.048  75.959 114.756  0.00  0.00     0.119 C 
BRANCH   8   9
ATOM      9  C   LIG d   1      -5.418  75.473 114.245  0.00  0.00     0.028 C 
ATOM     10  C   LIG d   1      -6.030  74.389 115.148  0.00  0.00     0.006 C 
ENDBRANCH   8   9
BRANCH   8  11
ATOM     11  C   LIG d   1      -3.506  76.875 113.654  0.00  0.00     0.028 C 
ATOM     12  C   LIG d   1      -2.768  78.103 114.210  0.00  0.00     0.006 C 
ENDBRANCH   8  11
ENDBRANCH   7   8
ENDBRANCH   1   7
BRANCH   6  13
ATOM     13  N   LIG d   1      -0.362  73.803 115.006  0.00  0.00    -0.311 N 
ATOM     14  C   LIG d   1       0.119  73.726 113.767  0.00  0.00     0.210 C 
ATOM     15  C   LIG d   1       0.572  72.327 113.335  0.00  0.00     0.109 C 
ATOM     16  O   LIG d   1       0.244  74.689 112.996  0.00  0.00    -0.276 OA
ATOM     17  H   LIG d   1      -0.398  72.979 115.573  0.00  0.00     0.149 HD
ENDBRANCH   6  13
BRANCH   5  18
ATOM     18  N   LIG d   1       1.380  75.921 116.351  0.00  0.00     0.381 N 
ATOM     19  H   LIG d   1       1.725  76.667 116.923  0.00  0.00    -0.090 HD
ATOM     20  H   LIG d   1       1.350  76.241 115.399  0.00  0.00    -0.090 HD
ATOM     21  H   LIG d   1       1.983  75.131 116.425  0.00  0.00    -0.090 HD
ENDBRANCH   5  18
BRANCH   3  22
ATOM     22  C   LIG d   1      -2.488  77.342 118.792  0.00  0.00     0.382 C 
ATOM     23  O   LIG d   1      -3.593  77.020 119.291  0.00  0.00    -0.241 OA
ATOM     24  O   LIG d   1      -1.881  78.335 119.235  0.00  0.00    -0.241 OA
ENDBRANCH   3  22
TORSDOF 7
ENDMDL
MODEL 8
REMARK VINA RESULT:      -4.7     14.088     16.546
REMARK  7 active torsions:
REMARK  status: ('A' for Active; 'I' for Inactive)
REMARK    1  A    between atoms: C_2  and  C_3 
REMARK    2  A    between atoms: C_3  and  O_6 
REMARK    3  A    between atoms: C_3  and  C_4 
REMARK    4  A    between atoms: C_7  and  O_6 
REMARK    5  A    between atoms: C_9  and  C_10 
REMARK    6  A    between atoms: N_15  and  C_14 
REMARK    7  A    between atoms: N_20  and  C_19 
REMARK       I    between atoms: C_22  and  N_20 
ROOT
ATOM      1  C   LIG d   1      -3.804  90.867 117.368  0.00  0.00     0.161 C 
ATOM      2  C   LIG d   1      -4.871  90.129 116.830  0.00  0.00     0.016 C 
ATOM      3  C   LIG d   1      -6.157  90.672 116.601  0.00  0.00     0.038 C 
ATOM      4  C   LIG d   1      -6.421  92.041 116.756  0.00  0.00     0.028 C 
ATOM      5  C   LIG d   1      -5.514  92.721 117.777  0.00  0.00    -0.047 C 
ATOM      6  C   LIG d   1      -4.043  92.390 117.440  0.00  0.00     0.091 C 
ENDROOT
BRANCH   1   7
ATOM      7  O   LIG d   1      -2.595  90.582 116.637  0.00  0.00    -0.368 OA
BRANCH   7   8
ATOM      8  C   LIG d   1      -1.467  90.128 117.424  0.00  0.00     0.119 C 
BRANCH   8   9
ATOM      9  C   LIG d   1      -0.234  90.937 116.976  0.00  0.00     0.028 C 
ATOM     10  C   LIG d   1       0.790  90.075 116.218  0.00  0.00     0.006 C 
ENDBRANCH   8   9
BRANCH   8  11
ATOM     11  C   LIG d   1      -1.126  88.667 117.117  0.00  0.00     0.028 C 
ATOM     12  C   LIG d   1      -1.714  87.689 118.146  0.00  0.00     0.006 C 
ENDBRANCH   8  11
ENDBRANCH   7   8
ENDBRANCH   1   7
BRANCH   6  13
ATOM     13  N   LIG d   1      -3.093  92.947 118.438  0.00  0.00    -0.311 N 
ATOM     14  C   LIG d   1      -2.119  93.800 118.127  0.00  0.00     0.210 C 
ATOM     15  C   LIG d   1      -1.240  94.236 119.304  0.00  0.00     0.109 C 
ATOM     16  O   LIG d   1      -1.919  94.262 116.994  0.00  0.00    -0.276 OA
ATOM     17  H   LIG d   1      -3.203  92.649 119.388  0.00  0.00     0.149 HD
ENDBRANCH   6  13
BRANCH   5  18
ATOM     18  N   LIG d   1      -5.805  94.167 117.737  0.00  0.00     0.381 N 
ATOM     19  H   LIG d   1      -5.054  94.675 118.161  0.00  0.00    -0.090 HD
ATOM     20  H   LIG d   1      -6.642  94.344 118.263  0.00  0.00    -0.090 HD
ATOM     21  H   LIG d   1      -5.927  94.465 116.794  0.00  0.00    -0.090 HD
ENDBRANCH   5  18
BRANCH   3  22
ATOM     22  C   LIG d   1      -7.204  89.835 116.250  0.00  0.00     0.382 C 
ATOM     23  O   LIG d   1      -7.379  89.518 115.049  0.00  0.00    -0.241 OA
ATOM     24  O   LIG d   1      -8.004  89.427 117.114  0.00  0.00    -0.241 OA
ENDBRANCH   3  22
TORSDOF 7
ENDMDL
MODEL 9
REMARK VINA RESULT:      -4.7      2.011      4.997
REMARK  7 active torsions:
REMARK  status: ('A' for Active; 'I' for Inactive)
REMARK    1  A    between atoms: C_2  and  C_3 
REMARK    2  A    between atoms: C_3  and  O_6 
REMARK    3  A    between atoms: C_3  and  C_4 
REMARK    4  A    between atoms: C_7  and  O_6 
REMARK    5  A    between atoms: C_9  and  C_10 
REMARK    6  A    between atoms: N_15  and  C_14 
REMARK    7  A    between atoms: N_20  and  C_19 
REMARK       I    between atoms: C_22  and  N_20 
ROOT
ATOM      1  C   LIG d   1      -3.701  75.082 116.008  0.00  0.00     0.161 C 
ATOM      2  C   LIG d   1      -4.734  74.417 116.689  0.00  0.00     0.016 C 
ATOM      3  C   LIG d   1      -6.052  74.309 116.189  0.00  0.00     0.038 C 
ATOM      4  C   LIG d   1      -6.391  74.732 114.895  0.00  0.00     0.028 C 
ATOM      5  C   LIG d   1      -5.506  75.860 114.375  0.00  0.00    -0.047 C 
ATOM      6  C   LIG d   1      -4.024  75.454 114.546  0.00  0.00     0.091 C 
ENDROOT
BRANCH   1   7
ATOM      7  O   LIG d   1      -2.492  74.301 116.071  0.00  0.00    -0.368 OA
BRANCH   7   8
ATOM      8  C   LIG d   1      -1.393  74.885 116.814  0.00  0.00     0.119 C 
BRANCH   8   9
ATOM      9  C   LIG d   1      -0.185  74.971 115.862  0.00  0.00     0.028 C 
ATOM     10  C   LIG d   1      -0.174  73.837 114.823  0.00  0.00     0.006 C 
ENDBRANCH   8   9
BRANCH   8  11
ATOM     11  C   LIG d   1      -0.944  73.969 117.957  0.00  0.00     0.028 C 
ATOM     12  C   LIG d   1      -0.691  74.732 119.267  0.00  0.00     0.006 C 
ENDBRANCH   8  11
ENDBRANCH   7   8
ENDBRANCH   1   7
BRANCH   6  13
ATOM     13  N   LIG d   1      -3.090  76.535 114.140  0.00  0.00    -0.311 N 
ATOM     14  C   LIG d   1      -3.189  77.791 114.573  0.00  0.00     0.210 C 
ATOM     15  C   LIG d   1      -2.135  78.752 114.015  0.00  0.00     0.109 C 
ATOM     16  O   LIG d   1      -4.030  78.192 115.391  0.00  0.00    -0.276 OA
ATOM     17  H   LIG d   1      -2.358  76.290 113.502  0.00  0.00     0.149 HD
ENDBRANCH   6  13
BRANCH   5  18
ATOM     18  N   LIG d   1      -5.879  76.108 112.970  0.00  0.00     0.381 N 
ATOM     19  H   LIG d   1      -5.066  76.056 112.389  0.00  0.00    -0.090 HD
ATOM     20  H   LIG d   1      -6.262  77.033 112.894  0.00  0.00    -0.090 HD
ATOM     21  H   LIG d   1      -6.552  75.436 112.672  0.00  0.00    -0.090 HD
ENDBRANCH   5  18
BRANCH   3  22
ATOM     22  C   LIG d   1      -7.057  73.808 117.002  0.00  0.00     0.382 C 
ATOM     23  O   LIG d   1      -6.827  72.830 117.754  0.00  0.00    -0.241 OA
ATOM     24  O   LIG d   1      -8.204  74.293 116.962  0.00  0.00    -0.241 OA
ENDBRANCH   3  22
TORSDOF 7
ENDMDL
