MODEL 1
REMARK VINA RESULT:      -5.6      0.000      0.000
REMARK  7 active torsions:
REMARK  status: ('A' for Active; 'I' for Inactive)
REMARK    1  A    between atoms: C_2  and  C_3 
REMARK    2  A    between atoms: C_3  and  O_6 
REMARK    3  A    between atoms: C_3  and  C_4 
REMARK    4  A    between atoms: C_7  and  O_6 
REMARK    5  A    between atoms: C_9  and  C_10 
REMARK    6  A    between atoms: N_15  and  C_14 
REMARK    7  A    between atoms: N_20  and  C_19 
REMARK       I    between atoms: C_22  and  N_20 
ROOT
ATOM      1  C   LIG d   1      -2.111  74.836 115.657  0.00  0.00     0.161 C 
ATOM      2  C   LIG d   1      -2.642  75.719 116.612  0.00  0.00     0.016 C 
ATOM      3  C   LIG d   1      -1.875  76.714 117.262  0.00  0.00     0.038 C 
ATOM      4  C   LIG d   1      -0.553  76.993 116.889  0.00  0.00     0.028 C 
ATOM      5  C   LIG d   1       0.172  75.794 116.286  0.00  0.00    -0.047 C 
ATOM      6  C   LIG d   1      -0.698  75.198 115.156  0.00  0.00     0.091 C 
ENDROOT
BRANCH   1   7
ATOM      7  O   LIG d   1      -3.021  74.714 114.546  0.00  0.00    -0.368 OA
BRANCH   7   8
ATOM      8  C   LIG d   1      -4.431  74.817 114.862  0.00  0.00     0.119 C 
BRANCH   8   9
ATOM      9  C   LIG d   1      -5.034  73.403 114.753  0.00  0.00     0.028 C 
ATOM     10  C   LIG d   1      -5.605  72.903 116.091  0.00  0.00     0.006 C 
ENDBRANCH   8   9
BRANCH   8  11
ATOM     11  C   LIG d   1      -5.176  75.657 113.821  0.00  0.00     0.028 C 
ATOM     12  C   LIG d   1      -6.497  76.233 114.354  0.00  0.00     0.006 C 
ENDBRANCH   8  11
ENDBRANCH   7   8
ENDBRANCH   1   7
BRANCH   6  13
ATOM     13  N   LIG d   1      -0.100  73.971 114.568  0.00  0.00    -0.311 N 
ATOM     14  C   LIG d   1       0.192  73.844 113.275  0.00  0.00     0.210 C 
ATOM     15  C   LIG d   1       0.783  72.489 112.875  0.00  0.00     0.109 C 
ATOM     16  O   LIG d   1       0.049  74.738 112.427  0.00  0.00    -0.276 OA
ATOM     17  H   LIG d   1       0.078  73.207 115.191  0.00  0.00     0.149 HD
ENDBRANCH   6  13
BRANCH   5  18
ATOM     18  N   LIG d   1       1.490  76.261 115.816  0.00  0.00     0.381 N 
ATOM     19  H   LIG d   1       1.953  75.526 115.319  0.00  0.00    -0.090 HD
ATOM     20  H   LIG d   1       2.052  76.506 116.612  0.00  0.00    -0.090 HD
ATOM     21  H   LIG d   1       1.380  77.054 115.222  0.00  0.00    -0.090 HD
ENDBRANCH   5  18
BRANCH   3  22
ATOM     22  C   LIG d   1      -2.421  77.414 118.327  0.00  0.00     0.382 C 
ATOM     23  O   LIG d   1      -1.674  77.868 119.228  0.00  0.00    -0.241 OA
ATOM     24  O   LIG d   1      -3.654  77.560 118.422  0.00  0.00    -0.241 OA
ENDBRANCH   3  22
TORSDOF 7
ENDMDL
MODEL 2
REMARK VINA RESULT:      -5.5      2.627      4.246
REMARK  7 active torsions:
REMARK  status: ('A' for Active; 'I' for Inactive)
REMARK    1  A    between atoms: C_2  and  C_3 
REMARK    2  A    between atoms: C_3  and  O_6 
REMARK    3  A    between atoms: C_3  and  C_4 
REMARK    4  A    between atoms: C_7  and  O_6 
REMARK    5  A    between atoms: C_9  and  C_10 
REMARK    6  A    between atoms: N_15  and  C_14 
REMARK    7  A    between atoms: N_20  and  C_19 
REMARK       I    between atoms: C_22  and  N_20 
ROOT
ATOM      1  C   LIG d   1      -3.100  76.883 115.301  0.00  0.00     0.161 C 
ATOM      2  C   LIG d   1      -3.459  77.477 114.080  0.00  0.00     0.016 C 
ATOM      3  C   LIG d   1      -2.639  77.448 112.929  0.00  0.00     0.038 C 
ATOM      4  C   LIG d   1      -1.462  76.687 112.876  0.00  0.00     0.028 C 
ATOM      5  C   LIG d   1      -0.809  76.486 114.240  0.00  0.00    -0.047 C 
ATOM      6  C   LIG d   1      -1.870  75.954 115.230  0.00  0.00     0.091 C 
ENDROOT
BRANCH   1   7
ATOM      7  O   LIG d   1      -4.229  76.178 115.853  0.00  0.00    -0.368 OA
BRANCH   7   8
ATOM      8  C   LIG d   1      -4.573  74.925 115.213  0.00  0.00     0.119 C 
BRANCH   8   9
ATOM      9  C   LIG d   1      -5.979  75.088 114.602  0.00  0.00     0.028 C 
ATOM     10  C   LIG d   1      -6.762  76.251 115.233  0.00  0.00     0.006 C 
ENDBRANCH   8   9
BRANCH   8  11
ATOM     11  C   LIG d   1      -4.705  73.794 116.237  0.00  0.00     0.028 C 
ATOM     12  C   LIG d   1      -5.713  72.716 115.808  0.00  0.00     0.006 C 
ENDBRANCH   8  11
ENDBRANCH   7   8
ENDBRANCH   1   7
BRANCH   6  13
ATOM     13  N   LIG d   1      -1.335  75.809 116.610  0.00  0.00    -0.311 N 
ATOM     14  C   LIG d   1      -0.858  74.665 117.095  0.00  0.00     0.210 C 
ATOM     15  C   LIG d   1      -0.375  74.729 118.547  0.00  0.00     0.109 C 
ATOM     16  O   LIG d   1      -0.758  73.610 116.450  0.00  0.00    -0.276 OA
ATOM     17  H   LIG d   1      -1.349  76.624 117.192  0.00  0.00     0.149 HD
ENDBRANCH   6  13
BRANCH   5  18
ATOM     18  N   LIG d   1       0.327  75.563 114.059  0.00  0.00     0.381 N 
ATOM     19  H   LIG d   1       0.290  75.155 113.146  0.00  0.00    -0.090 HD
ATOM     20  H   LIG d   1       0.259  74.826 114.737  0.00  0.00    -0.090 HD
ATOM     21  H   LIG d   1       1.187  76.054 114.176  0.00  0.00    -0.090 HD
ENDBRANCH   5  18
BRANCH   3  22
ATOM     22  C   LIG d   1      -2.975  78.218 111.826  0.00  0.00     0.382 C 
ATOM     23  O   LIG d   1      -3.891  77.844 111.055  0.00  0.00    -0.241 OA
ATOM     24  O   LIG d   1      -2.343  79.260 111.567  0.00  0.00    -0.241 OA
ENDBRANCH   3  22
TORSDOF 7
ENDMDL
MODEL 3
REMARK VINA RESULT:      -5.5      2.677      3.470
REMARK  7 active torsions:
REMARK  status: ('A' for Active; 'I' for Inactive)
REMARK    1  A    between atoms: C_2  and  C_3 
REMARK    2  A    between atoms: C_3  and  O_6 
REMARK    3  A    between atoms: C_3  and  C_4 
REMARK    4  A    between atoms: C_7  and  O_6 
REMARK    5  A    between atoms: C_9  and  C_10 
REMARK    6  A    between atoms: N_15  and  C_14 
REMARK    7  A    between atoms: N_20  and  C_19 
REMARK       I    between atoms: C_22  and  N_20 
ROOT
ATOM      1  C   LIG d   1      -1.517  75.250 114.794  0.00  0.00     0.161 C 
ATOM      2  C   LIG d   1      -1.210  74.376 115.850  0.00  0.00     0.016 C 
ATOM      3  C   LIG d   1      -0.425  74.748 116.966  0.00  0.00     0.038 C 
ATOM      4  C   LIG d   1      -0.017  76.074 117.176  0.00  0.00     0.028 C 
ATOM      5  C   LIG d   1       0.125  76.875 115.886  0.00  0.00    -0.047 C 
ATOM      6  C   LIG d   1      -1.174  76.731 115.060  0.00  0.00     0.091 C 
ENDROOT
BRANCH   1   7
ATOM      7  O   LIG d   1      -2.906  75.114 114.436  0.00  0.00    -0.368 OA
BRANCH   7   8
ATOM      8  C   LIG d   1      -3.802  74.707 115.499  0.00  0.00     0.119 C 
BRANCH   8   9
ATOM      9  C   LIG d   1      -4.894  73.820 114.870  0.00  0.00     0.028 C 
ATOM     10  C   LIG d   1      -5.626  72.960 115.915  0.00  0.00     0.006 C 
ENDBRANCH   8   9
BRANCH   8  11
ATOM     11  C   LIG d   1      -4.547  75.907 116.091  0.00  0.00     0.028 C 
ATOM     12  C   LIG d   1      -3.912  76.418 117.394  0.00  0.00     0.006 C 
ENDBRANCH   8  11
ENDBRANCH   7   8
ENDBRANCH   1   7
BRANCH   6  13
ATOM     13  N   LIG d   1      -1.088  77.416 113.744  0.00  0.00    -0.311 N 
ATOM     14  C   LIG d   1      -1.561  78.641 113.523  0.00  0.00     0.210 C 
ATOM     15  C   LIG d   1      -1.387  79.152 112.090  0.00  0.00     0.109 C 
ATOM     16  O   LIG d   1      -2.079  79.365 114.386  0.00  0.00    -0.276 OA
ATOM     17  H   LIG d   1      -0.654  76.912 112.995  0.00  0.00     0.149 HD
ENDBRANCH   6  13
BRANCH   5  18
ATOM     18  N   LIG d   1       0.420  78.271 116.260  0.00  0.00     0.381 N 
ATOM     19  H   LIG d   1       0.826  78.751 115.482  0.00  0.00    -0.090 HD
ATOM     20  H   LIG d   1       1.085  78.273 117.013  0.00  0.00    -0.090 HD
ATOM     21  H   LIG d   1      -0.416  78.733 116.544  0.00  0.00    -0.090 HD
ENDBRANCH   5  18
BRANCH   3  22
ATOM     22  C   LIG d   1      -0.007  73.780 117.866  0.00  0.00     0.382 C 
ATOM     23  O   LIG d   1       0.447  74.118 118.985  0.00  0.00    -0.241 OA
ATOM     24  O   LIG d   1      -0.036  72.574 117.555  0.00  0.00    -0.241 OA
ENDBRANCH   3  22
TORSDOF 7
ENDMDL
MODEL 4
REMARK VINA RESULT:      -5.4     11.212     13.080
REMARK  7 active torsions:
REMARK  status: ('A' for Active; 'I' for Inactive)
REMARK    1  A    between atoms: C_2  and  C_3 
REMARK    2  A    between atoms: C_3  and  O_6 
REMARK    3  A    between atoms: C_3  and  C_4 
REMARK    4  A    between atoms: C_7  and  O_6 
REMARK    5  A    between atoms: C_9  and  C_10 
REMARK    6  A    between atoms: N_15  and  C_14 
REMARK    7  A    between atoms: N_20  and  C_19 
REMARK       I    between atoms: C_22  and  N_20 
ROOT
ATOM      1  C   LIG d   1       2.539  86.864 114.360  0.00  0.00     0.161 C 
ATOM      2  C   LIG d   1       3.241  87.967 113.845  0.00  0.00     0.016 C 
ATOM      3  C   LIG d   1       4.577  88.270 114.193  0.00  0.00     0.038 C 
ATOM      4  C   LIG d   1       5.357  87.400 114.969  0.00  0.00     0.028 C 
ATOM      5  C   LIG d   1       4.536  86.536 115.920  0.00  0.00    -0.047 C 
ATOM      6  C   LIG d   1       3.409  85.842 115.121  0.00  0.00     0.091 C 
ENDROOT
BRANCH   1   7
ATOM      7  O   LIG d   1       1.810  86.212 113.301  0.00  0.00    -0.368 OA
BRANCH   7   8
ATOM      8  C   LIG d   1       2.065  86.695 111.960  0.00  0.00     0.119 C 
BRANCH   8   9
ATOM      9  C   LIG d   1       0.710  87.107 111.351  0.00  0.00     0.028 C 
ATOM     10  C   LIG d   1      -0.448  86.224 111.846  0.00  0.00     0.006 C 
ENDBRANCH   8   9
BRANCH   8  11
ATOM     11  C   LIG d   1       2.592  85.577 111.055  0.00  0.00     0.028 C 
ATOM     12  C   LIG d   1       4.098  85.327 111.234  0.00  0.00     0.006 C 
ENDBRANCH   8  11
ENDBRANCH   7   8
ENDBRANCH   1   7
BRANCH   6  13
ATOM     13  N   LIG d   1       2.507  85.043 115.990  0.00  0.00    -0.311 N 
ATOM     14  C   LIG d   1       2.709  83.757 116.271  0.00  0.00     0.210 C 
ATOM     15  C   LIG d   1       1.648  83.117 117.171  0.00  0.00     0.109 C 
ATOM     16  O   LIG d   1       3.685  83.094 115.887  0.00  0.00    -0.276 OA
ATOM     17  H   LIG d   1       1.707  85.511 116.370  0.00  0.00     0.149 HD
ENDBRANCH   6  13
BRANCH   5  18
ATOM     18  N   LIG d   1       5.458  85.583 116.565  0.00  0.00     0.381 N 
ATOM     19  H   LIG d   1       5.885  85.001 115.872  0.00  0.00    -0.090 HD
ATOM     20  H   LIG d   1       4.935  84.996 117.190  0.00  0.00    -0.090 HD
ATOM     21  H   LIG d   1       6.160  86.077 117.072  0.00  0.00    -0.090 HD
ENDBRANCH   5  18
BRANCH   3  22
ATOM     22  C   LIG d   1       5.134  89.477 113.796  0.00  0.00     0.382 C 
ATOM     23  O   LIG d   1       4.736  90.550 114.309  0.00  0.00    -0.241 OA
ATOM     24  O   LIG d   1       5.998  89.509 112.899  0.00  0.00    -0.241 OA
ENDBRANCH   3  22
TORSDOF 7
ENDMDL
MODEL 5
REMARK VINA RESULT:      -5.2     10.358     12.206
REMARK  7 active torsions:
REMARK  status: ('A' for Active; 'I' for Inactive)
REMARK    1  A    between atoms: C_2  and  C_3 
REMARK    2  A    between atoms: C_3  and  O_6 
REMARK    3  A    between atoms: C_3  and  C_4 
REMARK    4  A    between atoms: C_7  and  O_6 
REMARK    5  A    between atoms: C_9  and  C_10 
REMARK    6  A    between atoms: N_15  and  C_14 
REMARK    7  A    between atoms: N_20  and  C_19 
REMARK       I    between atoms: C_22  and  N_20 
ROOT
ATOM      1  C   LIG d   1       3.434  84.988 113.023  0.00  0.00     0.161 C 
ATOM      2  C   LIG d   1       4.185  86.148 113.277  0.00  0.00     0.016 C 
ATOM      3  C   LIG d   1       3.770  87.444 112.892  0.00  0.00     0.038 C 
ATOM      4  C   LIG d   1       2.496  87.686 112.357  0.00  0.00     0.028 C 
ATOM      5  C   LIG d   1       1.910  86.486 111.621  0.00  0.00    -0.047 C 
ATOM      6  C   LIG d   1       1.991  85.245 112.540  0.00  0.00     0.091 C 
ENDROOT
BRANCH   1   7
ATOM      7  O   LIG d   1       3.428  84.144 114.191  0.00  0.00    -0.368 OA
BRANCH   7   8
ATOM      8  C   LIG d   1       2.246  84.219 115.025  0.00  0.00     0.119 C 
BRANCH   8   9
ATOM      9  C   LIG d   1       2.562  85.176 116.191  0.00  0.00     0.028 C 
ATOM     10  C   LIG d   1       1.777  86.495 116.095  0.00  0.00     0.006 C 
ENDBRANCH   8   9
BRANCH   8  11
ATOM     11  C   LIG d   1       1.941  82.869 115.681  0.00  0.00     0.028 C 
ATOM     12  C   LIG d   1       1.890  82.950 117.215  0.00  0.00     0.006 C 
ENDBRANCH   8  11
ENDBRANCH   7   8
ENDBRANCH   1   7
BRANCH   6  13
ATOM     13  N   LIG d   1       1.515  84.009 111.866  0.00  0.00    -0.311 N 
ATOM     14  C   LIG d   1       0.263  83.562 111.953  0.00  0.00     0.210 C 
ATOM     15  C   LIG d   1      -0.011  82.258 111.198  0.00  0.00     0.109 C 
ATOM     16  O   LIG d   1      -0.653  84.138 112.558  0.00  0.00    -0.276 OA
ATOM     17  H   LIG d   1       2.186  83.496 111.328  0.00  0.00     0.149 HD
ENDBRANCH   6  13
BRANCH   5  18
ATOM     18  N   LIG d   1       0.528  86.831 111.236  0.00  0.00     0.381 N 
ATOM     19  H   LIG d   1      -0.096  86.624 111.990  0.00  0.00    -0.090 HD
ATOM     20  H   LIG d   1       0.262  86.272 110.444  0.00  0.00    -0.090 HD
ATOM     21  H   LIG d   1       0.470  87.798 111.004  0.00  0.00    -0.090 HD
ENDBRANCH   5  18
BRANCH   3  22
ATOM     22  C   LIG d   1       4.651  88.509 113.005  0.00  0.00     0.382 C 
ATOM     23  O   LIG d   1       4.224  89.643 113.329  0.00  0.00    -0.241 OA
ATOM     24  O   LIG d   1       5.859  88.360 112.743  0.00  0.00    -0.241 OA
ENDBRANCH   3  22
TORSDOF 7
ENDMDL
MODEL 6
REMARK VINA RESULT:      -5.0     11.880     14.130
REMARK  7 active torsions:
REMARK  status: ('A' for Active; 'I' for Inactive)
REMARK    1  A    between atoms: C_2  and  C_3 
REMARK    2  A    between atoms: C_3  and  O_6 
REMARK    3  A    between atoms: C_3  and  C_4 
REMARK    4  A    between atoms: C_7  and  O_6 
REMARK    5  A    between atoms: C_9  and  C_10 
REMARK    6  A    between atoms: N_15  and  C_14 
REMARK    7  A    between atoms: N_20  and  C_19 
REMARK       I    between atoms: C_22  and  N_20 
ROOT
ATOM      1  C   LIG d   1       3.603  87.647 115.399  0.00  0.00     0.161 C 
ATOM      2  C   LIG d   1       2.815  87.298 114.290  0.00  0.00     0.016 C 
ATOM      3  C   LIG d   1       3.267  87.390 112.954  0.00  0.00     0.038 C 
ATOM      4  C   LIG d   1       4.600  87.697 112.642  0.00  0.00     0.028 C 
ATOM      5  C   LIG d   1       5.290  88.546 113.704  0.00  0.00    -0.047 C 
ATOM      6  C   LIG d   1       5.096  87.878 115.084  0.00  0.00     0.091 C 
ENDROOT
BRANCH   1   7
ATOM      7  O   LIG d   1       3.457  86.655 116.434  0.00  0.00    -0.368 OA
BRANCH   7   8
ATOM      8  C   LIG d   1       2.194  85.946 116.464  0.00  0.00     0.119 C 
BRANCH   8   9
ATOM      9  C   LIG d   1       1.385  86.492 117.657  0.00  0.00     0.028 C 
ATOM     10  C   LIG d   1       0.489  87.679 117.264  0.00  0.00     0.006 C 
ENDBRANCH   8   9
BRANCH   8  11
ATOM     11  C   LIG d   1       2.397  84.457 116.760  0.00  0.00     0.028 C 
ATOM     12  C   LIG d   1       1.556  83.965 117.948  0.00  0.00     0.006 C 
ENDBRANCH   8  11
ENDBRANCH   7   8
ENDBRANCH   1   7
BRANCH   6  13
ATOM     13  N   LIG d   1       5.669  88.688 116.191  0.00  0.00    -0.311 N 
ATOM     14  C   LIG d   1       6.904  88.518 116.660  0.00  0.00     0.210 C 
ATOM     15  C   LIG d   1       7.289  89.445 117.817  0.00  0.00     0.109 C 
ATOM     16  O   LIG d   1       7.729  87.711 116.205  0.00  0.00    -0.276 OA
ATOM     17  H   LIG d   1       5.079  89.387 116.597  0.00  0.00     0.149 HD
ENDBRANCH   6  13
BRANCH   5  18
ATOM     18  N   LIG d   1       6.709  88.675 113.318  0.00  0.00     0.381 N 
ATOM     19  H   LIG d   1       6.775  88.936 112.355  0.00  0.00    -0.090 HD
ATOM     20  H   LIG d   1       7.159  87.784 113.436  0.00  0.00    -0.090 HD
ATOM     21  H   LIG d   1       7.156  89.359 113.887  0.00  0.00    -0.090 HD
ENDBRANCH   5  18
BRANCH   3  22
ATOM     22  C   LIG d   1       2.370  87.212 111.911  0.00  0.00     0.382 C 
ATOM     23  O   LIG d   1       2.332  86.119 111.297  0.00  0.00    -0.241 OA
ATOM     24  O   LIG d   1       1.631  88.147 111.548  0.00  0.00    -0.241 OA
ENDBRANCH   3  22
TORSDOF 7
ENDMDL
MODEL 7
REMARK VINA RESULT:      -5.0     12.463     14.289
REMARK  7 active torsions:
REMARK  status: ('A' for Active; 'I' for Inactive)
REMARK    1  A    between atoms: C_2  and  C_3 
REMARK    2  A    between atoms: C_3  and  O_6 
REMARK    3  A    between atoms: C_3  and  C_4 
REMARK    4  A    between atoms: C_7  and  O_6 
REMARK    5  A    between atoms: C_9  and  C_10 
REMARK    6  A    between atoms: N_15  and  C_14 
REMARK    7  A    between atoms: N_20  and  C_19 
REMARK       I    between atoms: C_22  and  N_20 
ROOT
ATOM      1  C   LIG d   1       3.250  88.123 115.223  0.00  0.00     0.161 C 
ATOM      2  C   LIG d   1       3.323  89.163 116.163  0.00  0.00     0.016 C 
ATOM      3  C   LIG d   1       4.247  90.229 116.074  0.00  0.00     0.038 C 
ATOM      4  C   LIG d   1       5.065  90.409 114.949  0.00  0.00     0.028 C 
ATOM      5  C   LIG d   1       5.380  89.109 114.215  0.00  0.00    -0.047 C 
ATOM      6  C   LIG d   1       4.058  88.361 113.930  0.00  0.00     0.091 C 
ENDROOT
BRANCH   1   7
ATOM      7  O   LIG d   1       1.871  87.846 114.907  0.00  0.00    -0.368 OA
BRANCH   7   8
ATOM      8  C   LIG d   1       1.281  86.703 115.574  0.00  0.00     0.119 C 
BRANCH   8   9
ATOM      9  C   LIG d   1       0.917  87.139 117.006  0.00  0.00     0.028 C 
ATOM     10  C   LIG d   1      -0.200  88.196 117.032  0.00  0.00     0.006 C 
ENDBRANCH   8   9
BRANCH   8  11
ATOM     11  C   LIG d   1       2.298  85.570 115.741  0.00  0.00     0.028 C 
ATOM     12  C   LIG d   1       2.095  84.774 117.040  0.00  0.00     0.006 C 
ENDBRANCH   8  11
ENDBRANCH   7   8
ENDBRANCH   1   7
BRANCH   6  13
ATOM     13  N   LIG d   1       4.282  87.039 113.290  0.00  0.00    -0.311 N 
ATOM     14  C   LIG d   1       3.666  86.650 112.175  0.00  0.00     0.210 C 
ATOM     15  C   LIG d   1       4.026  85.241 111.694  0.00  0.00     0.109 C 
ATOM     16  O   LIG d   1       2.880  87.352 111.520  0.00  0.00    -0.276 OA
ATOM     17  H   LIG d   1       4.928  86.418 113.738  0.00  0.00     0.149 HD
ENDBRANCH   6  13
BRANCH   5  18
ATOM     18  N   LIG d   1       6.123  89.458 112.989  0.00  0.00     0.381 N 
ATOM     19  H   LIG d   1       6.411  88.623 112.519  0.00  0.00    -0.090 HD
ATOM     20  H   LIG d   1       6.946  89.976 113.244  0.00  0.00    -0.090 HD
ATOM     21  H   LIG d   1       5.549  90.006 112.387  0.00  0.00    -0.090 HD
ENDBRANCH   5  18
BRANCH   3  22
ATOM     22  C   LIG d   1       4.388  91.108 117.137  0.00  0.00     0.382 C 
ATOM     23  O   LIG d   1       4.112  92.323 116.987  0.00  0.00    -0.241 OA
ATOM     24  O   LIG d   1       4.829  90.710 118.232  0.00  0.00    -0.241 OA
ENDBRANCH   3  22
TORSDOF 7
ENDMDL
MODEL 8
REMARK VINA RESULT:      -5.0      9.835     12.078
REMARK  7 active torsions:
REMARK  status: ('A' for Active; 'I' for Inactive)
REMARK    1  A    between atoms: C_2  and  C_3 
REMARK    2  A    between atoms: C_3  and  O_6 
REMARK    3  A    between atoms: C_3  and  C_4 
REMARK    4  A    between atoms: C_7  and  O_6 
REMARK    5  A    between atoms: C_9  and  C_10 
REMARK    6  A    between atoms: N_15  and  C_14 
REMARK    7  A    between atoms: N_20  and  C_19 
REMARK       I    between atoms: C_22  and  N_20 
ROOT
ATOM      1  C   LIG d   1       2.062  84.658 113.846  0.00  0.00     0.161 C 
ATOM      2  C   LIG d   1       1.251  83.620 113.358  0.00  0.00     0.016 C 
ATOM      3  C   LIG d   1       0.411  83.754 112.228  0.00  0.00     0.038 C 
ATOM      4  C   LIG d   1       0.440  84.896 111.414  0.00  0.00     0.028 C 
ATOM      5  C   LIG d   1       0.868  86.157 112.156  0.00  0.00    -0.047 C 
ATOM      6  C   LIG d   1       2.190  85.875 112.905  0.00  0.00     0.091 C 
ENDROOT
BRANCH   1   7
ATOM      7  O   LIG d   1       3.366  84.143 114.180  0.00  0.00    -0.368 OA
BRANCH   7   8
ATOM      8  C   LIG d   1       3.706  84.135 115.588  0.00  0.00     0.119 C 
BRANCH   8   9
ATOM      9  C   LIG d   1       2.466  84.615 116.367  0.00  0.00     0.028 C 
ATOM     10  C   LIG d   1       1.900  83.528 117.296  0.00  0.00     0.006 C 
ENDBRANCH   8   9
BRANCH   8  11
ATOM     11  C   LIG d   1       4.803  85.156 115.902  0.00  0.00     0.028 C 
ATOM     12  C   LIG d   1       4.332  86.259 116.863  0.00  0.00     0.006 C 
ENDBRANCH   8  11
ENDBRANCH   7   8
ENDBRANCH   1   7
BRANCH   6  13
ATOM     13  N   LIG d   1       2.636  87.032 113.725  0.00  0.00    -0.311 N 
ATOM     14  C   LIG d   1       3.541  87.917 113.312  0.00  0.00     0.210 C 
ATOM     15  C   LIG d   1       3.872  89.022 114.321  0.00  0.00     0.109 C 
ATOM     16  O   LIG d   1       4.077  87.911 112.194  0.00  0.00    -0.276 OA
ATOM     17  H   LIG d   1       2.228  87.130 114.634  0.00  0.00     0.149 HD
ENDBRANCH   6  13
BRANCH   5  18
ATOM     18  N   LIG d   1       0.988  87.240 111.161  0.00  0.00     0.381 N 
ATOM     19  H   LIG d   1       1.498  88.006 111.553  0.00  0.00    -0.090 HD
ATOM     20  H   LIG d   1       0.067  87.564 110.921  0.00  0.00    -0.090 HD
ATOM     21  H   LIG d   1       1.453  86.905 110.346  0.00  0.00    -0.090 HD
ENDBRANCH   5  18
BRANCH   3  22
ATOM     22  C   LIG d   1      -0.499  82.752 111.926  0.00  0.00     0.382 C 
ATOM     23  O   LIG d   1      -0.221  81.893 111.055  0.00  0.00    -0.241 OA
ATOM     24  O   LIG d   1      -1.614  82.723 112.482  0.00  0.00    -0.241 OA
ENDBRANCH   3  22
TORSDOF 7
ENDMDL
MODEL 9
REMARK VINA RESULT:      -5.0      2.979      5.360
REMARK  7 active torsions:
REMARK  status: ('A' for Active; 'I' for Inactive)
REMARK    1  A    between atoms: C_2  and  C_3 
REMARK    2  A    between atoms: C_3  and  O_6 
REMARK    3  A    between atoms: C_3  and  C_4 
REMARK    4  A    between atoms: C_7  and  O_6 
REMARK    5  A    between atoms: C_9  and  C_10 
REMARK    6  A    between atoms: N_15  and  C_14 
REMARK    7  A    between atoms: N_20  and  C_19 
REMARK       I    between atoms: C_22  and  N_20 
ROOT
ATOM      1  C   LIG d   1      -2.446  75.256 115.290  0.00  0.00     0.161 C 
ATOM      2  C   LIG d   1      -1.810  76.427 114.845  0.00  0.00     0.016 C 
ATOM      3  C   LIG d   1      -2.445  77.396 114.035  0.00  0.00     0.038 C 
ATOM      4  C   LIG d   1      -3.814  77.333 113.737  0.00  0.00     0.028 C 
ATOM      5  C   LIG d   1      -4.370  75.913 113.743  0.00  0.00    -0.047 C 
ATOM      6  C   LIG d   1      -3.972  75.224 115.068  0.00  0.00     0.091 C 
ENDROOT
BRANCH   1   7
ATOM      7  O   LIG d   1      -2.137  75.030 116.680  0.00  0.00    -0.368 OA
BRANCH   7   8
ATOM      8  C   LIG d   1      -0.730  75.017 117.026  0.00  0.00     0.119 C 
BRANCH   8   9
ATOM      9  C   LIG d   1      -0.313  73.545 117.211  0.00  0.00     0.028 C 
ATOM     10  C   LIG d   1       0.327  73.285 118.585  0.00  0.00     0.006 C 
ENDBRANCH   8   9
BRANCH   8  11
ATOM     11  C   LIG d   1      -0.484  75.682 118.383  0.00  0.00     0.028 C 
ATOM     12  C   LIG d   1      -1.738  76.368 118.947  0.00  0.00     0.006 C 
ENDBRANCH   8  11
ENDBRANCH   7   8
ENDBRANCH   1   7
BRANCH   6  13
ATOM     13  N   LIG d   1      -4.405  73.803 115.120  0.00  0.00    -0.311 N 
ATOM     14  C   LIG d   1      -5.590  73.414 115.588  0.00  0.00     0.210 C 
ATOM     15  C   LIG d   1      -5.826  71.900 115.571  0.00  0.00     0.109 C 
ATOM     16  O   LIG d   1      -6.479  74.180 115.987  0.00  0.00    -0.276 OA
ATOM     17  H   LIG d   1      -3.756  73.116 114.788  0.00  0.00     0.149 HD
ENDBRANCH   6  13
BRANCH   5  18
ATOM     18  N   LIG d   1      -5.830  76.005 113.555  0.00  0.00     0.381 N 
ATOM     19  H   LIG d   1      -6.169  76.861 113.948  0.00  0.00    -0.090 HD
ATOM     20  H   LIG d   1      -6.269  75.241 114.037  0.00  0.00    -0.090 HD
ATOM     21  H   LIG d   1      -6.052  75.967 112.584  0.00  0.00    -0.090 HD
ENDBRANCH   5  18
BRANCH   3  22
ATOM     22  C   LIG d   1      -1.697  78.423 113.479  0.00  0.00     0.382 C 
ATOM     23  O   LIG d   1      -1.266  79.350 114.207  0.00  0.00    -0.241 OA
ATOM     24  O   LIG d   1      -1.485  78.458 112.252  0.00  0.00    -0.241 OA
ENDBRANCH   3  22
TORSDOF 7
ENDMDL
