MODEL 1
REMARK VINA RESULT:      -5.7      0.000      0.000
REMARK  7 active torsions:
REMARK  status: ('A' for Active; 'I' for Inactive)
REMARK    1  A    between atoms: C_2  and  C_3 
REMARK    2  A    between atoms: C_3  and  O_6 
REMARK    3  A    between atoms: C_3  and  C_4 
REMARK    4  A    between atoms: C_7  and  O_6 
REMARK    5  A    between atoms: C_9  and  C_10 
REMARK    6  A    between atoms: N_15  and  C_14 
REMARK    7  A    between atoms: N_20  and  C_19 
REMARK       I    between atoms: C_22  and  N_20 
ROOT
ATOM      1  C   LIG d   1      -7.252  75.656 116.816  0.00  0.00     0.161 C 
ATOM      2  C   LIG d   1      -8.087  74.544 117.011  0.00  0.00     0.016 C 
ATOM      3  C   LIG d   1      -7.638  73.207 116.916  0.00  0.00     0.038 C 
ATOM      4  C   LIG d   1      -6.279  72.890 116.768  0.00  0.00     0.028 C 
ATOM      5  C   LIG d   1      -5.476  73.979 116.065  0.00  0.00    -0.047 C 
ATOM      6  C   LIG d   1      -5.744  75.331 116.764  0.00  0.00     0.091 C 
ENDROOT
BRANCH   1   7
ATOM      7  O   LIG d   1      -7.516  76.648 117.828  0.00  0.00    -0.368 OA
BRANCH   7   8
ATOM      8  C   LIG d   1      -8.314  77.784 117.414  0.00  0.00     0.119 C 
BRANCH   8   9
ATOM      9  C   LIG d   1      -7.390  79.017 117.393  0.00  0.00     0.028 C 
ATOM     10  C   LIG d   1      -8.143  80.321 117.706  0.00  0.00     0.006 C 
ENDBRANCH   8   9
BRANCH   8  11
ATOM     11  C   LIG d   1      -9.399  78.108 118.445  0.00  0.00     0.028 C 
ATOM     12  C   LIG d   1     -10.421  76.973 118.612  0.00  0.00     0.006 C 
ENDBRANCH   8  11
ENDBRANCH   7   8
ENDBRANCH   1   7
BRANCH   6  13
ATOM     13  N   LIG d   1      -5.063  76.465 116.087  0.00  0.00    -0.311 N 
ATOM     14  C   LIG d   1      -4.174  77.252 116.690  0.00  0.00     0.210 C 
ATOM     15  C   LIG d   1      -3.606  78.374 115.815  0.00  0.00     0.109 C 
ATOM     16  O   LIG d   1      -3.777  77.108 117.856  0.00  0.00    -0.276 OA
ATOM     17  H   LIG d   1      -5.302  76.634 115.129  0.00  0.00     0.149 HD
ENDBRANCH   6  13
BRANCH   5  18
ATOM     18  N   LIG d   1      -4.057  73.580 116.101  0.00  0.00     0.381 N 
ATOM     19  H   LIG d   1      -3.476  74.382 115.956  0.00  0.00    -0.090 HD
ATOM     20  H   LIG d   1      -3.884  72.927 115.358  0.00  0.00    -0.090 HD
ATOM     21  H   LIG d   1      -3.843  73.160 116.979  0.00  0.00    -0.090 HD
ENDBRANCH   5  18
BRANCH   3  22
ATOM     22  C   LIG d   1      -8.558  72.170 116.930  0.00  0.00     0.382 C 
ATOM     23  O   LIG d   1      -8.184  70.997 116.687  0.00  0.00    -0.241 OA
ATOM     24  O   LIG d   1      -9.765  72.398 117.137  0.00  0.00    -0.241 OA
ENDBRANCH   3  22
TORSDOF 7
ENDMDL
MODEL 2
REMARK VINA RESULT:      -5.6      2.352      5.467
REMARK  7 active torsions:
REMARK  status: ('A' for Active; 'I' for Inactive)
REMARK    1  A    between atoms: C_2  and  C_3 
REMARK    2  A    between atoms: C_3  and  O_6 
REMARK    3  A    between atoms: C_3  and  C_4 
REMARK    4  A    between atoms: C_7  and  O_6 
REMARK    5  A    between atoms: C_9  and  C_10 
REMARK    6  A    between atoms: N_15  and  C_14 
REMARK    7  A    between atoms: N_20  and  C_19 
REMARK       I    between atoms: C_22  and  N_20 
ROOT
ATOM      1  C   LIG d   1      -6.301  77.174 117.016  0.00  0.00     0.161 C 
ATOM      2  C   LIG d   1      -6.998  78.340 117.373  0.00  0.00     0.016 C 
ATOM      3  C   LIG d   1      -6.471  79.642 117.211  0.00  0.00     0.038 C 
ATOM      4  C   LIG d   1      -5.262  79.874 116.538  0.00  0.00     0.028 C 
ATOM      5  C   LIG d   1      -4.292  78.700 116.613  0.00  0.00    -0.047 C 
ATOM      6  C   LIG d   1      -5.028  77.412 116.178  0.00  0.00     0.091 C 
ENDROOT
BRANCH   1   7
ATOM      7  O   LIG d   1      -7.187  76.264 116.334  0.00  0.00    -0.368 OA
BRANCH   7   8
ATOM      8  C   LIG d   1      -7.764  75.209 117.142  0.00  0.00     0.119 C 
BRANCH   8   9
ATOM      9  C   LIG d   1      -7.121  73.882 116.698  0.00  0.00     0.028 C 
ATOM     10  C   LIG d   1      -6.015  73.415 117.658  0.00  0.00     0.006 C 
ENDBRANCH   8   9
BRANCH   8  11
ATOM     11  C   LIG d   1      -9.261  75.049 116.862  0.00  0.00     0.028 C 
ATOM     12  C   LIG d   1      -9.746  73.600 117.029  0.00  0.00     0.006 C 
ENDBRANCH   8  11
ENDBRANCH   7   8
ENDBRANCH   1   7
BRANCH   6  13
ATOM     13  N   LIG d   1      -4.174  76.202 116.303  0.00  0.00    -0.311 N 
ATOM     14  C   LIG d   1      -3.874  75.407 115.277  0.00  0.00     0.210 C 
ATOM     15  C   LIG d   1      -2.996  74.202 115.627  0.00  0.00     0.109 C 
ATOM     16  O   LIG d   1      -4.225  75.604 114.104  0.00  0.00    -0.276 OA
ATOM     17  H   LIG d   1      -3.821  75.984 117.214  0.00  0.00     0.149 HD
ENDBRANCH   6  13
BRANCH   5  18
ATOM     18  N   LIG d   1      -3.135  79.022 115.757  0.00  0.00     0.381 N 
ATOM     19  H   LIG d   1      -2.888  79.985 115.869  0.00  0.00    -0.090 HD
ATOM     20  H   LIG d   1      -3.389  78.872 114.797  0.00  0.00    -0.090 HD
ATOM     21  H   LIG d   1      -2.361  78.443 115.997  0.00  0.00    -0.090 HD
ENDBRANCH   5  18
BRANCH   3  22
ATOM     22  C   LIG d   1      -7.136  80.726 117.763  0.00  0.00     0.382 C 
ATOM     23  O   LIG d   1      -7.846  81.462 117.035  0.00  0.00    -0.241 OA
ATOM     24  O   LIG d   1      -6.999  81.005 118.969  0.00  0.00    -0.241 OA
ENDBRANCH   3  22
TORSDOF 7
ENDMDL
MODEL 3
REMARK VINA RESULT:      -5.6      2.942      5.265
REMARK  7 active torsions:
REMARK  status: ('A' for Active; 'I' for Inactive)
REMARK    1  A    between atoms: C_2  and  C_3 
REMARK    2  A    between atoms: C_3  and  O_6 
REMARK    3  A    between atoms: C_3  and  C_4 
REMARK    4  A    between atoms: C_7  and  O_6 
REMARK    5  A    between atoms: C_9  and  C_10 
REMARK    6  A    between atoms: N_15  and  C_14 
REMARK    7  A    between atoms: N_20  and  C_19 
REMARK       I    between atoms: C_22  and  N_20 
ROOT
ATOM      1  C   LIG d   1      -3.510  74.631 115.855  0.00  0.00     0.161 C 
ATOM      2  C   LIG d   1      -4.189  73.423 115.630  0.00  0.00     0.016 C 
ATOM      3  C   LIG d   1      -5.578  73.260 115.838  0.00  0.00     0.038 C 
ATOM      4  C   LIG d   1      -6.414  74.344 116.145  0.00  0.00     0.028 C 
ATOM      5  C   LIG d   1      -5.696  75.475 116.874  0.00  0.00    -0.047 C 
ATOM      6  C   LIG d   1      -4.423  75.854 116.083  0.00  0.00     0.091 C 
ENDROOT
BRANCH   1   7
ATOM      7  O   LIG d   1      -2.593  74.886 114.773  0.00  0.00    -0.368 OA
BRANCH   7   8
ATOM      8  C   LIG d   1      -1.183  74.795 115.097  0.00  0.00     0.119 C 
BRANCH   8   9
ATOM      9  C   LIG d   1      -1.074  74.376 116.576  0.00  0.00     0.028 C 
ATOM     10  C   LIG d   1      -0.234  75.362 117.405  0.00  0.00     0.006 C 
ENDBRANCH   8   9
BRANCH   8  11
ATOM     11  C   LIG d   1      -0.503  76.165 115.013  0.00  0.00     0.028 C 
ATOM     12  C   LIG d   1      -1.224  77.131 114.059  0.00  0.00     0.006 C 
ENDBRANCH   8  11
ENDBRANCH   7   8
ENDBRANCH   1   7
BRANCH   6  13
ATOM     13  N   LIG d   1      -3.617  76.896 116.772  0.00  0.00    -0.311 N 
ATOM     14  C   LIG d   1      -3.714  78.196 116.500  0.00  0.00     0.210 C 
ATOM     15  C   LIG d   1      -2.778  79.097 117.311  0.00  0.00     0.109 C 
ATOM     16  O   LIG d   1      -4.509  78.691 115.687  0.00  0.00    -0.276 OA
ATOM     17  H   LIG d   1      -2.969  76.584 117.468  0.00  0.00     0.149 HD
ENDBRANCH   6  13
BRANCH   5  18
ATOM     18  N   LIG d   1      -6.648  76.594 117.008  0.00  0.00     0.381 N 
ATOM     19  H   LIG d   1      -7.576  76.275 116.811  0.00  0.00    -0.090 HD
ATOM     20  H   LIG d   1      -6.410  77.305 116.340  0.00  0.00    -0.090 HD
ATOM     21  H   LIG d   1      -6.607  76.967 117.931  0.00  0.00    -0.090 HD
ENDBRANCH   5  18
BRANCH   3  22
ATOM     22  C   LIG d   1      -6.138  71.993 115.779  0.00  0.00     0.382 C 
ATOM     23  O   LIG d   1      -5.539  71.070 115.177  0.00  0.00    -0.241 OA
ATOM     24  O   LIG d   1      -7.256  71.772 116.283  0.00  0.00    -0.241 OA
ENDBRANCH   3  22
TORSDOF 7
ENDMDL
MODEL 4
REMARK VINA RESULT:      -5.4      2.307      5.770
REMARK  7 active torsions:
REMARK  status: ('A' for Active; 'I' for Inactive)
REMARK    1  A    between atoms: C_2  and  C_3 
REMARK    2  A    between atoms: C_3  and  O_6 
REMARK    3  A    between atoms: C_3  and  C_4 
REMARK    4  A    between atoms: C_7  and  O_6 
REMARK    5  A    between atoms: C_9  and  C_10 
REMARK    6  A    between atoms: N_15  and  C_14 
REMARK    7  A    between atoms: N_20  and  C_19 
REMARK       I    between atoms: C_22  and  N_20 
ROOT
ATOM      1  C   LIG d   1      -6.015  76.699 116.800  0.00  0.00     0.161 C 
ATOM      2  C   LIG d   1      -6.414  78.009 117.111  0.00  0.00     0.016 C 
ATOM      3  C   LIG d   1      -7.744  78.360 117.438  0.00  0.00     0.038 C 
ATOM      4  C   LIG d   1      -8.742  77.392 117.626  0.00  0.00     0.028 C 
ATOM      5  C   LIG d   1      -8.502  76.113 116.831  0.00  0.00    -0.047 C 
ATOM      6  C   LIG d   1      -7.066  75.612 117.108  0.00  0.00     0.091 C 
ENDROOT
BRANCH   1   7
ATOM      7  O   LIG d   1      -4.772  76.396 117.464  0.00  0.00    -0.368 OA
BRANCH   7   8
ATOM      8  C   LIG d   1      -3.564  76.777 116.760  0.00  0.00     0.119 C 
BRANCH   8   9
ATOM      9  C   LIG d   1      -3.395  75.808 115.574  0.00  0.00     0.028 C 
ATOM     10  C   LIG d   1      -2.842  74.440 116.008  0.00  0.00     0.006 C 
ENDBRANCH   8   9
BRANCH   8  11
ATOM     11  C   LIG d   1      -2.322  76.570 117.633  0.00  0.00     0.028 C 
ATOM     12  C   LIG d   1      -2.546  76.986 119.096  0.00  0.00     0.006 C 
ENDBRANCH   8  11
ENDBRANCH   7   8
ENDBRANCH   1   7
BRANCH   6  13
ATOM     13  N   LIG d   1      -6.720  74.411 116.304  0.00  0.00    -0.311 N 
ATOM     14  C   LIG d   1      -6.253  73.282 116.835  0.00  0.00     0.210 C 
ATOM     15  C   LIG d   1      -5.941  72.173 115.826  0.00  0.00     0.109 C 
ATOM     16  O   LIG d   1      -6.100  73.083 118.050  0.00  0.00    -0.276 OA
ATOM     17  H   LIG d   1      -6.844  74.474 115.312  0.00  0.00     0.149 HD
ENDBRANCH   6  13
BRANCH   5  18
ATOM     18  N   LIG d   1      -9.539  75.142 117.225  0.00  0.00     0.381 N 
ATOM     19  H   LIG d   1      -9.778  75.273 118.188  0.00  0.00    -0.090 HD
ATOM     20  H   LIG d   1      -9.173  74.212 117.115  0.00  0.00    -0.090 HD
ATOM     21  H   LIG d   1     -10.349  75.258 116.656  0.00  0.00    -0.090 HD
ENDBRANCH   5  18
BRANCH   3  22
ATOM     22  C   LIG d   1      -8.096  79.697 117.543  0.00  0.00     0.382 C 
ATOM     23  O   LIG d   1      -7.318  80.586 117.120  0.00  0.00    -0.241 OA
ATOM     24  O   LIG d   1      -9.163  80.029 118.095  0.00  0.00    -0.241 OA
ENDBRANCH   3  22
TORSDOF 7
ENDMDL
MODEL 5
REMARK VINA RESULT:      -5.4      2.373      5.020
REMARK  7 active torsions:
REMARK  status: ('A' for Active; 'I' for Inactive)
REMARK    1  A    between atoms: C_2  and  C_3 
REMARK    2  A    between atoms: C_3  and  O_6 
REMARK    3  A    between atoms: C_3  and  C_4 
REMARK    4  A    between atoms: C_7  and  O_6 
REMARK    5  A    between atoms: C_9  and  C_10 
REMARK    6  A    between atoms: N_15  and  C_14 
REMARK    7  A    between atoms: N_20  and  C_19 
REMARK       I    between atoms: C_22  and  N_20 
ROOT
ATOM      1  C   LIG d   1      -6.729  76.828 117.451  0.00  0.00     0.161 C 
ATOM      2  C   LIG d   1      -8.085  76.862 117.813  0.00  0.00     0.016 C 
ATOM      3  C   LIG d   1      -8.821  78.060 117.965  0.00  0.00     0.038 C 
ATOM      4  C   LIG d   1      -8.285  79.308 117.613  0.00  0.00     0.028 C 
ATOM      5  C   LIG d   1      -6.765  79.368 117.726  0.00  0.00    -0.047 C 
ATOM      6  C   LIG d   1      -6.158  78.173 116.956  0.00  0.00     0.091 C 
ENDROOT
BRANCH   1   7
ATOM      7  O   LIG d   1      -6.512  75.799 116.465  0.00  0.00    -0.368 OA
BRANCH   7   8
ATOM      8  C   LIG d   1      -5.457  74.849 116.757  0.00  0.00     0.119 C 
BRANCH   8   9
ATOM      9  C   LIG d   1      -4.836  74.420 115.413  0.00  0.00     0.028 C 
ATOM     10  C   LIG d   1      -4.994  75.495 114.324  0.00  0.00     0.006 C 
ENDBRANCH   8   9
BRANCH   8  11
ATOM     11  C   LIG d   1      -6.019  73.564 117.372  0.00  0.00     0.028 C 
ATOM     12  C   LIG d   1      -6.350  72.495 116.319  0.00  0.00     0.006 C 
ENDBRANCH   8  11
ENDBRANCH   7   8
ENDBRANCH   1   7
BRANCH   6  13
ATOM     13  N   LIG d   1      -4.679  78.109 117.085  0.00  0.00    -0.311 N 
ATOM     14  C   LIG d   1      -3.842  78.674 116.217  0.00  0.00     0.210 C 
ATOM     15  C   LIG d   1      -2.355  78.471 116.526  0.00  0.00     0.109 C 
ATOM     16  O   LIG d   1      -4.189  79.352 115.238  0.00  0.00    -0.276 OA
ATOM     17  H   LIG d   1      -4.311  77.605 117.868  0.00  0.00     0.149 HD
ENDBRANCH   6  13
BRANCH   5  18
ATOM     18  N   LIG d   1      -6.331  80.676 117.200  0.00  0.00     0.381 N 
ATOM     19  H   LIG d   1      -6.892  81.403 117.596  0.00  0.00    -0.090 HD
ATOM     20  H   LIG d   1      -6.461  80.685 116.204  0.00  0.00    -0.090 HD
ATOM     21  H   LIG d   1      -5.371  80.830 117.419  0.00  0.00    -0.090 HD
ENDBRANCH   5  18
BRANCH   3  22
ATOM     22  C   LIG d   1     -10.095  78.020 118.510  0.00  0.00     0.382 C 
ATOM     23  O   LIG d   1     -10.828  77.019 118.318  0.00  0.00    -0.241 OA
ATOM     24  O   LIG d   1     -10.537  78.990 119.154  0.00  0.00    -0.241 OA
ENDBRANCH   3  22
TORSDOF 7
ENDMDL
MODEL 6
REMARK VINA RESULT:      -5.3      4.022      6.570
REMARK  7 active torsions:
REMARK  status: ('A' for Active; 'I' for Inactive)
REMARK    1  A    between atoms: C_2  and  C_3 
REMARK    2  A    between atoms: C_3  and  O_6 
REMARK    3  A    between atoms: C_3  and  C_4 
REMARK    4  A    between atoms: C_7  and  O_6 
REMARK    5  A    between atoms: C_9  and  C_10 
REMARK    6  A    between atoms: N_15  and  C_14 
REMARK    7  A    between atoms: N_20  and  C_19 
REMARK       I    between atoms: C_22  and  N_20 
ROOT
ATOM      1  C   LIG d   1      -2.624  78.350 116.112  0.00  0.00     0.161 C 
ATOM      2  C   LIG d   1      -2.994  78.973 114.908  0.00  0.00     0.016 C 
ATOM      3  C   LIG d   1      -2.333  78.745 113.679  0.00  0.00     0.038 C 
ATOM      4  C   LIG d   1      -1.346  77.758 113.540  0.00  0.00     0.028 C 
ATOM      5  C   LIG d   1      -0.596  77.464 114.835  0.00  0.00    -0.047 C 
ATOM      6  C   LIG d   1      -1.622  77.187 115.957  0.00  0.00     0.091 C 
ENDROOT
BRANCH   1   7
ATOM      7  O   LIG d   1      -3.801  77.907 116.815  0.00  0.00    -0.368 OA
BRANCH   7   8
ATOM      8  C   LIG d   1      -4.976  77.664 116.002  0.00  0.00     0.119 C 
BRANCH   8   9
ATOM      9  C   LIG d   1      -6.196  78.189 116.783  0.00  0.00     0.028 C 
ATOM     10  C   LIG d   1      -6.029  79.655 117.215  0.00  0.00     0.006 C 
ENDBRANCH   8   9
BRANCH   8  11
ATOM     11  C   LIG d   1      -5.226  76.164 115.819  0.00  0.00     0.028 C 
ATOM     12  C   LIG d   1      -5.203  75.732 114.344  0.00  0.00     0.006 C 
ENDBRANCH   8  11
ENDBRANCH   7   8
ENDBRANCH   1   7
BRANCH   6  13
ATOM     13  N   LIG d   1      -0.973  76.974 117.278  0.00  0.00    -0.311 N 
ATOM     14  C   LIG d   1      -0.558  75.783 117.706  0.00  0.00     0.210 C 
ATOM     15  C   LIG d   1       0.066  75.782 119.106  0.00  0.00     0.109 C 
ATOM     16  O   LIG d   1      -0.618  74.734 117.048  0.00  0.00    -0.276 OA
ATOM     17  H   LIG d   1      -0.857  77.777 117.864  0.00  0.00     0.149 HD
ENDBRANCH   6  13
BRANCH   5  18
ATOM     18  N   LIG d   1       0.304  76.324 114.580  0.00  0.00     0.381 N 
ATOM     19  H   LIG d   1       0.755  76.052 115.430  0.00  0.00    -0.090 HD
ATOM     20  H   LIG d   1       1.011  76.608 113.925  0.00  0.00    -0.090 HD
ATOM     21  H   LIG d   1      -0.213  75.557 114.209  0.00  0.00    -0.090 HD
ENDBRANCH   5  18
BRANCH   3  22
ATOM     22  C   LIG d   1      -2.631  79.538 112.581  0.00  0.00     0.382 C 
ATOM     23  O   LIG d   1      -3.510  80.429 112.672  0.00  0.00    -0.241 OA
ATOM     24  O   LIG d   1      -2.064  79.344 111.489  0.00  0.00    -0.241 OA
ENDBRANCH   3  22
TORSDOF 7
ENDMDL
MODEL 7
REMARK VINA RESULT:      -5.2      1.602      2.078
REMARK  7 active torsions:
REMARK  status: ('A' for Active; 'I' for Inactive)
REMARK    1  A    between atoms: C_2  and  C_3 
REMARK    2  A    between atoms: C_3  and  O_6 
REMARK    3  A    between atoms: C_3  and  C_4 
REMARK    4  A    between atoms: C_7  and  O_6 
REMARK    5  A    between atoms: C_9  and  C_10 
REMARK    6  A    between atoms: N_15  and  C_14 
REMARK    7  A    between atoms: N_20  and  C_19 
REMARK       I    between atoms: C_22  and  N_20 
ROOT
ATOM      1  C   LIG d   1      -6.347  76.239 116.504  0.00  0.00     0.161 C 
ATOM      2  C   LIG d   1      -7.425  75.398 116.827  0.00  0.00     0.016 C 
ATOM      3  C   LIG d   1      -7.328  73.988 116.862  0.00  0.00     0.038 C 
ATOM      4  C   LIG d   1      -6.100  73.325 116.722  0.00  0.00     0.028 C 
ATOM      5  C   LIG d   1      -5.082  74.104 115.895  0.00  0.00    -0.047 C 
ATOM      6  C   LIG d   1      -4.972  75.540 116.457  0.00  0.00     0.091 C 
ENDROOT
BRANCH   1   7
ATOM      7  O   LIG d   1      -6.310  77.357 117.413  0.00  0.00    -0.368 OA
BRANCH   7   8
ATOM      8  C   LIG d   1      -6.822  78.612 116.902  0.00  0.00     0.119 C 
BRANCH   8   9
ATOM      9  C   LIG d   1      -5.742  79.685 117.142  0.00  0.00     0.028 C 
ATOM     10  C   LIG d   1      -4.545  79.144 117.943  0.00  0.00     0.006 C 
ENDBRANCH   8   9
BRANCH   8  11
ATOM     11  C   LIG d   1      -8.044  79.081 117.697  0.00  0.00     0.028 C 
ATOM     12  C   LIG d   1      -8.214  80.608 117.682  0.00  0.00     0.006 C 
ENDBRANCH   8  11
ENDBRANCH   7   8
ENDBRANCH   1   7
BRANCH   6  13
ATOM     13  N   LIG d   1      -4.060  76.395 115.654  0.00  0.00    -0.311 N 
ATOM     14  C   LIG d   1      -4.232  76.632 114.354  0.00  0.00     0.210 C 
ATOM     15  C   LIG d   1      -3.165  77.524 113.713  0.00  0.00     0.109 C 
ATOM     16  O   LIG d   1      -5.185  76.214 113.679  0.00  0.00    -0.276 OA
ATOM     17  H   LIG d   1      -3.278  76.800 116.129  0.00  0.00     0.149 HD
ENDBRANCH   6  13
BRANCH   5  18
ATOM     18  N   LIG d   1      -3.807  73.364 115.945  0.00  0.00     0.381 N 
ATOM     19  H   LIG d   1      -3.484  73.182 115.016  0.00  0.00    -0.090 HD
ATOM     20  H   LIG d   1      -3.960  72.484 116.404  0.00  0.00    -0.090 HD
ATOM     21  H   LIG d   1      -3.125  73.893 116.444  0.00  0.00    -0.090 HD
ENDBRANCH   5  18
BRANCH   3  22
ATOM     22  C   LIG d   1      -8.477  73.223 116.999  0.00  0.00     0.382 C 
ATOM     23  O   LIG d   1      -8.418  71.976 116.878  0.00  0.00    -0.241 OA
ATOM     24  O   LIG d   1      -9.579  73.769 117.198  0.00  0.00    -0.241 OA
ENDBRANCH   3  22
TORSDOF 7
ENDMDL
MODEL 8
REMARK VINA RESULT:      -5.1     12.381     15.854
REMARK  7 active torsions:
REMARK  status: ('A' for Active; 'I' for Inactive)
REMARK    1  A    between atoms: C_2  and  C_3 
REMARK    2  A    between atoms: C_3  and  O_6 
REMARK    3  A    between atoms: C_3  and  C_4 
REMARK    4  A    between atoms: C_7  and  O_6 
REMARK    5  A    between atoms: C_9  and  C_10 
REMARK    6  A    between atoms: N_15  and  C_14 
REMARK    7  A    between atoms: N_20  and  C_19 
REMARK       I    between atoms: C_22  and  N_20 
ROOT
ATOM      1  C   LIG d   1       3.453  85.790 112.862  0.00  0.00     0.161 C 
ATOM      2  C   LIG d   1       3.956  87.062 113.183  0.00  0.00     0.016 C 
ATOM      3  C   LIG d   1       3.268  88.265 112.901  0.00  0.00     0.038 C 
ATOM      4  C   LIG d   1       1.953  88.270 112.412  0.00  0.00     0.028 C 
ATOM      5  C   LIG d   1       1.603  87.025 111.604  0.00  0.00    -0.047 C 
ATOM      6  C   LIG d   1       1.972  85.771 112.429  0.00  0.00     0.091 C 
ENDROOT
BRANCH   1   7
ATOM      7  O   LIG d   1       3.664  84.888 113.966  0.00  0.00    -0.368 OA
BRANCH   7   8
ATOM      8  C   LIG d   1       3.701  85.491 115.283  0.00  0.00     0.119 C 
BRANCH   8   9
ATOM      9  C   LIG d   1       4.804  84.777 116.088  0.00  0.00     0.028 C 
ATOM     10  C   LIG d   1       5.855  85.756 116.638  0.00  0.00     0.006 C 
ENDBRANCH   8   9
BRANCH   8  11
ATOM     11  C   LIG d   1       2.403  85.228 116.053  0.00  0.00     0.028 C 
ATOM     12  C   LIG d   1       1.483  86.457 116.107  0.00  0.00     0.006 C 
ENDBRANCH   8  11
ENDBRANCH   7   8
ENDBRANCH   1   7
BRANCH   6  13
ATOM     13  N   LIG d   1       1.740  84.510 111.677  0.00  0.00    -0.311 N 
ATOM     14  C   LIG d   1       1.003  83.503 112.144  0.00  0.00     0.210 C 
ATOM     15  C   LIG d   1       0.909  82.287 111.218  0.00  0.00     0.109 C 
ATOM     16  O   LIG d   1       0.392  83.515 113.224  0.00  0.00    -0.276 OA
ATOM     17  H   LIG d   1       2.173  84.428 110.778  0.00  0.00     0.149 HD
ENDBRANCH   6  13
BRANCH   5  18
ATOM     18  N   LIG d   1       0.167  87.097 111.273  0.00  0.00     0.381 N 
ATOM     19  H   LIG d   1      -0.302  86.287 111.624  0.00  0.00    -0.090 HD
ATOM     20  H   LIG d   1       0.064  87.113 110.273  0.00  0.00    -0.090 HD
ATOM     21  H   LIG d   1      -0.233  87.920 111.668  0.00  0.00    -0.090 HD
ENDBRANCH   5  18
BRANCH   3  22
ATOM     22  C   LIG d   1       3.911  89.481 113.072  0.00  0.00     0.382 C 
ATOM     23  O   LIG d   1       3.243  90.518 113.301  0.00  0.00    -0.241 OA
ATOM     24  O   LIG d   1       5.149  89.563 112.956  0.00  0.00    -0.241 OA
ENDBRANCH   3  22
TORSDOF 7
ENDMDL
MODEL 9
REMARK VINA RESULT:      -5.1     12.383     15.909
REMARK  7 active torsions:
REMARK  status: ('A' for Active; 'I' for Inactive)
REMARK    1  A    between atoms: C_2  and  C_3 
REMARK    2  A    between atoms: C_3  and  O_6 
REMARK    3  A    between atoms: C_3  and  C_4 
REMARK    4  A    between atoms: C_7  and  O_6 
REMARK    5  A    between atoms: C_9  and  C_10 
REMARK    6  A    between atoms: N_15  and  C_14 
REMARK    7  A    between atoms: N_20  and  C_19 
REMARK       I    between atoms: C_22  and  N_20 
ROOT
ATOM      1  C   LIG d   1       2.041  86.755 114.172  0.00  0.00     0.161 C 
ATOM      2  C   LIG d   1       2.588  87.905 113.579  0.00  0.00     0.016 C 
ATOM      3  C   LIG d   1       3.904  88.359 113.830  0.00  0.00     0.038 C 
ATOM      4  C   LIG d   1       4.818  87.604 114.579  0.00  0.00     0.028 C 
ATOM      5  C   LIG d   1       4.155  86.694 115.607  0.00  0.00    -0.047 C 
ATOM      6  C   LIG d   1       3.061  85.858 114.905  0.00  0.00     0.091 C 
ENDROOT
BRANCH   1   7
ATOM      7  O   LIG d   1       1.321  85.991 113.184  0.00  0.00    -0.368 OA
BRANCH   7   8
ATOM      8  C   LIG d   1       1.689  86.229 111.803  0.00  0.00     0.119 C 
BRANCH   8   9
ATOM      9  C   LIG d   1       0.417  86.673 111.055  0.00  0.00     0.028 C 
ATOM     10  C   LIG d   1      -0.868  86.158 111.725  0.00  0.00     0.006 C 
ENDBRANCH   8   9
BRANCH   8  11
ATOM     11  C   LIG d   1       2.133  84.935 111.114  0.00  0.00     0.028 C 
ATOM     12  C   LIG d   1       3.615  84.609 111.357  0.00  0.00     0.006 C 
ENDBRANCH   8  11
ENDBRANCH   7   8
ENDBRANCH   1   7
BRANCH   6  13
ATOM     13  N   LIG d   1       2.305  85.001 115.855  0.00  0.00    -0.311 N 
ATOM     14  C   LIG d   1       2.639  83.742 116.133  0.00  0.00     0.210 C 
ATOM     15  C   LIG d   1       1.714  83.031 117.125  0.00  0.00     0.109 C 
ATOM     16  O   LIG d   1       3.634  83.158 115.677  0.00  0.00    -0.276 OA
ATOM     17  H   LIG d   1       1.501  85.406 116.294  0.00  0.00     0.149 HD
ENDBRANCH   6  13
BRANCH   5  18
ATOM     18  N   LIG d   1       5.212  85.867 116.218  0.00  0.00     0.381 N 
ATOM     19  H   LIG d   1       5.766  85.441 115.502  0.00  0.00    -0.090 HD
ATOM     20  H   LIG d   1       4.782  85.138 116.760  0.00  0.00    -0.090 HD
ATOM     21  H   LIG d   1       5.789  86.429 116.805  0.00  0.00    -0.090 HD
ENDBRANCH   5  18
BRANCH   3  22
ATOM     22  C   LIG d   1       4.303  89.601 113.361  0.00  0.00     0.382 C 
ATOM     23  O   LIG d   1       3.511  90.574 113.410  0.00  0.00    -0.241 OA
ATOM     24  O   LIG d   1       5.428  89.752 112.849  0.00  0.00    -0.241 OA
ENDBRANCH   3  22
TORSDOF 7
ENDMDL
