MODEL 1
REMARK VINA RESULT:      -5.2      0.000      0.000
REMARK  7 active torsions:
REMARK  status: ('A' for Active; 'I' for Inactive)
REMARK    1  A    between atoms: C_2  and  C_3 
REMARK    2  A    between atoms: C_3  and  O_6 
REMARK    3  A    between atoms: C_3  and  C_4 
REMARK    4  A    between atoms: C_7  and  O_6 
REMARK    5  A    between atoms: C_9  and  C_10 
REMARK    6  A    between atoms: N_15  and  C_14 
REMARK    7  A    between atoms: N_20  and  C_19 
REMARK       I    between atoms: C_22  and  N_20 
ROOT
ATOM      1  C   LIG d   1      -3.898  90.842 117.077  0.00  0.00     0.161 C 
ATOM      2  C   LIG d   1      -5.020  91.444 116.485  0.00  0.00     0.016 C 
ATOM      3  C   LIG d   1      -5.757  90.851 115.434  0.00  0.00     0.038 C 
ATOM      4  C   LIG d   1      -5.510  89.539 115.003  0.00  0.00     0.028 C 
ATOM      5  C   LIG d   1      -4.070  89.090 115.225  0.00  0.00    -0.047 C 
ATOM      6  C   LIG d   1      -3.681  89.362 116.696  0.00  0.00     0.091 C 
ENDROOT
BRANCH   1   7
ATOM      7  O   LIG d   1      -3.965  90.986 118.510  0.00  0.00    -0.368 OA
BRANCH   7   8
ATOM      8  C   LIG d   1      -3.037  91.929 119.100  0.00  0.00     0.119 C 
BRANCH   8   9
ATOM      9  C   LIG d   1      -3.793  93.256 119.305  0.00  0.00     0.028 C 
ATOM     10  C   LIG d   1      -3.074  94.448 118.651  0.00  0.00     0.006 C 
ENDBRANCH   8   9
BRANCH   8  11
ATOM     11  C   LIG d   1      -1.891  92.259 118.138  0.00  0.00     0.028 C 
ATOM     12  C   LIG d   1      -0.538  91.703 118.610  0.00  0.00     0.006 C 
ENDBRANCH   8  11
ENDBRANCH   7   8
ENDBRANCH   1   7
BRANCH   6  13
ATOM     13  N   LIG d   1      -2.260  89.029 116.977  0.00  0.00    -0.311 N 
ATOM     14  C   LIG d   1      -1.885  88.018 117.759  0.00  0.00     0.210 C 
ATOM     15  C   LIG d   1      -0.371  87.862 117.932  0.00  0.00     0.109 C 
ATOM     16  O   LIG d   1      -2.661  87.217 118.300  0.00  0.00    -0.276 OA
ATOM     17  H   LIG d   1      -1.563  89.610 116.553  0.00  0.00     0.149 HD
ENDBRANCH   6  13
BRANCH   5  18
ATOM     18  N   LIG d   1      -3.987  87.663 114.860  0.00  0.00     0.381 N 
ATOM     19  H   LIG d   1      -4.278  87.538 113.911  0.00  0.00    -0.090 HD
ATOM     20  H   LIG d   1      -4.609  87.139 115.452  0.00  0.00    -0.090 HD
ATOM     21  H   LIG d   1      -3.053  87.335 114.974  0.00  0.00    -0.090 HD
ENDBRANCH   5  18
BRANCH   3  22
ATOM     22  C   LIG d   1      -6.729  91.589 114.775  0.00  0.00     0.382 C 
ATOM     23  O   LIG d   1      -7.840  91.068 114.511  0.00  0.00    -0.241 OA
ATOM     24  O   LIG d   1      -6.493  92.753 114.401  0.00  0.00    -0.241 OA
ENDBRANCH   3  22
TORSDOF 7
ENDMDL
MODEL 2
REMARK VINA RESULT:      -5.0      5.961      8.406
REMARK  7 active torsions:
REMARK  status: ('A' for Active; 'I' for Inactive)
REMARK    1  A    between atoms: C_2  and  C_3 
REMARK    2  A    between atoms: C_3  and  O_6 
REMARK    3  A    between atoms: C_3  and  C_4 
REMARK    4  A    between atoms: C_7  and  O_6 
REMARK    5  A    between atoms: C_9  and  C_10 
REMARK    6  A    between atoms: N_15  and  C_14 
REMARK    7  A    between atoms: N_20  and  C_19 
REMARK       I    between atoms: C_22  and  N_20 
ROOT
ATOM      1  C   LIG d   1       2.114  86.821 114.548  0.00  0.00     0.161 C 
ATOM      2  C   LIG d   1       2.930  87.945 114.334  0.00  0.00     0.016 C 
ATOM      3  C   LIG d   1       3.639  88.174 113.133  0.00  0.00     0.038 C 
ATOM      4  C   LIG d   1       3.459  87.367 112.000  0.00  0.00     0.028 C 
ATOM      5  C   LIG d   1       3.036  85.940 112.334  0.00  0.00    -0.047 C 
ATOM      6  C   LIG d   1       1.818  85.987 113.284  0.00  0.00     0.091 C 
ENDROOT
BRANCH   1   7
ATOM      7  O   LIG d   1       0.885  87.225 115.183  0.00  0.00    -0.368 OA
BRANCH   7   8
ATOM      8  C   LIG d   1       0.762  86.913 116.592  0.00  0.00     0.119 C 
BRANCH   8   9
ATOM      9  C   LIG d   1      -0.306  85.812 116.732  0.00  0.00     0.028 C 
ATOM     10  C   LIG d   1      -1.630  86.188 116.045  0.00  0.00     0.006 C 
ENDBRANCH   8   9
BRANCH   8  11
ATOM     11  C   LIG d   1       0.219  88.108 117.382  0.00  0.00     0.028 C 
ATOM     12  C   LIG d   1       0.905  89.431 117.007  0.00  0.00     0.006 C 
ENDBRANCH   8  11
ENDBRANCH   7   8
ENDBRANCH   1   7
BRANCH   6  13
ATOM     13  N   LIG d   1       1.392  84.634 113.728  0.00  0.00    -0.311 N 
ATOM     14  C   LIG d   1       0.188  84.125 113.474  0.00  0.00     0.210 C 
ATOM     15  C   LIG d   1      -0.052  82.721 114.039  0.00  0.00     0.109 C 
ATOM     16  O   LIG d   1      -0.692  84.688 112.807  0.00  0.00    -0.276 OA
ATOM     17  H   LIG d   1       2.056  84.095 114.249  0.00  0.00     0.149 HD
ENDBRANCH   6  13
BRANCH   5  18
ATOM     18  N   LIG d   1       2.750  85.250 111.062  0.00  0.00     0.381 N 
ATOM     19  H   LIG d   1       2.962  85.855 110.294  0.00  0.00    -0.090 HD
ATOM     20  H   LIG d   1       1.771  85.026 111.026  0.00  0.00    -0.090 HD
ATOM     21  H   LIG d   1       3.291  84.416 110.997  0.00  0.00    -0.090 HD
ENDBRANCH   5  18
BRANCH   3  22
ATOM     22  C   LIG d   1       4.571  89.199 113.069  0.00  0.00     0.382 C 
ATOM     23  O   LIG d   1       4.210  90.387 113.252  0.00  0.00    -0.241 OA
ATOM     24  O   LIG d   1       5.759  88.956 112.787  0.00  0.00    -0.241 OA
ENDBRANCH   3  22
TORSDOF 7
ENDMDL
MODEL 3
REMARK VINA RESULT:      -5.0      7.411      9.683
REMARK  7 active torsions:
REMARK  status: ('A' for Active; 'I' for Inactive)
REMARK    1  A    between atoms: C_2  and  C_3 
REMARK    2  A    between atoms: C_3  and  O_6 
REMARK    3  A    between atoms: C_3  and  C_4 
REMARK    4  A    between atoms: C_7  and  O_6 
REMARK    5  A    between atoms: C_9  and  C_10 
REMARK    6  A    between atoms: N_15  and  C_14 
REMARK    7  A    between atoms: N_20  and  C_19 
REMARK       I    between atoms: C_22  and  N_20 
ROOT
ATOM      1  C   LIG d   1      -0.593  83.214 113.016  0.00  0.00     0.161 C 
ATOM      2  C   LIG d   1      -1.574  82.208 113.004  0.00  0.00     0.016 C 
ATOM      3  C   LIG d   1      -1.387  80.945 112.398  0.00  0.00     0.038 C 
ATOM      4  C   LIG d   1      -0.142  80.543 111.891  0.00  0.00     0.028 C 
ATOM      5  C   LIG d   1       0.729  81.708 111.430  0.00  0.00    -0.047 C 
ATOM      6  C   LIG d   1       0.809  82.754 112.565  0.00  0.00     0.091 C 
ENDROOT
BRANCH   1   7
ATOM      7  O   LIG d   1      -0.527  83.816 114.324  0.00  0.00    -0.368 OA
BRANCH   7   8
ATOM      8  C   LIG d   1      -0.698  85.254 114.372  0.00  0.00     0.119 C 
BRANCH   8   9
ATOM      9  C   LIG d   1       0.173  85.785 115.527  0.00  0.00     0.028 C 
ATOM     10  C   LIG d   1       1.251  86.770 115.044  0.00  0.00     0.006 C 
ENDBRANCH   8   9
BRANCH   8  11
ATOM     11  C   LIG d   1      -2.136  85.631 114.742  0.00  0.00     0.028 C 
ATOM     12  C   LIG d   1      -2.216  86.520 115.993  0.00  0.00     0.006 C 
ENDBRANCH   8  11
ENDBRANCH   7   8
ENDBRANCH   1   7
BRANCH   6  13
ATOM     13  N   LIG d   1       1.573  83.965 112.167  0.00  0.00    -0.311 N 
ATOM     14  C   LIG d   1       2.688  84.362 112.778  0.00  0.00     0.210 C 
ATOM     15  C   LIG d   1       3.307  85.649 112.221  0.00  0.00     0.109 C 
ATOM     16  O   LIG d   1       3.241  83.754 113.706  0.00  0.00    -0.276 OA
ATOM     17  H   LIG d   1       1.212  84.501 111.402  0.00  0.00     0.149 HD
ENDBRANCH   6  13
BRANCH   5  18
ATOM     18  N   LIG d   1       2.045  81.159 111.055  0.00  0.00     0.381 N 
ATOM     19  H   LIG d   1       1.923  80.332 110.505  0.00  0.00    -0.090 HD
ATOM     20  H   LIG d   1       2.544  80.910 111.892  0.00  0.00    -0.090 HD
ATOM     21  H   LIG d   1       2.563  81.836 110.540  0.00  0.00    -0.090 HD
ENDBRANCH   5  18
BRANCH   3  22
ATOM     22  C   LIG d   1      -2.464  80.082 112.259  0.00  0.00     0.382 C 
ATOM     23  O   LIG d   1      -2.424  79.162 111.407  0.00  0.00    -0.241 OA
ATOM     24  O   LIG d   1      -3.492  80.240 112.945  0.00  0.00    -0.241 OA
ENDBRANCH   3  22
TORSDOF 7
ENDMDL
MODEL 4
REMARK VINA RESULT:      -4.9      5.740      8.498
REMARK  7 active torsions:
REMARK  status: ('A' for Active; 'I' for Inactive)
REMARK    1  A    between atoms: C_2  and  C_3 
REMARK    2  A    between atoms: C_3  and  O_6 
REMARK    3  A    between atoms: C_3  and  C_4 
REMARK    4  A    between atoms: C_7  and  O_6 
REMARK    5  A    between atoms: C_9  and  C_10 
REMARK    6  A    between atoms: N_15  and  C_14 
REMARK    7  A    between atoms: N_20  and  C_19 
REMARK       I    between atoms: C_22  and  N_20 
ROOT
ATOM      1  C   LIG d   1       1.678  86.739 114.866  0.00  0.00     0.161 C 
ATOM      2  C   LIG d   1       0.559  86.289 115.587  0.00  0.00     0.016 C 
ATOM      3  C   LIG d   1       0.037  86.963 116.715  0.00  0.00     0.038 C 
ATOM      4  C   LIG d   1       0.510  88.222 117.110  0.00  0.00     0.028 C 
ATOM      5  C   LIG d   1       1.964  88.473 116.721  0.00  0.00    -0.047 C 
ATOM      6  C   LIG d   1       2.139  88.169 115.216  0.00  0.00     0.091 C 
ENDROOT
BRANCH   1   7
ATOM      7  O   LIG d   1       1.426  86.625 113.452  0.00  0.00    -0.368 OA
BRANCH   7   8
ATOM      8  C   LIG d   1       1.574  85.301 112.882  0.00  0.00     0.119 C 
BRANCH   8   9
ATOM      9  C   LIG d   1       2.967  85.232 112.226  0.00  0.00     0.028 C 
ATOM     10  C   LIG d   1       3.259  86.454 111.339  0.00  0.00     0.006 C 
ENDBRANCH   8   9
BRANCH   8  11
ATOM     11  C   LIG d   1       0.577  85.070 111.743  0.00  0.00     0.028 C 
ATOM     12  C   LIG d   1      -0.661  85.974 111.843  0.00  0.00     0.006 C 
ENDBRANCH   8  11
ENDBRANCH   7   8
ENDBRANCH   1   7
BRANCH   6  13
ATOM     13  N   LIG d   1       3.551  88.307 114.771  0.00  0.00    -0.311 N 
ATOM     14  C   LIG d   1       3.929  89.100 113.770  0.00  0.00     0.210 C 
ATOM     15  C   LIG d   1       5.429  89.080 113.461  0.00  0.00     0.109 C 
ATOM     16  O   LIG d   1       3.170  89.843 113.130  0.00  0.00    -0.276 OA
ATOM     17  H   LIG d   1       4.237  87.764 115.256  0.00  0.00     0.149 HD
ENDBRANCH   6  13
BRANCH   5  18
ATOM     18  N   LIG d   1       2.284  89.869 117.071  0.00  0.00     0.381 N 
ATOM     19  H   LIG d   1       2.484  90.389 116.240  0.00  0.00    -0.090 HD
ATOM     20  H   LIG d   1       3.103  89.879 117.653  0.00  0.00    -0.090 HD
ATOM     21  H   LIG d   1       1.518  90.284 117.555  0.00  0.00    -0.090 HD
ENDBRANCH   5  18
BRANCH   3  22
ATOM     22  C   LIG d   1      -0.945  86.357 117.484  0.00  0.00     0.382 C 
ATOM     23  O   LIG d   1      -2.156  86.555 117.224  0.00  0.00    -0.241 OA
ATOM     24  O   LIG d   1      -0.635  85.650 118.461  0.00  0.00    -0.241 OA
ENDBRANCH   3  22
TORSDOF 7
ENDMDL
MODEL 5
REMARK VINA RESULT:      -4.9     17.127     19.693
REMARK  7 active torsions:
REMARK  status: ('A' for Active; 'I' for Inactive)
REMARK    1  A    between atoms: C_2  and  C_3 
REMARK    2  A    between atoms: C_3  and  O_6 
REMARK    3  A    between atoms: C_3  and  C_4 
REMARK    4  A    between atoms: C_7  and  O_6 
REMARK    5  A    between atoms: C_9  and  C_10 
REMARK    6  A    between atoms: N_15  and  C_14 
REMARK    7  A    between atoms: N_20  and  C_19 
REMARK       I    between atoms: C_22  and  N_20 
ROOT
ATOM      1  C   LIG d   1      11.444  79.310 114.157  0.00  0.00     0.161 C 
ATOM      2  C   LIG d   1      10.161  79.643 114.622  0.00  0.00     0.016 C 
ATOM      3  C   LIG d   1       9.251  78.694 115.143  0.00  0.00     0.038 C 
ATOM      4  C   LIG d   1       9.623  77.361 115.375  0.00  0.00     0.028 C 
ATOM      5  C   LIG d   1      10.736  76.873 114.454  0.00  0.00    -0.047 C 
ATOM      6  C   LIG d   1      11.907  77.880 114.506  0.00  0.00     0.091 C 
ENDROOT
BRANCH   1   7
ATOM      7  O   LIG d   1      12.402  80.277 114.632  0.00  0.00    -0.368 OA
BRANCH   7   8
ATOM      8  C   LIG d   1      12.966  80.024 115.943  0.00  0.00     0.119 C 
BRANCH   8   9
ATOM      9  C   LIG d   1      12.523  81.175 116.867  0.00  0.00     0.028 C 
ATOM     10  C   LIG d   1      11.487  80.723 117.910  0.00  0.00     0.006 C 
ENDBRANCH   8   9
BRANCH   8  11
ATOM     11  C   LIG d   1      14.496  80.094 115.914  0.00  0.00     0.028 C 
ATOM     12  C   LIG d   1      15.053  80.372 114.508  0.00  0.00     0.006 C 
ENDBRANCH   8  11
ENDBRANCH   7   8
ENDBRANCH   1   7
BRANCH   6  13
ATOM     13  N   LIG d   1      13.004  77.522 113.569  0.00  0.00    -0.311 N 
ATOM     14  C   LIG d   1      14.100  76.863 113.941  0.00  0.00     0.210 C 
ATOM     15  C   LIG d   1      15.116  76.613 112.821  0.00  0.00     0.109 C 
ATOM     16  O   LIG d   1      14.313  76.433 115.084  0.00  0.00    -0.276 OA
ATOM     17  H   LIG d   1      12.899  77.805 112.614  0.00  0.00     0.149 HD
ENDBRANCH   6  13
BRANCH   5  18
ATOM     18  N   LIG d   1      11.118  75.519 114.896  0.00  0.00     0.381 N 
ATOM     19  H   LIG d   1      11.553  75.566 115.796  0.00  0.00    -0.090 HD
ATOM     20  H   LIG d   1      11.782  75.140 114.244  0.00  0.00    -0.090 HD
ATOM     21  H   LIG d   1      10.312  74.934 114.938  0.00  0.00    -0.090 HD
ENDBRANCH   5  18
BRANCH   3  22
ATOM     22  C   LIG d   1       7.941  79.067 115.400  0.00  0.00     0.382 C 
ATOM     23  O   LIG d   1       7.008  78.598 114.704  0.00  0.00    -0.241 OA
ATOM     24  O   LIG d   1       7.684  79.900 116.290  0.00  0.00    -0.241 OA
ENDBRANCH   3  22
TORSDOF 7
ENDMDL
MODEL 6
REMARK VINA RESULT:      -4.7      8.605     10.338
REMARK  7 active torsions:
REMARK  status: ('A' for Active; 'I' for Inactive)
REMARK    1  A    between atoms: C_2  and  C_3 
REMARK    2  A    between atoms: C_3  and  O_6 
REMARK    3  A    between atoms: C_3  and  C_4 
REMARK    4  A    between atoms: C_7  and  O_6 
REMARK    5  A    between atoms: C_9  and  C_10 
REMARK    6  A    between atoms: N_15  and  C_14 
REMARK    7  A    between atoms: N_20  and  C_19 
REMARK       I    between atoms: C_22  and  N_20 
ROOT
ATOM      1  C   LIG d   1       2.918  85.487 113.812  0.00  0.00     0.161 C 
ATOM      2  C   LIG d   1       3.320  86.666 113.161  0.00  0.00     0.016 C 
ATOM      3  C   LIG d   1       3.886  87.772 113.835  0.00  0.00     0.038 C 
ATOM      4  C   LIG d   1       4.230  87.716 115.194  0.00  0.00     0.028 C 
ATOM      5  C   LIG d   1       3.381  86.734 115.994  0.00  0.00    -0.047 C 
ATOM      6  C   LIG d   1       3.388  85.365 115.276  0.00  0.00     0.091 C 
ENDROOT
BRANCH   1   7
ATOM      7  O   LIG d   1       3.344  84.340 113.051  0.00  0.00    -0.368 OA
BRANCH   7   8
ATOM      8  C   LIG d   1       2.309  83.390 112.697  0.00  0.00     0.119 C 
BRANCH   8   9
ATOM      9  C   LIG d   1       2.544  82.974 111.232  0.00  0.00     0.028 C 
ATOM     10  C   LIG d   1       2.591  81.447 111.055  0.00  0.00     0.006 C 
ENDBRANCH   8   9
BRANCH   8  11
ATOM     11  C   LIG d   1       0.924  84.042 112.716  0.00  0.00     0.028 C 
ATOM     12  C   LIG d   1      -0.098  83.246 113.543  0.00  0.00     0.006 C 
ENDBRANCH   8  11
ENDBRANCH   7   8
ENDBRANCH   1   7
BRANCH   6  13
ATOM     13  N   LIG d   1       2.512  84.369 115.948  0.00  0.00    -0.311 N 
ATOM     14  C   LIG d   1       2.929  83.161 116.322  0.00  0.00     0.210 C 
ATOM     15  C   LIG d   1       1.860  82.283 116.979  0.00  0.00     0.109 C 
ATOM     16  O   LIG d   1       4.091  82.744 116.201  0.00  0.00    -0.276 OA
ATOM     17  H   LIG d   1       1.561  84.636 116.113  0.00  0.00     0.149 HD
ENDBRANCH   6  13
BRANCH   5  18
ATOM     18  N   LIG d   1       3.935  86.675 117.359  0.00  0.00     0.381 N 
ATOM     19  H   LIG d   1       3.633  87.472 117.883  0.00  0.00    -0.090 HD
ATOM     20  H   LIG d   1       4.938  86.696 117.304  0.00  0.00    -0.090 HD
ATOM     21  H   LIG d   1       3.638  85.838 117.812  0.00  0.00    -0.090 HD
ENDBRANCH   5  18
BRANCH   3  22
ATOM     22  C   LIG d   1       4.077  88.966 113.156  0.00  0.00     0.382 C 
ATOM     23  O   LIG d   1       3.164  89.827 113.133  0.00  0.00    -0.241 OA
ATOM     24  O   LIG d   1       5.133  89.175 112.529  0.00  0.00    -0.241 OA
ENDBRANCH   3  22
TORSDOF 7
ENDMDL
MODEL 7
REMARK VINA RESULT:      -4.6      2.260      4.165
REMARK  7 active torsions:
REMARK  status: ('A' for Active; 'I' for Inactive)
REMARK    1  A    between atoms: C_2  and  C_3 
REMARK    2  A    between atoms: C_3  and  O_6 
REMARK    3  A    between atoms: C_3  and  C_4 
REMARK    4  A    between atoms: C_7  and  O_6 
REMARK    5  A    between atoms: C_9  and  C_10 
REMARK    6  A    between atoms: N_15  and  C_14 
REMARK    7  A    between atoms: N_20  and  C_19 
REMARK       I    between atoms: C_22  and  N_20 
ROOT
ATOM      1  C   LIG d   1      -3.414  91.090 117.769  0.00  0.00     0.161 C 
ATOM      2  C   LIG d   1      -3.561  92.277 118.507  0.00  0.00     0.016 C 
ATOM      3  C   LIG d   1      -4.621  93.191 118.308  0.00  0.00     0.038 C 
ATOM      4  C   LIG d   1      -5.697  92.904 117.455  0.00  0.00     0.028 C 
ATOM      5  C   LIG d   1      -5.333  91.953 116.320  0.00  0.00    -0.047 C 
ATOM      6  C   LIG d   1      -4.639  90.706 116.913  0.00  0.00     0.091 C 
ENDROOT
BRANCH   1   7
ATOM      7  O   LIG d   1      -3.061  90.007 118.652  0.00  0.00    -0.368 OA
BRANCH   7   8
ATOM      8  C   LIG d   1      -1.647  89.706 118.757  0.00  0.00     0.119 C 
BRANCH   8   9
ATOM      9  C   LIG d   1      -0.978  90.164 117.447  0.00  0.00     0.028 C 
ATOM     10  C   LIG d   1       0.286  91.005 117.696  0.00  0.00     0.006 C 
ENDBRANCH   8   9
BRANCH   8  11
ATOM     11  C   LIG d   1      -1.403  88.196 118.830  0.00  0.00     0.028 C 
ATOM     12  C   LIG d   1      -1.915  87.448 117.589  0.00  0.00     0.006 C 
ENDBRANCH   8  11
ENDBRANCH   7   8
ENDBRANCH   1   7
BRANCH   6  13
ATOM     13  N   LIG d   1      -4.175  89.763 115.862  0.00  0.00    -0.311 N 
ATOM     14  C   LIG d   1      -4.915  88.756 115.401  0.00  0.00     0.210 C 
ATOM     15  C   LIG d   1      -4.238  87.892 114.333  0.00  0.00     0.109 C 
ATOM     16  O   LIG d   1      -6.080  88.517 115.752  0.00  0.00    -0.276 OA
ATOM     17  H   LIG d   1      -3.252  89.903 115.498  0.00  0.00     0.149 HD
ENDBRANCH   6  13
BRANCH   5  18
ATOM     18  N   LIG d   1      -6.576  91.632 115.592  0.00  0.00     0.381 N 
ATOM     19  H   LIG d   1      -7.074  92.475 115.384  0.00  0.00    -0.090 HD
ATOM     20  H   LIG d   1      -7.157  91.059 116.178  0.00  0.00    -0.090 HD
ATOM     21  H   LIG d   1      -6.361  91.148 114.748  0.00  0.00    -0.090 HD
ENDBRANCH   5  18
BRANCH   3  22
ATOM     22  C   LIG d   1      -4.590  94.426 118.937  0.00  0.00     0.382 C 
ATOM     23  O   LIG d   1      -5.654  95.068 119.111  0.00  0.00    -0.241 OA
ATOM     24  O   LIG d   1      -3.507  94.927 119.292  0.00  0.00    -0.241 OA
ENDBRANCH   3  22
TORSDOF 7
ENDMDL
MODEL 8
REMARK VINA RESULT:      -4.5     16.893     20.235
REMARK  7 active torsions:
REMARK  status: ('A' for Active; 'I' for Inactive)
REMARK    1  A    between atoms: C_2  and  C_3 
REMARK    2  A    between atoms: C_3  and  O_6 
REMARK    3  A    between atoms: C_3  and  C_4 
REMARK    4  A    between atoms: C_7  and  O_6 
REMARK    5  A    between atoms: C_9  and  C_10 
REMARK    6  A    between atoms: N_15  and  C_14 
REMARK    7  A    between atoms: N_20  and  C_19 
REMARK       I    between atoms: C_22  and  N_20 
ROOT
ATOM      1  C   LIG d   1      11.705  78.461 114.671  0.00  0.00     0.161 C 
ATOM      2  C   LIG d   1      10.308  78.316 114.675  0.00  0.00     0.016 C 
ATOM      3  C   LIG d   1       9.428  79.274 115.229  0.00  0.00     0.038 C 
ATOM      4  C   LIG d   1       9.881  80.520 115.686  0.00  0.00     0.028 C 
ATOM      5  C   LIG d   1      11.329  80.501 116.163  0.00  0.00    -0.047 C 
ATOM      6  C   LIG d   1      12.211  79.864 115.064  0.00  0.00     0.091 C 
ENDROOT
BRANCH   1   7
ATOM      7  O   LIG d   1      12.232  78.081 113.384  0.00  0.00    -0.368 OA
BRANCH   7   8
ATOM      8  C   LIG d   1      12.923  76.808 113.329  0.00  0.00     0.119 C 
BRANCH   8   9
ATOM      9  C   LIG d   1      13.032  76.278 114.772  0.00  0.00     0.028 C 
ATOM     10  C   LIG d   1      12.573  74.815 114.895  0.00  0.00     0.006 C 
ENDBRANCH   8   9
BRANCH   8  11
ATOM     11  C   LIG d   1      14.368  76.979 112.850  0.00  0.00     0.028 C 
ATOM     12  C   LIG d   1      14.470  77.761 111.531  0.00  0.00     0.006 C 
ENDBRANCH   8  11
ENDBRANCH   7   8
ENDBRANCH   1   7
BRANCH   6  13
ATOM     13  N   LIG d   1      13.630  79.730 115.484  0.00  0.00    -0.311 N 
ATOM     14  C   LIG d   1      14.659  80.079 114.714  0.00  0.00     0.210 C 
ATOM     15  C   LIG d   1      16.040  79.839 115.331  0.00  0.00     0.109 C 
ATOM     16  O   LIG d   1      14.558  80.595 113.590  0.00  0.00    -0.276 OA
ATOM     17  H   LIG d   1      13.803  79.349 116.394  0.00  0.00     0.149 HD
ENDBRANCH   6  13
BRANCH   5  18
ATOM     18  N   LIG d   1      11.713  81.889 116.480  0.00  0.00     0.381 N 
ATOM     19  H   LIG d   1      12.260  82.269 115.733  0.00  0.00    -0.090 HD
ATOM     20  H   LIG d   1      12.274  81.889 117.314  0.00  0.00    -0.090 HD
ATOM     21  H   LIG d   1      10.898  82.445 116.620  0.00  0.00    -0.090 HD
ENDBRANCH   5  18
BRANCH   3  22
ATOM     22  C   LIG d   1       8.082  78.971 115.368  0.00  0.00     0.382 C 
ATOM     23  O   LIG d   1       7.350  79.687 116.093  0.00  0.00    -0.241 OA
ATOM     24  O   LIG d   1       7.600  77.966 114.813  0.00  0.00    -0.241 OA
ENDBRANCH   3  22
TORSDOF 7
ENDMDL
MODEL 9
REMARK VINA RESULT:      -4.4      8.231      9.728
REMARK  7 active torsions:
REMARK  status: ('A' for Active; 'I' for Inactive)
REMARK    1  A    between atoms: C_2  and  C_3 
REMARK    2  A    between atoms: C_3  and  O_6 
REMARK    3  A    between atoms: C_3  and  C_4 
REMARK    4  A    between atoms: C_7  and  O_6 
REMARK    5  A    between atoms: C_9  and  C_10 
REMARK    6  A    between atoms: N_15  and  C_14 
REMARK    7  A    between atoms: N_20  and  C_19 
REMARK       I    between atoms: C_22  and  N_20 
ROOT
ATOM      1  C   LIG d   1       2.552  86.417 114.272  0.00  0.00     0.161 C 
ATOM      2  C   LIG d   1       3.250  87.358 113.497  0.00  0.00     0.016 C 
ATOM      3  C   LIG d   1       4.141  88.309 114.044  0.00  0.00     0.038 C 
ATOM      4  C   LIG d   1       4.513  88.284 115.396  0.00  0.00     0.028 C 
ATOM      5  C   LIG d   1       3.451  87.675 116.306  0.00  0.00    -0.047 C 
ATOM      6  C   LIG d   1       3.029  86.302 115.735  0.00  0.00     0.091 C 
ENDROOT
BRANCH   1   7
ATOM      7  O   LIG d   1       2.593  85.127 113.629  0.00  0.00    -0.368 OA
BRANCH   7   8
ATOM      8  C   LIG d   1       1.538  84.858 112.672  0.00  0.00     0.119 C 
BRANCH   8   9
ATOM      9  C   LIG d   1       0.897  83.510 113.058  0.00  0.00     0.028 C 
ATOM     10  C   LIG d   1      -0.225  83.670 114.097  0.00  0.00     0.006 C 
ENDBRANCH   8   9
BRANCH   8  11
ATOM     11  C   LIG d   1       2.103  84.650 111.264  0.00  0.00     0.028 C 
ATOM     12  C   LIG d   1       3.344  83.744 111.247  0.00  0.00     0.006 C 
ENDBRANCH   8  11
ENDBRANCH   7   8
ENDBRANCH   1   7
BRANCH   6  13
ATOM     13  N   LIG d   1       1.932  85.675 116.518  0.00  0.00    -0.311 N 
ATOM     14  C   LIG d   1       2.005  84.447 117.028  0.00  0.00     0.210 C 
ATOM     15  C   LIG d   1       0.755  83.986 117.784  0.00  0.00     0.109 C 
ATOM     16  O   LIG d   1       2.997  83.708 116.953  0.00  0.00    -0.276 OA
ATOM     17  H   LIG d   1       1.101  86.217 116.653  0.00  0.00     0.149 HD
ENDBRANCH   6  13
BRANCH   5  18
ATOM     18  N   LIG d   1       4.024  87.586 117.662  0.00  0.00     0.381 N 
ATOM     19  H   LIG d   1       3.555  88.227 118.270  0.00  0.00    -0.090 HD
ATOM     20  H   LIG d   1       4.995  87.841 117.623  0.00  0.00    -0.090 HD
ATOM     21  H   LIG d   1       3.930  86.658 118.011  0.00  0.00    -0.090 HD
ENDBRANCH   5  18
BRANCH   3  22
ATOM     22  C   LIG d   1       4.641  89.324 113.242  0.00  0.00     0.382 C 
ATOM     23  O   LIG d   1       5.710  89.153 112.608  0.00  0.00    -0.241 OA
ATOM     24  O   LIG d   1       4.059  90.423 113.179  0.00  0.00    -0.241 OA
ENDBRANCH   3  22
TORSDOF 7
ENDMDL
