MODEL 1
REMARK VINA RESULT:      -6.0      0.000      0.000
REMARK  7 active torsions:
REMARK  status: ('A' for Active; 'I' for Inactive)
REMARK    1  A    between atoms: C_2  and  C_3 
REMARK    2  A    between atoms: C_3  and  O_6 
REMARK    3  A    between atoms: C_3  and  C_4 
REMARK    4  A    between atoms: C_7  and  O_6 
REMARK    5  A    between atoms: C_9  and  C_10 
REMARK    6  A    between atoms: N_15  and  C_14 
REMARK    7  A    between atoms: N_20  and  C_19 
REMARK       I    between atoms: C_22  and  N_20 
ROOT
ATOM      1  C   LIG d   1     -16.181  66.032 114.307  0.00  0.00     0.161 C 
ATOM      2  C   LIG d   1     -15.627  66.850 113.309  0.00  0.00     0.016 C 
ATOM      3  C   LIG d   1     -15.045  68.112 113.570  0.00  0.00     0.038 C 
ATOM      4  C   LIG d   1     -14.842  68.578 114.878  0.00  0.00     0.028 C 
ATOM      5  C   LIG d   1     -15.840  68.014 115.884  0.00  0.00    -0.047 C 
ATOM      6  C   LIG d   1     -15.869  66.475 115.752  0.00  0.00     0.091 C 
ENDROOT
BRANCH   1   7
ATOM      7  O   LIG d   1     -15.773  64.665 114.102  0.00  0.00    -0.368 OA
BRANCH   7   8
ATOM      8  C   LIG d   1     -16.828  63.726 113.784  0.00  0.00     0.119 C 
BRANCH   8   9
ATOM      9  C   LIG d   1     -18.137  64.528 113.648  0.00  0.00     0.028 C 
ATOM     10  C   LIG d   1     -18.857  64.254 112.317  0.00  0.00     0.006 C 
ENDBRANCH   8   9
BRANCH   8  11
ATOM     11  C   LIG d   1     -17.070  62.747 114.937  0.00  0.00     0.028 C 
ATOM     12  C   LIG d   1     -17.778  61.459 114.488  0.00  0.00     0.006 C 
ENDBRANCH   8  11
ENDBRANCH   7   8
ENDBRANCH   1   7
BRANCH   6  13
ATOM     13  N   LIG d   1     -16.881  65.849 116.643  0.00  0.00    -0.311 N 
ATOM     14  C   LIG d   1     -16.596  65.365 117.851  0.00  0.00     0.210 C 
ATOM     15  C   LIG d   1     -17.782  64.744 118.595  0.00  0.00     0.109 C 
ATOM     16  O   LIG d   1     -15.481  65.420 118.389  0.00  0.00    -0.276 OA
ATOM     17  H   LIG d   1     -17.819  65.791 116.297  0.00  0.00     0.149 HD
ENDBRANCH   6  13
BRANCH   5  18
ATOM     18  N   LIG d   1     -15.429  68.473 117.224  0.00  0.00     0.381 N 
ATOM     19  H   LIG d   1     -14.569  68.979 117.160  0.00  0.00    -0.090 HD
ATOM     20  H   LIG d   1     -15.280  67.671 117.810  0.00  0.00    -0.090 HD
ATOM     21  H   LIG d   1     -16.136  69.054 117.617  0.00  0.00    -0.090 HD
ENDBRANCH   5  18
BRANCH   3  22
ATOM     22  C   LIG d   1     -14.696  68.940 112.514  0.00  0.00     0.382 C 
ATOM     23  O   LIG d   1     -13.545  68.875 112.021  0.00  0.00    -0.241 OA
ATOM     24  O   LIG d   1     -15.504  69.782 112.077  0.00  0.00    -0.241 OA
ENDBRANCH   3  22
TORSDOF 7
ENDMDL
MODEL 2
REMARK VINA RESULT:      -5.5     14.068     16.598
REMARK  7 active torsions:
REMARK  status: ('A' for Active; 'I' for Inactive)
REMARK    1  A    between atoms: C_2  and  C_3 
REMARK    2  A    between atoms: C_3  and  O_6 
REMARK    3  A    between atoms: C_3  and  C_4 
REMARK    4  A    between atoms: C_7  and  O_6 
REMARK    5  A    between atoms: C_9  and  C_10 
REMARK    6  A    between atoms: N_15  and  C_14 
REMARK    7  A    between atoms: N_20  and  C_19 
REMARK       I    between atoms: C_22  and  N_20 
ROOT
ATOM      1  C   LIG d   1      -3.188  75.853 115.328  0.00  0.00     0.161 C 
ATOM      2  C   LIG d   1      -3.387  76.851 114.360  0.00  0.00     0.016 C 
ATOM      3  C   LIG d   1      -2.337  77.623 113.811  0.00  0.00     0.038 C 
ATOM      4  C   LIG d   1      -0.990  77.343 114.086  0.00  0.00     0.028 C 
ATOM      5  C   LIG d   1      -0.773  76.679 115.442  0.00  0.00    -0.047 C 
ATOM      6  C   LIG d   1      -1.714  75.458 115.558  0.00  0.00     0.091 C 
ENDROOT
BRANCH   1   7
ATOM      7  O   LIG d   1      -3.973  74.689 114.999  0.00  0.00    -0.368 OA
BRANCH   7   8
ATOM      8  C   LIG d   1      -4.894  74.231 116.019  0.00  0.00     0.119 C 
BRANCH   8   9
ATOM      9  C   LIG d   1      -6.099  73.592 115.302  0.00  0.00     0.028 C 
ATOM     10  C   LIG d   1      -6.676  72.397 116.079  0.00  0.00     0.006 C 
ENDBRANCH   8   9
BRANCH   8  11
ATOM     11  C   LIG d   1      -5.472  75.405 116.815  0.00  0.00     0.028 C 
ATOM     12  C   LIG d   1      -6.672  76.065 116.118  0.00  0.00     0.006 C 
ENDBRANCH   8  11
ENDBRANCH   7   8
ENDBRANCH   1   7
BRANCH   6  13
ATOM     13  N   LIG d   1      -1.627  74.800 116.888  0.00  0.00    -0.311 N 
ATOM     14  C   LIG d   1      -1.085  73.598 117.076  0.00  0.00     0.210 C 
ATOM     15  C   LIG d   1      -1.115  73.095 118.523  0.00  0.00     0.109 C 
ATOM     16  O   LIG d   1      -0.553  72.915 116.188  0.00  0.00    -0.276 OA
ATOM     17  H   LIG d   1      -2.006  75.298 117.669  0.00  0.00     0.149 HD
ENDBRANCH   6  13
BRANCH   5  18
ATOM     18  N   LIG d   1       0.654  76.319 115.539  0.00  0.00     0.381 N 
ATOM     19  H   LIG d   1       1.215  77.049 115.146  0.00  0.00    -0.090 HD
ATOM     20  H   LIG d   1       0.815  75.480 115.011  0.00  0.00    -0.090 HD
ATOM     21  H   LIG d   1       0.905  76.174 116.492  0.00  0.00    -0.090 HD
ENDBRANCH   5  18
BRANCH   3  22
ATOM     22  C   LIG d   1      -2.632  78.714 113.009  0.00  0.00     0.382 C 
ATOM     23  O   LIG d   1      -2.347  78.689 111.787  0.00  0.00    -0.241 OA
ATOM     24  O   LIG d   1      -3.141  79.740 113.499  0.00  0.00    -0.241 OA
ENDBRANCH   3  22
TORSDOF 7
ENDMDL
MODEL 3
REMARK VINA RESULT:      -5.4      2.585      4.264
REMARK  7 active torsions:
REMARK  status: ('A' for Active; 'I' for Inactive)
REMARK    1  A    between atoms: C_2  and  C_3 
REMARK    2  A    between atoms: C_3  and  O_6 
REMARK    3  A    between atoms: C_3  and  C_4 
REMARK    4  A    between atoms: C_7  and  O_6 
REMARK    5  A    between atoms: C_9  and  C_10 
REMARK    6  A    between atoms: N_15  and  C_14 
REMARK    7  A    between atoms: N_20  and  C_19 
REMARK       I    between atoms: C_22  and  N_20 
ROOT
ATOM      1  C   LIG d   1     -16.344  64.605 116.558  0.00  0.00     0.161 C 
ATOM      2  C   LIG d   1     -15.746  65.854 116.796  0.00  0.00     0.016 C 
ATOM      3  C   LIG d   1     -15.357  66.740 115.764  0.00  0.00     0.038 C 
ATOM      4  C   LIG d   1     -15.679  66.500 114.420  0.00  0.00     0.028 C 
ATOM      5  C   LIG d   1     -15.831  65.019 114.089  0.00  0.00    -0.047 C 
ATOM      6  C   LIG d   1     -16.804  64.375 115.103  0.00  0.00     0.091 C 
ENDROOT
BRANCH   1   7
ATOM      7  O   LIG d   1     -17.444  64.409 117.469  0.00  0.00    -0.368 OA
BRANCH   7   8
ATOM      8  C   LIG d   1     -18.749  64.816 116.989  0.00  0.00     0.119 C 
BRANCH   8   9
ATOM      9  C   LIG d   1     -19.242  65.955 117.902  0.00  0.00     0.028 C 
ATOM     10  C   LIG d   1     -19.194  67.327 117.208  0.00  0.00     0.006 C 
ENDBRANCH   8   9
BRANCH   8  11
ATOM     11  C   LIG d   1     -19.777  63.693 117.150  0.00  0.00     0.028 C 
ATOM     12  C   LIG d   1     -20.959  63.823 116.176  0.00  0.00     0.006 C 
ENDBRANCH   8  11
ENDBRANCH   7   8
ENDBRANCH   1   7
BRANCH   6  13
ATOM     13  N   LIG d   1     -16.944  62.909 114.902  0.00  0.00    -0.311 N 
ATOM     14  C   LIG d   1     -17.903  62.359 114.160  0.00  0.00     0.210 C 
ATOM     15  C   LIG d   1     -17.878  60.829 114.101  0.00  0.00     0.109 C 
ATOM     16  O   LIG d   1     -18.753  62.995 113.518  0.00  0.00    -0.276 OA
ATOM     17  H   LIG d   1     -16.277  62.320 115.362  0.00  0.00     0.149 HD
ENDBRANCH   6  13
BRANCH   5  18
ATOM     18  N   LIG d   1     -16.302  64.921 112.694  0.00  0.00     0.381 N 
ATOM     19  H   LIG d   1     -17.168  64.421 112.663  0.00  0.00    -0.090 HD
ATOM     20  H   LIG d   1     -15.623  64.409 112.158  0.00  0.00    -0.090 HD
ATOM     21  H   LIG d   1     -16.421  65.832 112.310  0.00  0.00    -0.090 HD
ENDBRANCH   5  18
BRANCH   3  22
ATOM     22  C   LIG d   1     -14.602  67.862 116.071  0.00  0.00     0.382 C 
ATOM     23  O   LIG d   1     -13.604  67.759 116.825  0.00  0.00    -0.241 OA
ATOM     24  O   LIG d   1     -14.932  68.982 115.638  0.00  0.00    -0.241 OA
ENDBRANCH   3  22
TORSDOF 7
ENDMDL
MODEL 4
REMARK VINA RESULT:      -5.3     24.564     27.733
REMARK  7 active torsions:
REMARK  status: ('A' for Active; 'I' for Inactive)
REMARK    1  A    between atoms: C_2  and  C_3 
REMARK    2  A    between atoms: C_3  and  O_6 
REMARK    3  A    between atoms: C_3  and  C_4 
REMARK    4  A    between atoms: C_7  and  O_6 
REMARK    5  A    between atoms: C_9  and  C_10 
REMARK    6  A    between atoms: N_15  and  C_14 
REMARK    7  A    between atoms: N_20  and  C_19 
REMARK       I    between atoms: C_22  and  N_20 
ROOT
ATOM      1  C   LIG d   1       2.864  85.408 113.600  0.00  0.00     0.161 C 
ATOM      2  C   LIG d   1       3.738  86.452 113.946  0.00  0.00     0.016 C 
ATOM      3  C   LIG d   1       3.653  87.752 113.397  0.00  0.00     0.038 C 
ATOM      4  C   LIG d   1       2.586  88.141 112.573  0.00  0.00     0.028 C 
ATOM      5  C   LIG d   1       1.965  86.982 111.800  0.00  0.00    -0.047 C 
ATOM      6  C   LIG d   1       1.627  85.843 112.788  0.00  0.00     0.091 C 
ENDROOT
BRANCH   1   7
ATOM      7  O   LIG d   1       2.460  84.697 114.787  0.00  0.00    -0.368 OA
BRANCH   7   8
ATOM      8  C   LIG d   1       3.155  85.048 116.009  0.00  0.00     0.119 C 
BRANCH   8   9
ATOM      9  C   LIG d   1       3.868  83.779 116.517  0.00  0.00     0.028 C 
ATOM     10  C   LIG d   1       5.276  84.075 117.058  0.00  0.00     0.006 C 
ENDBRANCH   8   9
BRANCH   8  11
ATOM     11  C   LIG d   1       2.172  85.432 117.118  0.00  0.00     0.028 C 
ATOM     12  C   LIG d   1       1.985  86.952 117.248  0.00  0.00     0.006 C 
ENDBRANCH   8  11
ENDBRANCH   7   8
ENDBRANCH   1   7
BRANCH   6  13
ATOM     13  N   LIG d   1       1.093  84.637 112.102  0.00  0.00    -0.311 N 
ATOM     14  C   LIG d   1      -0.204  84.439 111.871  0.00  0.00     0.210 C 
ATOM     15  C   LIG d   1      -0.541  83.121 111.168  0.00  0.00     0.109 C 
ATOM     16  O   LIG d   1      -1.104  85.245 112.153  0.00  0.00    -0.276 OA
ATOM     17  H   LIG d   1       1.757  83.946 111.811  0.00  0.00     0.149 HD
ENDBRANCH   6  13
BRANCH   5  18
ATOM     18  N   LIG d   1       0.781  87.503 111.090  0.00  0.00     0.381 N 
ATOM     19  H   LIG d   1       0.989  87.609 110.117  0.00  0.00    -0.090 HD
ATOM     20  H   LIG d   1       0.551  88.407 111.463  0.00  0.00    -0.090 HD
ATOM     21  H   LIG d   1       0.012  86.881 111.208  0.00  0.00    -0.090 HD
ENDBRANCH   5  18
BRANCH   3  22
ATOM     22  C   LIG d   1       4.664  88.669 113.640  0.00  0.00     0.382 C 
ATOM     23  O   LIG d   1       5.554  88.411 114.487  0.00  0.00    -0.241 OA
ATOM     24  O   LIG d   1       4.674  89.769 113.056  0.00  0.00    -0.241 OA
ENDBRANCH   3  22
TORSDOF 7
ENDMDL
MODEL 5
REMARK VINA RESULT:      -5.2     24.862     27.814
REMARK  7 active torsions:
REMARK  status: ('A' for Active; 'I' for Inactive)
REMARK    1  A    between atoms: C_2  and  C_3 
REMARK    2  A    between atoms: C_3  and  O_6 
REMARK    3  A    between atoms: C_3  and  C_4 
REMARK    4  A    between atoms: C_7  and  O_6 
REMARK    5  A    between atoms: C_9  and  C_10 
REMARK    6  A    between atoms: N_15  and  C_14 
REMARK    7  A    between atoms: N_20  and  C_19 
REMARK       I    between atoms: C_22  and  N_20 
ROOT
ATOM      1  C   LIG d   1       2.261  86.156 114.342  0.00  0.00     0.161 C 
ATOM      2  C   LIG d   1       2.783  87.416 114.006  0.00  0.00     0.016 C 
ATOM      3  C   LIG d   1       4.085  87.838 114.360  0.00  0.00     0.038 C 
ATOM      4  C   LIG d   1       5.013  86.966 114.949  0.00  0.00     0.028 C 
ATOM      5  C   LIG d   1       4.365  85.849 115.759  0.00  0.00    -0.047 C 
ATOM      6  C   LIG d   1       3.297  85.150 114.886  0.00  0.00     0.091 C 
ENDROOT
BRANCH   1   7
ATOM      7  O   LIG d   1       1.567  85.597 113.209  0.00  0.00    -0.368 OA
BRANCH   7   8
ATOM      8  C   LIG d   1       1.904  86.156 111.916  0.00  0.00     0.119 C 
BRANCH   8   9
ATOM      9  C   LIG d   1       0.584  86.411 111.164  0.00  0.00     0.028 C 
ATOM     10  C   LIG d   1      -0.601  85.650 111.782  0.00  0.00     0.006 C 
ENDBRANCH   8   9
BRANCH   8  11
ATOM     11  C   LIG d   1       2.672  85.148 111.056  0.00  0.00     0.028 C 
ATOM     12  C   LIG d   1       4.195  85.336 111.134  0.00  0.00     0.006 C 
ENDBRANCH   8  11
ENDBRANCH   7   8
ENDBRANCH   1   7
BRANCH   6  13
ATOM     13  N   LIG d   1       2.556  84.099 115.631  0.00  0.00    -0.311 N 
ATOM     14  C   LIG d   1       2.938  82.824 115.675  0.00  0.00     0.210 C 
ATOM     15  C   LIG d   1       2.020  81.901 116.482  0.00  0.00     0.109 C 
ATOM     16  O   LIG d   1       3.968  82.376 115.148  0.00  0.00    -0.276 OA
ATOM     17  H   LIG d   1       1.725  84.382 116.112  0.00  0.00     0.149 HD
ENDBRANCH   6  13
BRANCH   5  18
ATOM     18  N   LIG d   1       5.438  84.937 116.200  0.00  0.00     0.381 N 
ATOM     19  H   LIG d   1       5.199  84.535 117.084  0.00  0.00    -0.090 HD
ATOM     20  H   LIG d   1       6.286  85.464 116.311  0.00  0.00    -0.090 HD
ATOM     21  H   LIG d   1       5.572  84.217 115.525  0.00  0.00    -0.090 HD
ENDBRANCH   5  18
BRANCH   3  22
ATOM     22  C   LIG d   1       4.457  89.159 114.162  0.00  0.00     0.382 C 
ATOM     23  O   LIG d   1       4.381  89.667 113.018  0.00  0.00    -0.241 OA
ATOM     24  O   LIG d   1       4.910  89.836 115.105  0.00  0.00    -0.241 OA
ENDBRANCH   3  22
TORSDOF 7
ENDMDL
MODEL 6
REMARK VINA RESULT:      -5.0     11.822     15.015
REMARK  7 active torsions:
REMARK  status: ('A' for Active; 'I' for Inactive)
REMARK    1  A    between atoms: C_2  and  C_3 
REMARK    2  A    between atoms: C_3  and  O_6 
REMARK    3  A    between atoms: C_3  and  C_4 
REMARK    4  A    between atoms: C_7  and  O_6 
REMARK    5  A    between atoms: C_9  and  C_10 
REMARK    6  A    between atoms: N_15  and  C_14 
REMARK    7  A    between atoms: N_20  and  C_19 
REMARK       I    between atoms: C_22  and  N_20 
ROOT
ATOM      1  C   LIG d   1      -5.575  75.109 116.347  0.00  0.00     0.161 C 
ATOM      2  C   LIG d   1      -6.042  73.812 116.075  0.00  0.00     0.016 C 
ATOM      3  C   LIG d   1      -7.211  73.268 116.655  0.00  0.00     0.038 C 
ATOM      4  C   LIG d   1      -8.082  74.044 117.435  0.00  0.00     0.028 C 
ATOM      5  C   LIG d   1      -7.389  75.203 118.144  0.00  0.00    -0.047 C 
ATOM      6  C   LIG d   1      -6.571  76.008 117.108  0.00  0.00     0.091 C 
ENDROOT
BRANCH   1   7
ATOM      7  O   LIG d   1      -5.160  75.745 115.122  0.00  0.00    -0.368 OA
BRANCH   7   8
ATOM      8  C   LIG d   1      -3.733  75.781 114.874  0.00  0.00     0.119 C 
BRANCH   8   9
ATOM      9  C   LIG d   1      -3.024  75.471 116.206  0.00  0.00     0.028 C 
ATOM     10  C   LIG d   1      -1.931  74.400 116.053  0.00  0.00     0.006 C 
ENDBRANCH   8   9
BRANCH   8  11
ATOM     11  C   LIG d   1      -3.271  77.189 114.486  0.00  0.00     0.028 C 
ATOM     12  C   LIG d   1      -2.938  78.063 115.706  0.00  0.00     0.006 C 
ENDBRANCH   8  11
ENDBRANCH   7   8
ENDBRANCH   1   7
BRANCH   6  13
ATOM     13  N   LIG d   1      -5.795  77.111 117.732  0.00  0.00    -0.311 N 
ATOM     14  C   LIG d   1      -6.258  78.353 117.859  0.00  0.00     0.210 C 
ATOM     15  C   LIG d   1      -5.288  79.342 118.514  0.00  0.00     0.109 C 
ATOM     16  O   LIG d   1      -7.392  78.723 117.520  0.00  0.00    -0.276 OA
ATOM     17  H   LIG d   1      -4.876  76.891 118.063  0.00  0.00     0.149 HD
ENDBRANCH   6  13
BRANCH   5  18
ATOM     18  N   LIG d   1      -8.433  76.008 118.807  0.00  0.00     0.381 N 
ATOM     19  H   LIG d   1      -8.336  75.936 119.800  0.00  0.00    -0.090 HD
ATOM     20  H   LIG d   1      -9.335  75.644 118.552  0.00  0.00    -0.090 HD
ATOM     21  H   LIG d   1      -8.359  76.961 118.526  0.00  0.00    -0.090 HD
ENDBRANCH   5  18
BRANCH   3  22
ATOM     22  C   LIG d   1      -7.499  71.922 116.489  0.00  0.00     0.382 C 
ATOM     23  O   LIG d   1      -6.961  71.276 115.558  0.00  0.00    -0.241 OA
ATOM     24  O   LIG d   1      -8.324  71.356 117.231  0.00  0.00    -0.241 OA
ENDBRANCH   3  22
TORSDOF 7
ENDMDL
MODEL 7
REMARK VINA RESULT:      -4.9     23.209     26.355
REMARK  7 active torsions:
REMARK  status: ('A' for Active; 'I' for Inactive)
REMARK    1  A    between atoms: C_2  and  C_3 
REMARK    2  A    between atoms: C_3  and  O_6 
REMARK    3  A    between atoms: C_3  and  C_4 
REMARK    4  A    between atoms: C_7  and  O_6 
REMARK    5  A    between atoms: C_9  and  C_10 
REMARK    6  A    between atoms: N_15  and  C_14 
REMARK    7  A    between atoms: N_20  and  C_19 
REMARK       I    between atoms: C_22  and  N_20 
ROOT
ATOM      1  C   LIG d   1       3.401  84.362 112.231  0.00  0.00     0.161 C 
ATOM      2  C   LIG d   1       3.551  85.741 112.453  0.00  0.00     0.016 C 
ATOM      3  C   LIG d   1       2.466  86.646 112.483  0.00  0.00     0.038 C 
ATOM      4  C   LIG d   1       1.134  86.209 112.442  0.00  0.00     0.028 C 
ATOM      5  C   LIG d   1       0.954  84.882 111.712  0.00  0.00    -0.047 C 
ATOM      6  C   LIG d   1       1.947  83.851 112.294  0.00  0.00     0.091 C 
ENDROOT
BRANCH   1   7
ATOM      7  O   LIG d   1       4.232  83.625 113.150  0.00  0.00    -0.368 OA
BRANCH   7   8
ATOM      8  C   LIG d   1       3.624  83.275 114.418  0.00  0.00     0.119 C 
BRANCH   8   9
ATOM      9  C   LIG d   1       4.380  84.041 115.521  0.00  0.00     0.028 C 
ATOM     10  C   LIG d   1       3.536  85.170 116.135  0.00  0.00     0.006 C 
ENDBRANCH   8   9
BRANCH   8  11
ATOM     11  C   LIG d   1       3.827  81.792 114.742  0.00  0.00     0.028 C 
ATOM     12  C   LIG d   1       2.657  81.191 115.537  0.00  0.00     0.006 C 
ENDBRANCH   8  11
ENDBRANCH   7   8
ENDBRANCH   1   7
BRANCH   6  13
ATOM     13  N   LIG d   1       1.896  82.549 111.580  0.00  0.00    -0.311 N 
ATOM     14  C   LIG d   1       1.128  81.530 111.965  0.00  0.00     0.210 C 
ATOM     15  C   LIG d   1       1.241  80.272 111.099  0.00  0.00     0.109 C 
ATOM     16  O   LIG d   1       0.341  81.561 112.923  0.00  0.00    -0.276 OA
ATOM     17  H   LIG d   1       2.480  82.448 110.773  0.00  0.00     0.149 HD
ENDBRANCH   6  13
BRANCH   5  18
ATOM     18  N   LIG d   1      -0.456  84.477 111.864  0.00  0.00     0.381 N 
ATOM     19  H   LIG d   1      -0.813  84.814 112.736  0.00  0.00    -0.090 HD
ATOM     20  H   LIG d   1      -0.508  83.474 111.868  0.00  0.00    -0.090 HD
ATOM     21  H   LIG d   1      -0.999  84.842 111.112  0.00  0.00    -0.090 HD
ENDBRANCH   5  18
BRANCH   3  22
ATOM     22  C   LIG d   1       2.711  88.011 112.514  0.00  0.00     0.382 C 
ATOM     23  O   LIG d   1       3.848  88.437 112.830  0.00  0.00    -0.241 OA
ATOM     24  O   LIG d   1       1.796  88.822 112.275  0.00  0.00    -0.241 OA
ENDBRANCH   3  22
TORSDOF 7
ENDMDL
MODEL 8
REMARK VINA RESULT:      -4.9     14.522     17.401
REMARK  7 active torsions:
REMARK  status: ('A' for Active; 'I' for Inactive)
REMARK    1  A    between atoms: C_2  and  C_3 
REMARK    2  A    between atoms: C_3  and  O_6 
REMARK    3  A    between atoms: C_3  and  C_4 
REMARK    4  A    between atoms: C_7  and  O_6 
REMARK    5  A    between atoms: C_9  and  C_10 
REMARK    6  A    between atoms: N_15  and  C_14 
REMARK    7  A    between atoms: N_20  and  C_19 
REMARK       I    between atoms: C_22  and  N_20 
ROOT
ATOM      1  C   LIG d   1      -2.186  75.074 115.052  0.00  0.00     0.161 C 
ATOM      2  C   LIG d   1      -1.980  74.217 116.146  0.00  0.00     0.016 C 
ATOM      3  C   LIG d   1      -1.074  74.497 117.194  0.00  0.00     0.038 C 
ATOM      4  C   LIG d   1      -0.418  75.733 117.297  0.00  0.00     0.028 C 
ATOM      5  C   LIG d   1      -0.211  76.423 115.953  0.00  0.00    -0.047 C 
ATOM      6  C   LIG d   1      -1.562  76.477 115.204  0.00  0.00     0.091 C 
ENDROOT
BRANCH   1   7
ATOM      7  O   LIG d   1      -3.596  75.180 114.772  0.00  0.00    -0.368 OA
BRANCH   7   8
ATOM      8  C   LIG d   1      -4.487  74.614 115.765  0.00  0.00     0.119 C 
BRANCH   8   9
ATOM      9  C   LIG d   1      -5.559  73.800 115.014  0.00  0.00     0.028 C 
ATOM     10  C   LIG d   1      -6.387  72.911 115.956  0.00  0.00     0.006 C 
ENDBRANCH   8   9
BRANCH   8  11
ATOM     11  C   LIG d   1      -5.256  75.708 116.511  0.00  0.00     0.028 C 
ATOM     12  C   LIG d   1      -4.633  76.051 117.873  0.00  0.00     0.006 C 
ENDBRANCH   8  11
ENDBRANCH   7   8
ENDBRANCH   1   7
BRANCH   6  13
ATOM     13  N   LIG d   1      -1.432  77.062 113.843  0.00  0.00    -0.311 N 
ATOM     14  C   LIG d   1      -2.259  77.989 113.362  0.00  0.00     0.210 C 
ATOM     15  C   LIG d   1      -1.959  78.441 111.929  0.00  0.00     0.109 C 
ATOM     16  O   LIG d   1      -3.191  78.503 113.997  0.00  0.00    -0.276 OA
ATOM     17  H   LIG d   1      -0.683  76.724 113.271  0.00  0.00     0.149 HD
ENDBRANCH   6  13
BRANCH   5  18
ATOM     18  N   LIG d   1       0.356  77.758 116.220  0.00  0.00     0.381 N 
ATOM     19  H   LIG d   1      -0.190  78.457 115.758  0.00  0.00    -0.090 HD
ATOM     20  H   LIG d   1       1.291  77.793 115.851  0.00  0.00    -0.090 HD
ATOM     21  H   LIG d   1       0.372  77.932 117.201  0.00  0.00    -0.090 HD
ENDBRANCH   5  18
BRANCH   3  22
ATOM     22  C   LIG d   1      -0.786  73.518 118.133  0.00  0.00     0.382 C 
ATOM     23  O   LIG d   1       0.205  73.649 118.891  0.00  0.00    -0.241 OA
ATOM     24  O   LIG d   1      -1.478  72.485 118.202  0.00  0.00    -0.241 OA
ENDBRANCH   3  22
TORSDOF 7
ENDMDL
MODEL 9
REMARK VINA RESULT:      -4.9     28.555     30.668
REMARK  7 active torsions:
REMARK  status: ('A' for Active; 'I' for Inactive)
REMARK    1  A    between atoms: C_2  and  C_3 
REMARK    2  A    between atoms: C_3  and  O_6 
REMARK    3  A    between atoms: C_3  and  C_4 
REMARK    4  A    between atoms: C_7  and  O_6 
REMARK    5  A    between atoms: C_9  and  C_10 
REMARK    6  A    between atoms: N_15  and  C_14 
REMARK    7  A    between atoms: N_20  and  C_19 
REMARK       I    between atoms: C_22  and  N_20 
ROOT
ATOM      1  C   LIG d   1       3.803  88.617 115.643  0.00  0.00     0.161 C 
ATOM      2  C   LIG d   1       2.959  88.005 114.701  0.00  0.00     0.016 C 
ATOM      3  C   LIG d   1       3.299  87.846 113.338  0.00  0.00     0.038 C 
ATOM      4  C   LIG d   1       4.578  88.156 112.852  0.00  0.00     0.028 C 
ATOM      5  C   LIG d   1       5.286  89.241 113.657  0.00  0.00    -0.047 C 
ATOM      6  C   LIG d   1       5.246  88.860 115.155  0.00  0.00     0.091 C 
ENDROOT
BRANCH   1   7
ATOM      7  O   LIG d   1       3.809  87.851 116.864  0.00  0.00    -0.368 OA
BRANCH   7   8
ATOM      8  C   LIG d   1       3.034  88.395 117.961  0.00  0.00     0.119 C 
BRANCH   8   9
ATOM      9  C   LIG d   1       1.636  87.751 117.903  0.00  0.00     0.028 C 
ATOM     10  C   LIG d   1       0.524  88.782 117.647  0.00  0.00     0.006 C 
ENDBRANCH   8   9
BRANCH   8  11
ATOM     11  C   LIG d   1       2.796  89.897 117.784  0.00  0.00     0.028 C 
ATOM     12  C   LIG d   1       3.612  90.750 118.769  0.00  0.00     0.006 C 
ENDBRANCH   8  11
ENDBRANCH   7   8
ENDBRANCH   1   7
BRANCH   6  13
ATOM     13  N   LIG d   1       5.843  89.910 116.022  0.00  0.00    -0.311 N 
ATOM     14  C   LIG d   1       6.912  89.706 116.790  0.00  0.00     0.210 C 
ATOM     15  C   LIG d   1       7.351  90.916 117.621  0.00  0.00     0.109 C 
ATOM     16  O   LIG d   1       7.556  88.648 116.839  0.00  0.00    -0.276 OA
ATOM     17  H   LIG d   1       5.401  90.808 116.020  0.00  0.00     0.149 HD
ENDBRANCH   6  13
BRANCH   5  18
ATOM     18  N   LIG d   1       6.657  89.366 113.128  0.00  0.00     0.381 N 
ATOM     19  H   LIG d   1       7.317  89.276 113.874  0.00  0.00    -0.090 HD
ATOM     20  H   LIG d   1       6.765  90.277 112.719  0.00  0.00    -0.090 HD
ATOM     21  H   LIG d   1       6.823  88.663 112.442  0.00  0.00    -0.090 HD
ENDBRANCH   5  18
BRANCH   3  22
ATOM     22  C   LIG d   1       2.340  87.409 112.437  0.00  0.00     0.382 C 
ATOM     23  O   LIG d   1       2.440  87.708 111.222  0.00  0.00    -0.241 OA
ATOM     24  O   LIG d   1       1.354  86.758 112.830  0.00  0.00    -0.241 OA
ENDBRANCH   3  22
TORSDOF 7
ENDMDL
