MODEL 1
REMARK VINA RESULT:      -5.5      0.000      0.000
REMARK  7 active torsions:
REMARK  status: ('A' for Active; 'I' for Inactive)
REMARK    1  A    between atoms: C_2  and  C_3 
REMARK    2  A    between atoms: C_3  and  O_6 
REMARK    3  A    between atoms: C_3  and  C_4 
REMARK    4  A    between atoms: C_7  and  O_6 
REMARK    5  A    between atoms: C_9  and  C_10 
REMARK    6  A    between atoms: N_15  and  C_14 
REMARK    7  A    between atoms: N_20  and  C_19 
REMARK       I    between atoms: C_22  and  N_20 
ROOT
ATOM      1  C   LIG d   1      -2.278  78.450 115.637  0.00  0.00     0.161 C 
ATOM      2  C   LIG d   1      -2.520  79.672 114.987  0.00  0.00     0.016 C 
ATOM      3  C   LIG d   1      -2.265  79.886 113.613  0.00  0.00     0.038 C 
ATOM      4  C   LIG d   1      -1.890  78.840 112.756  0.00  0.00     0.028 C 
ATOM      5  C   LIG d   1      -1.149  77.712 113.467  0.00  0.00    -0.047 C 
ATOM      6  C   LIG d   1      -1.973  77.266 114.696  0.00  0.00     0.091 C 
ENDROOT
BRANCH   1   7
ATOM      7  O   LIG d   1      -3.384  78.130 116.503  0.00  0.00    -0.368 OA
BRANCH   7   8
ATOM      8  C   LIG d   1      -4.707  78.366 115.961  0.00  0.00     0.119 C 
BRANCH   8   9
ATOM      9  C   LIG d   1      -5.518  79.122 117.032  0.00  0.00     0.028 C 
ATOM     10  C   LIG d   1      -5.235  80.634 117.022  0.00  0.00     0.006 C 
ENDBRANCH   8   9
BRANCH   8  11
ATOM     11  C   LIG d   1      -5.460  77.052 115.736  0.00  0.00     0.028 C 
ATOM     12  C   LIG d   1      -5.522  76.646 114.255  0.00  0.00     0.006 C 
ENDBRANCH   8  11
ENDBRANCH   7   8
ENDBRANCH   1   7
BRANCH   6  13
ATOM     13  N   LIG d   1      -1.279  76.223 115.495  0.00  0.00    -0.311 N 
ATOM     14  C   LIG d   1      -1.810  75.031 115.762  0.00  0.00     0.210 C 
ATOM     15  C   LIG d   1      -0.935  74.112 116.620  0.00  0.00     0.109 C 
ATOM     16  O   LIG d   1      -2.908  74.635 115.343  0.00  0.00    -0.276 OA
ATOM     17  H   LIG d   1      -0.370  76.449 115.848  0.00  0.00     0.149 HD
ENDBRANCH   6  13
BRANCH   5  18
ATOM     18  N   LIG d   1      -0.940  76.630 112.487  0.00  0.00     0.381 N 
ATOM     19  H   LIG d   1      -0.170  76.059 112.772  0.00  0.00    -0.090 HD
ATOM     20  H   LIG d   1      -0.717  77.037 111.595  0.00  0.00    -0.090 HD
ATOM     21  H   LIG d   1      -1.764  76.075 112.410  0.00  0.00    -0.090 HD
ENDBRANCH   5  18
BRANCH   3  22
ATOM     22  C   LIG d   1      -2.347  81.168 113.090  0.00  0.00     0.382 C 
ATOM     23  O   LIG d   1      -1.368  81.947 113.184  0.00  0.00    -0.241 OA
ATOM     24  O   LIG d   1      -3.403  81.570 112.565  0.00  0.00    -0.241 OA
ENDBRANCH   3  22
TORSDOF 7
ENDMDL
MODEL 2
REMARK VINA RESULT:      -5.5      1.735      2.525
REMARK  7 active torsions:
REMARK  status: ('A' for Active; 'I' for Inactive)
REMARK    1  A    between atoms: C_2  and  C_3 
REMARK    2  A    between atoms: C_3  and  O_6 
REMARK    3  A    between atoms: C_3  and  C_4 
REMARK    4  A    between atoms: C_7  and  O_6 
REMARK    5  A    between atoms: C_9  and  C_10 
REMARK    6  A    between atoms: N_15  and  C_14 
REMARK    7  A    between atoms: N_20  and  C_19 
REMARK       I    between atoms: C_22  and  N_20 
ROOT
ATOM      1  C   LIG d   1      -2.451  78.200 114.834  0.00  0.00     0.161 C 
ATOM      2  C   LIG d   1      -2.762  79.304 114.023  0.00  0.00     0.016 C 
ATOM      3  C   LIG d   1      -1.805  80.258 113.606  0.00  0.00     0.038 C 
ATOM      4  C   LIG d   1      -0.434  80.087 113.849  0.00  0.00     0.028 C 
ATOM      5  C   LIG d   1      -0.138  79.256 115.092  0.00  0.00    -0.047 C 
ATOM      6  C   LIG d   1      -0.942  77.937 115.017  0.00  0.00     0.091 C 
ENDROOT
BRANCH   1   7
ATOM      7  O   LIG d   1      -3.107  77.021 114.327  0.00  0.00    -0.368 OA
BRANCH   7   8
ATOM      8  C   LIG d   1      -3.884  76.262 115.287  0.00  0.00     0.119 C 
BRANCH   8   9
ATOM      9  C   LIG d   1      -5.058  75.617 114.525  0.00  0.00     0.028 C 
ATOM     10  C   LIG d   1      -5.323  74.170 114.973  0.00  0.00     0.006 C 
ENDBRANCH   8   9
BRANCH   8  11
ATOM     11  C   LIG d   1      -4.532  77.179 116.329  0.00  0.00     0.028 C 
ATOM     12  C   LIG d   1      -5.970  77.576 115.961  0.00  0.00     0.006 C 
ENDBRANCH   8  11
ENDBRANCH   7   8
ENDBRANCH   1   7
BRANCH   6  13
ATOM     13  N   LIG d   1      -0.775  77.101 116.234  0.00  0.00    -0.311 N 
ATOM     14  C   LIG d   1      -0.537  75.792 116.198  0.00  0.00     0.210 C 
ATOM     15  C   LIG d   1      -0.419  75.117 117.568  0.00  0.00     0.109 C 
ATOM     16  O   LIG d   1      -0.380  75.130 115.160  0.00  0.00    -0.276 OA
ATOM     17  H   LIG d   1      -0.856  77.563 117.119  0.00  0.00     0.149 HD
ENDBRANCH   6  13
BRANCH   5  18
ATOM     18  N   LIG d   1       1.320  79.042 115.149  0.00  0.00     0.381 N 
ATOM     19  H   LIG d   1       1.549  78.160 114.735  0.00  0.00    -0.090 HD
ATOM     20  H   LIG d   1       1.609  79.023 116.111  0.00  0.00    -0.090 HD
ATOM     21  H   LIG d   1       1.791  79.775 114.667  0.00  0.00    -0.090 HD
ENDBRANCH   5  18
BRANCH   3  22
ATOM     22  C   LIG d   1      -2.222  81.418 112.971  0.00  0.00     0.382 C 
ATOM     23  O   LIG d   1      -1.423  82.373 112.821  0.00  0.00    -0.241 OA
ATOM     24  O   LIG d   1      -3.401  81.539 112.586  0.00  0.00    -0.241 OA
ENDBRANCH   3  22
TORSDOF 7
ENDMDL
MODEL 3
REMARK VINA RESULT:      -5.1      7.925     10.298
REMARK  7 active torsions:
REMARK  status: ('A' for Active; 'I' for Inactive)
REMARK    1  A    between atoms: C_2  and  C_3 
REMARK    2  A    between atoms: C_3  and  O_6 
REMARK    3  A    between atoms: C_3  and  C_4 
REMARK    4  A    between atoms: C_7  and  O_6 
REMARK    5  A    between atoms: C_9  and  C_10 
REMARK    6  A    between atoms: N_15  and  C_14 
REMARK    7  A    between atoms: N_20  and  C_19 
REMARK       I    between atoms: C_22  and  N_20 
ROOT
ATOM      1  C   LIG d   1       2.091  86.131 114.463  0.00  0.00     0.161 C 
ATOM      2  C   LIG d   1       2.454  87.452 114.151  0.00  0.00     0.016 C 
ATOM      3  C   LIG d   1       3.606  88.086 114.670  0.00  0.00     0.038 C 
ATOM      4  C   LIG d   1       4.561  87.387 115.423  0.00  0.00     0.028 C 
ATOM      5  C   LIG d   1       3.983  86.196 116.180  0.00  0.00    -0.047 C 
ATOM      6  C   LIG d   1       3.179  85.317 115.194  0.00  0.00     0.091 C 
ENDROOT
BRANCH   1   7
ATOM      7  O   LIG d   1       1.669  85.445 113.268  0.00  0.00    -0.368 OA
BRANCH   7   8
ATOM      8  C   LIG d   1       2.058  86.054 112.012  0.00  0.00     0.119 C 
BRANCH   8   9
ATOM      9  C   LIG d   1       0.853  85.955 111.057  0.00  0.00     0.028 C 
ATOM     10  C   LIG d   1      -0.455  86.429 111.712  0.00  0.00     0.006 C 
ENDBRANCH   8   9
BRANCH   8  11
ATOM     11  C   LIG d   1       3.180  85.263 111.333  0.00  0.00     0.028 C 
ATOM     12  C   LIG d   1       3.330  83.839 111.894  0.00  0.00     0.006 C 
ENDBRANCH   8  11
ENDBRANCH   7   8
ENDBRANCH   1   7
BRANCH   6  13
ATOM     13  N   LIG d   1       2.509  84.175 115.869  0.00  0.00    -0.311 N 
ATOM     14  C   LIG d   1       3.051  82.963 115.970  0.00  0.00     0.210 C 
ATOM     15  C   LIG d   1       2.183  81.924 116.688  0.00  0.00     0.109 C 
ATOM     16  O   LIG d   1       4.181  82.657 115.562  0.00  0.00    -0.276 OA
ATOM     17  H   LIG d   1       1.601  84.343 116.257  0.00  0.00     0.149 HD
ENDBRANCH   6  13
BRANCH   5  18
ATOM     18  N   LIG d   1       5.107  85.478 116.809  0.00  0.00     0.381 N 
ATOM     19  H   LIG d   1       5.947  85.643 116.290  0.00  0.00    -0.090 HD
ATOM     20  H   LIG d   1       4.914  84.493 116.793  0.00  0.00    -0.090 HD
ATOM     21  H   LIG d   1       5.224  85.786 117.750  0.00  0.00    -0.090 HD
ENDBRANCH   5  18
BRANCH   3  22
ATOM     22  C   LIG d   1       3.791  89.445 114.470  0.00  0.00     0.382 C 
ATOM     23  O   LIG d   1       3.816  89.910 113.305  0.00  0.00    -0.241 OA
ATOM     24  O   LIG d   1       3.979  90.206 115.438  0.00  0.00    -0.241 OA
ENDBRANCH   3  22
TORSDOF 7
ENDMDL
MODEL 4
REMARK VINA RESULT:      -5.0      2.133      2.385
REMARK  7 active torsions:
REMARK  status: ('A' for Active; 'I' for Inactive)
REMARK    1  A    between atoms: C_2  and  C_3 
REMARK    2  A    between atoms: C_3  and  O_6 
REMARK    3  A    between atoms: C_3  and  C_4 
REMARK    4  A    between atoms: C_7  and  O_6 
REMARK    5  A    between atoms: C_9  and  C_10 
REMARK    6  A    between atoms: N_15  and  C_14 
REMARK    7  A    between atoms: N_20  and  C_19 
REMARK       I    between atoms: C_22  and  N_20 
ROOT
ATOM      1  C   LIG d   1      -1.923  79.110 115.946  0.00  0.00     0.161 C 
ATOM      2  C   LIG d   1      -2.415  79.924 114.912  0.00  0.00     0.016 C 
ATOM      3  C   LIG d   1      -1.588  80.532 113.940  0.00  0.00     0.038 C 
ATOM      4  C   LIG d   1      -0.219  80.242 113.845  0.00  0.00     0.028 C 
ATOM      5  C   LIG d   1       0.405  79.824 115.173  0.00  0.00    -0.047 C 
ATOM      6  C   LIG d   1      -0.446  78.693 115.793  0.00  0.00     0.091 C 
ENDROOT
BRANCH   1   7
ATOM      7  O   LIG d   1      -2.760  77.946 116.092  0.00  0.00    -0.368 OA
BRANCH   7   8
ATOM      8  C   LIG d   1      -3.942  77.903 115.255  0.00  0.00     0.119 C 
BRANCH   8   9
ATOM      9  C   LIG d   1      -5.145  77.600 116.169  0.00  0.00     0.028 C 
ATOM     10  C   LIG d   1      -5.812  78.878 116.704  0.00  0.00     0.006 C 
ENDBRANCH   8   9
BRANCH   8  11
ATOM     11  C   LIG d   1      -3.881  76.736 114.265  0.00  0.00     0.028 C 
ATOM     12  C   LIG d   1      -5.229  76.014 114.112  0.00  0.00     0.006 C 
ENDBRANCH   8  11
ENDBRANCH   7   8
ENDBRANCH   1   7
BRANCH   6  13
ATOM     13  N   LIG d   1       0.047  78.283 117.134  0.00  0.00    -0.311 N 
ATOM     14  C   LIG d   1       0.137  77.014 117.526  0.00  0.00     0.210 C 
ATOM     15  C   LIG d   1       0.652  76.813 118.955  0.00  0.00     0.109 C 
ATOM     16  O   LIG d   1      -0.129  76.033 116.814  0.00  0.00    -0.276 OA
ATOM     17  H   LIG d   1       0.315  79.014 117.765  0.00  0.00     0.149 HD
ENDBRANCH   6  13
BRANCH   5  18
ATOM     18  N   LIG d   1       1.798  79.419 114.903  0.00  0.00     0.381 N 
ATOM     19  H   LIG d   1       2.037  79.639 113.957  0.00  0.00    -0.090 HD
ATOM     20  H   LIG d   1       1.877  78.425 115.026  0.00  0.00    -0.090 HD
ATOM     21  H   LIG d   1       2.416  79.889 115.527  0.00  0.00    -0.090 HD
ENDBRANCH   5  18
BRANCH   3  22
ATOM     22  C   LIG d   1      -2.123  81.472 113.073  0.00  0.00     0.382 C 
ATOM     23  O   LIG d   1      -3.291  81.329 112.637  0.00  0.00    -0.241 OA
ATOM     24  O   LIG d   1      -1.438  82.437 112.686  0.00  0.00    -0.241 OA
ENDBRANCH   3  22
TORSDOF 7
ENDMDL
MODEL 5
REMARK VINA RESULT:      -4.9     21.684     23.648
REMARK  7 active torsions:
REMARK  status: ('A' for Active; 'I' for Inactive)
REMARK    1  A    between atoms: C_2  and  C_3 
REMARK    2  A    between atoms: C_3  and  O_6 
REMARK    3  A    between atoms: C_3  and  C_4 
REMARK    4  A    between atoms: C_7  and  O_6 
REMARK    5  A    between atoms: C_9  and  C_10 
REMARK    6  A    between atoms: N_15  and  C_14 
REMARK    7  A    between atoms: N_20  and  C_19 
REMARK       I    between atoms: C_22  and  N_20 
ROOT
ATOM      1  C   LIG d   1     -25.281  85.897 114.240  0.00  0.00     0.161 C 
ATOM      2  C   LIG d   1     -24.182  86.768 114.173  0.00  0.00     0.016 C 
ATOM      3  C   LIG d   1     -22.923  86.394 113.648  0.00  0.00     0.038 C 
ATOM      4  C   LIG d   1     -22.723  85.161 113.011  0.00  0.00     0.028 C 
ATOM      5  C   LIG d   1     -23.659  84.064 113.506  0.00  0.00    -0.047 C 
ATOM      6  C   LIG d   1     -25.114  84.583 113.448  0.00  0.00     0.091 C 
ENDROOT
BRANCH   1   7
ATOM      7  O   LIG d   1     -26.476  86.585 113.821  0.00  0.00    -0.368 OA
BRANCH   7   8
ATOM      8  C   LIG d   1     -26.291  87.662 112.870  0.00  0.00     0.119 C 
BRANCH   8   9
ATOM      9  C   LIG d   1     -27.184  88.835 113.319  0.00  0.00     0.028 C 
ATOM     10  C   LIG d   1     -26.541  89.665 114.443  0.00  0.00     0.006 C 
ENDBRANCH   8   9
BRANCH   8  11
ATOM     11  C   LIG d   1     -26.803  87.273 111.480  0.00  0.00     0.028 C 
ATOM     12  C   LIG d   1     -27.887  86.185 111.528  0.00  0.00     0.006 C 
ENDBRANCH   8  11
ENDBRANCH   7   8
ENDBRANCH   1   7
BRANCH   6  13
ATOM     13  N   LIG d   1     -26.088  83.602 113.994  0.00  0.00    -0.311 N 
ATOM     14  C   LIG d   1     -26.712  82.693 113.246  0.00  0.00     0.210 C 
ATOM     15  C   LIG d   1     -27.691  81.792 114.005  0.00  0.00     0.109 C 
ATOM     16  O   LIG d   1     -26.524  82.528 112.031  0.00  0.00    -0.276 OA
ATOM     17  H   LIG d   1     -26.277  83.645 114.977  0.00  0.00     0.149 HD
ENDBRANCH   6  13
BRANCH   5  18
ATOM     18  N   LIG d   1     -23.436  82.873 112.664  0.00  0.00     0.381 N 
ATOM     19  H   LIG d   1     -23.864  83.006 111.769  0.00  0.00    -0.090 HD
ATOM     20  H   LIG d   1     -23.866  82.079 113.104  0.00  0.00    -0.090 HD
ATOM     21  H   LIG d   1     -22.459  82.713 112.552  0.00  0.00    -0.090 HD
ENDBRANCH   5  18
BRANCH   3  22
ATOM     22  C   LIG d   1     -21.838  87.244 113.793  0.00  0.00     0.382 C 
ATOM     23  O   LIG d   1     -21.435  87.919 112.815  0.00  0.00    -0.241 OA
ATOM     24  O   LIG d   1     -21.229  87.312 114.878  0.00  0.00    -0.241 OA
ENDBRANCH   3  22
TORSDOF 7
ENDMDL
MODEL 6
REMARK VINA RESULT:      -4.8      2.631      3.552
REMARK  7 active torsions:
REMARK  status: ('A' for Active; 'I' for Inactive)
REMARK    1  A    between atoms: C_2  and  C_3 
REMARK    2  A    between atoms: C_3  and  O_6 
REMARK    3  A    between atoms: C_3  and  C_4 
REMARK    4  A    between atoms: C_7  and  O_6 
REMARK    5  A    between atoms: C_9  and  C_10 
REMARK    6  A    between atoms: N_15  and  C_14 
REMARK    7  A    between atoms: N_20  and  C_19 
REMARK       I    between atoms: C_22  and  N_20 
ROOT
ATOM      1  C   LIG d   1      -1.567  78.497 115.270  0.00  0.00     0.161 C 
ATOM      2  C   LIG d   1      -2.080  79.346 114.276  0.00  0.00     0.016 C 
ATOM      3  C   LIG d   1      -1.404  80.497 113.810  0.00  0.00     0.038 C 
ATOM      4  C   LIG d   1      -0.090  80.795 114.202  0.00  0.00     0.028 C 
ATOM      5  C   LIG d   1       0.270  80.247 115.579  0.00  0.00    -0.047 C 
ATOM      6  C   LIG d   1      -0.087  78.744 115.630  0.00  0.00     0.091 C 
ENDROOT
BRANCH   1   7
ATOM      7  O   LIG d   1      -1.768  77.122 114.890  0.00  0.00    -0.368 OA
BRANCH   7   8
ATOM      8  C   LIG d   1      -2.752  76.385 115.657  0.00  0.00     0.119 C 
BRANCH   8   9
ATOM      9  C   LIG d   1      -2.283  74.919 115.725  0.00  0.00     0.028 C 
ATOM     10  C   LIG d   1      -0.880  74.779 116.339  0.00  0.00     0.006 C 
ENDBRANCH   8   9
BRANCH   8  11
ATOM     11  C   LIG d   1      -4.103  76.346 114.937  0.00  0.00     0.028 C 
ATOM     12  C   LIG d   1      -5.168  77.219 115.620  0.00  0.00     0.006 C 
ENDBRANCH   8  11
ENDBRANCH   7   8
ENDBRANCH   1   7
BRANCH   6  13
ATOM     13  N   LIG d   1       0.156  78.149 116.970  0.00  0.00    -0.311 N 
ATOM     14  C   LIG d   1       1.329  77.644 117.347  0.00  0.00     0.210 C 
ATOM     15  C   LIG d   1       1.358  77.062 118.764  0.00  0.00     0.109 C 
ATOM     16  O   LIG d   1       2.358  77.652 116.655  0.00  0.00    -0.276 OA
ATOM     17  H   LIG d   1      -0.617  78.129 117.607  0.00  0.00     0.149 HD
ENDBRANCH   6  13
BRANCH   5  18
ATOM     18  N   LIG d   1       1.704  80.509 115.802  0.00  0.00     0.381 N 
ATOM     19  H   LIG d   1       1.961  81.374 115.371  0.00  0.00    -0.090 HD
ATOM     20  H   LIG d   1       2.239  79.773 115.376  0.00  0.00    -0.090 HD
ATOM     21  H   LIG d   1       1.896  80.546 116.779  0.00  0.00    -0.090 HD
ENDBRANCH   5  18
BRANCH   3  22
ATOM     22  C   LIG d   1      -2.058  81.386 112.971  0.00  0.00     0.382 C 
ATOM     23  O   LIG d   1      -1.496  82.455 112.629  0.00  0.00    -0.241 OA
ATOM     24  O   LIG d   1      -3.220  81.155 112.588  0.00  0.00    -0.241 OA
ENDBRANCH   3  22
TORSDOF 7
ENDMDL
MODEL 7
REMARK VINA RESULT:      -4.7      9.749     12.159
REMARK  7 active torsions:
REMARK  status: ('A' for Active; 'I' for Inactive)
REMARK    1  A    between atoms: C_2  and  C_3 
REMARK    2  A    between atoms: C_3  and  O_6 
REMARK    3  A    between atoms: C_3  and  C_4 
REMARK    4  A    between atoms: C_7  and  O_6 
REMARK    5  A    between atoms: C_9  and  C_10 
REMARK    6  A    between atoms: N_15  and  C_14 
REMARK    7  A    between atoms: N_20  and  C_19 
REMARK       I    between atoms: C_22  and  N_20 
ROOT
ATOM      1  C   LIG d   1       3.530  87.344 115.197  0.00  0.00     0.161 C 
ATOM      2  C   LIG d   1       3.078  86.631 114.073  0.00  0.00     0.016 C 
ATOM      3  C   LIG d   1       3.630  86.785 112.781  0.00  0.00     0.038 C 
ATOM      4  C   LIG d   1       4.779  87.557 112.552  0.00  0.00     0.028 C 
ATOM      5  C   LIG d   1       4.959  88.688 113.560  0.00  0.00    -0.047 C 
ATOM      6  C   LIG d   1       4.854  88.108 114.989  0.00  0.00     0.091 C 
ENDROOT
BRANCH   1   7
ATOM      7  O   LIG d   1       3.635  86.457 116.328  0.00  0.00    -0.368 OA
BRANCH   7   8
ATOM      8  C   LIG d   1       2.644  86.633 117.370  0.00  0.00     0.119 C 
BRANCH   8   9
ATOM      9  C   LIG d   1       1.852  85.315 117.483  0.00  0.00     0.028 C 
ATOM     10  C   LIG d   1       2.570  84.139 116.799  0.00  0.00     0.006 C 
ENDBRANCH   8   9
BRANCH   8  11
ATOM     11  C   LIG d   1       1.610  87.695 116.982  0.00  0.00     0.028 C 
ATOM     12  C   LIG d   1       1.460  88.795 118.044  0.00  0.00     0.006 C 
ENDBRANCH   8  11
ENDBRANCH   7   8
ENDBRANCH   1   7
BRANCH   6  13
ATOM     13  N   LIG d   1       4.936  89.160 116.035  0.00  0.00    -0.311 N 
ATOM     14  C   LIG d   1       4.167  90.248 116.042  0.00  0.00     0.210 C 
ATOM     15  C   LIG d   1       4.428  91.216 117.200  0.00  0.00     0.109 C 
ATOM     16  O   LIG d   1       3.273  90.488 115.216  0.00  0.00    -0.276 OA
ATOM     17  H   LIG d   1       5.613  89.030 116.761  0.00  0.00     0.149 HD
ENDBRANCH   6  13
BRANCH   5  18
ATOM     18  N   LIG d   1       6.263  89.323 113.288  0.00  0.00     0.381 N 
ATOM     19  H   LIG d   1       6.991  88.640 113.348  0.00  0.00    -0.090 HD
ATOM     20  H   LIG d   1       6.432  90.027 113.985  0.00  0.00    -0.090 HD
ATOM     21  H   LIG d   1       6.258  89.736 112.382  0.00  0.00    -0.090 HD
ENDBRANCH   5  18
BRANCH   3  22
ATOM     22  C   LIG d   1       3.007  86.194 111.692  0.00  0.00     0.382 C 
ATOM     23  O   LIG d   1       2.128  86.823 111.055  0.00  0.00    -0.241 OA
ATOM     24  O   LIG d   1       3.280  85.023 111.367  0.00  0.00    -0.241 OA
ENDBRANCH   3  22
TORSDOF 7
ENDMDL
MODEL 8
REMARK VINA RESULT:      -4.7     12.931     14.904
REMARK  7 active torsions:
REMARK  status: ('A' for Active; 'I' for Inactive)
REMARK    1  A    between atoms: C_2  and  C_3 
REMARK    2  A    between atoms: C_3  and  O_6 
REMARK    3  A    between atoms: C_3  and  C_4 
REMARK    4  A    between atoms: C_7  and  O_6 
REMARK    5  A    between atoms: C_9  and  C_10 
REMARK    6  A    between atoms: N_15  and  C_14 
REMARK    7  A    between atoms: N_20  and  C_19 
REMARK       I    between atoms: C_22  and  N_20 
ROOT
ATOM      1  C   LIG d   1      11.364  75.602 115.398  0.00  0.00     0.161 C 
ATOM      2  C   LIG d   1      10.028  75.998 115.570  0.00  0.00     0.016 C 
ATOM      3  C   LIG d   1       9.526  77.250 115.145  0.00  0.00     0.038 C 
ATOM      4  C   LIG d   1      10.298  78.136 114.379  0.00  0.00     0.028 C 
ATOM      5  C   LIG d   1      11.798  77.996 114.618  0.00  0.00    -0.047 C 
ATOM      6  C   LIG d   1      12.194  76.510 114.466  0.00  0.00     0.091 C 
ENDROOT
BRANCH   1   7
ATOM      7  O   LIG d   1      11.414  74.236 114.941  0.00  0.00    -0.368 OA
BRANCH   7   8
ATOM      8  C   LIG d   1      10.898  73.238 115.857  0.00  0.00     0.119 C 
BRANCH   8   9
ATOM      9  C   LIG d   1      11.822  73.220 117.090  0.00  0.00     0.028 C 
ATOM     10  C   LIG d   1      11.124  72.652 118.337  0.00  0.00     0.006 C 
ENDBRANCH   8   9
BRANCH   8  11
ATOM     11  C   LIG d   1      10.992  71.832 115.259  0.00  0.00     0.028 C 
ATOM     12  C   LIG d   1       9.646  71.091 115.264  0.00  0.00     0.006 C 
ENDBRANCH   8  11
ENDBRANCH   7   8
ENDBRANCH   1   7
BRANCH   6  13
ATOM     13  N   LIG d   1      13.629  76.272 114.767  0.00  0.00    -0.311 N 
ATOM     14  C   LIG d   1      14.585  76.287 113.840  0.00  0.00     0.210 C 
ATOM     15  C   LIG d   1      15.996  75.998 114.361  0.00  0.00     0.109 C 
ATOM     16  O   LIG d   1      14.403  76.545 112.640  0.00  0.00    -0.276 OA
ATOM     17  H   LIG d   1      13.871  76.086 115.721  0.00  0.00     0.149 HD
ENDBRANCH   6  13
BRANCH   5  18
ATOM     18  N   LIG d   1      12.487  78.880 113.659  0.00  0.00     0.381 N 
ATOM     19  H   LIG d   1      11.864  79.601 113.355  0.00  0.00    -0.090 HD
ATOM     20  H   LIG d   1      12.758  78.339 112.856  0.00  0.00    -0.090 HD
ATOM     21  H   LIG d   1      13.292  79.284 114.084  0.00  0.00    -0.090 HD
ENDBRANCH   5  18
BRANCH   3  22
ATOM     22  C   LIG d   1       8.251  77.643 115.521  0.00  0.00     0.382 C 
ATOM     23  O   LIG d   1       8.052  78.115 116.666  0.00  0.00    -0.241 OA
ATOM     24  O   LIG d   1       7.288  77.491 114.745  0.00  0.00    -0.241 OA
ENDBRANCH   3  22
TORSDOF 7
ENDMDL
MODEL 9
REMARK VINA RESULT:      -4.4     22.594     24.801
REMARK  7 active torsions:
REMARK  status: ('A' for Active; 'I' for Inactive)
REMARK    1  A    between atoms: C_2  and  C_3 
REMARK    2  A    between atoms: C_3  and  O_6 
REMARK    3  A    between atoms: C_3  and  C_4 
REMARK    4  A    between atoms: C_7  and  O_6 
REMARK    5  A    between atoms: C_9  and  C_10 
REMARK    6  A    between atoms: N_15  and  C_14 
REMARK    7  A    between atoms: N_20  and  C_19 
REMARK       I    between atoms: C_22  and  N_20 
ROOT
ATOM      1  C   LIG d   1     -25.721  88.002 114.586  0.00  0.00     0.161 C 
ATOM      2  C   LIG d   1     -24.550  87.837 113.828  0.00  0.00     0.016 C 
ATOM      3  C   LIG d   1     -23.515  86.940 114.181  0.00  0.00     0.038 C 
ATOM      4  C   LIG d   1     -23.650  86.032 115.241  0.00  0.00     0.028 C 
ATOM      5  C   LIG d   1     -24.600  86.513 116.333  0.00  0.00    -0.047 C 
ATOM      6  C   LIG d   1     -25.936  86.940 115.684  0.00  0.00     0.091 C 
ENDROOT
BRANCH   1   7
ATOM      7  O   LIG d   1     -26.865  88.057 113.711  0.00  0.00    -0.368 OA
BRANCH   7   8
ATOM      8  C   LIG d   1     -26.688  87.480 112.393  0.00  0.00     0.119 C 
BRANCH   8   9
ATOM      9  C   LIG d   1     -27.303  88.458 111.373  0.00  0.00     0.028 C 
ATOM     10  C   LIG d   1     -27.871  89.722 112.041  0.00  0.00     0.006 C 
ENDBRANCH   8   9
BRANCH   8  11
ATOM     11  C   LIG d   1     -27.486  86.181 112.242  0.00  0.00     0.028 C 
ATOM     12  C   LIG d   1     -26.676  84.935 112.632  0.00  0.00     0.006 C 
ENDBRANCH   8  11
ENDBRANCH   7   8
ENDBRANCH   1   7
BRANCH   6  13
ATOM     13  N   LIG d   1     -26.892  87.503 116.673  0.00  0.00    -0.311 N 
ATOM     14  C   LIG d   1     -27.825  86.777 117.287  0.00  0.00     0.210 C 
ATOM     15  C   LIG d   1     -28.719  87.558 118.254  0.00  0.00     0.109 C 
ATOM     16  O   LIG d   1     -27.975  85.554 117.146  0.00  0.00    -0.276 OA
ATOM     17  H   LIG d   1     -26.820  88.482 116.871  0.00  0.00     0.149 HD
ENDBRANCH   6  13
BRANCH   5  18
ATOM     18  N   LIG d   1     -24.754  85.415 117.305  0.00  0.00     0.381 N 
ATOM     19  H   LIG d   1     -25.334  84.698 116.917  0.00  0.00    -0.090 HD
ATOM     20  H   LIG d   1     -25.204  85.771 118.130  0.00  0.00    -0.090 HD
ATOM     21  H   LIG d   1     -23.862  85.039 117.541  0.00  0.00    -0.090 HD
ENDBRANCH   5  18
BRANCH   3  22
ATOM     22  C   LIG d   1     -22.312  86.974 113.492  0.00  0.00     0.382 C 
ATOM     23  O   LIG d   1     -21.877  85.936 112.938  0.00  0.00    -0.241 OA
ATOM     24  O   LIG d   1     -21.634  88.019 113.456  0.00  0.00    -0.241 OA
ENDBRANCH   3  22
TORSDOF 7
ENDMDL
