MODEL 1
REMARK VINA RESULT:      -5.6      0.000      0.000
REMARK  7 active torsions:
REMARK  status: ('A' for Active; 'I' for Inactive)
REMARK    1  A    between atoms: C_2  and  C_3 
REMARK    2  A    between atoms: C_3  and  O_6 
REMARK    3  A    between atoms: C_3  and  C_4 
REMARK    4  A    between atoms: C_7  and  O_6 
REMARK    5  A    between atoms: C_9  and  C_10 
REMARK    6  A    between atoms: N_15  and  C_14 
REMARK    7  A    between atoms: N_20  and  C_19 
REMARK       I    between atoms: C_22  and  N_20 
ROOT
ATOM      1  C   LIG d   1       2.783  87.438 115.378  0.00  0.00     0.161 C 
ATOM      2  C   LIG d   1       2.827  88.262 116.515  0.00  0.00     0.016 C 
ATOM      3  C   LIG d   1       3.611  89.437 116.595  0.00  0.00     0.038 C 
ATOM      4  C   LIG d   1       4.291  89.951 115.481  0.00  0.00     0.028 C 
ATOM      5  C   LIG d   1       4.680  88.885 114.463  0.00  0.00    -0.047 C 
ATOM      6  C   LIG d   1       3.431  88.043 114.115  0.00  0.00     0.091 C 
ENDROOT
BRANCH   1   7
ATOM      7  O   LIG d   1       1.421  87.053 115.107  0.00  0.00    -0.368 OA
BRANCH   7   8
ATOM      8  C   LIG d   1       1.120  85.641 115.235  0.00  0.00     0.119 C 
BRANCH   8   9
ATOM      9  C   LIG d   1      -0.210  85.383 114.502  0.00  0.00     0.028 C 
ATOM     10  C   LIG d   1      -0.025  85.237 112.982  0.00  0.00     0.006 C 
ENDBRANCH   8   9
BRANCH   8  11
ATOM     11  C   LIG d   1       0.861  85.256 116.694  0.00  0.00     0.028 C 
ATOM     12  C   LIG d   1      -0.191  84.145 116.839  0.00  0.00     0.006 C 
ENDBRANCH   8  11
ENDBRANCH   7   8
ENDBRANCH   1   7
BRANCH   6  13
ATOM     13  N   LIG d   1       3.742  86.923 113.189  0.00  0.00    -0.311 N 
ATOM     14  C   LIG d   1       3.210  86.808 111.973  0.00  0.00     0.210 C 
ATOM     15  C   LIG d   1       3.649  85.567 111.190  0.00  0.00     0.109 C 
ATOM     16  O   LIG d   1       2.441  87.633 111.457  0.00  0.00    -0.276 OA
ATOM     17  H   LIG d   1       4.381  86.225 113.516  0.00  0.00     0.149 HD
ENDBRANCH   6  13
BRANCH   5  18
ATOM     18  N   LIG d   1       5.256  89.574 113.293  0.00  0.00     0.381 N 
ATOM     19  H   LIG d   1       4.633  90.293 112.983  0.00  0.00    -0.090 HD
ATOM     20  H   LIG d   1       5.368  88.910 112.547  0.00  0.00    -0.090 HD
ATOM     21  H   LIG d   1       6.139  89.970 113.531  0.00  0.00    -0.090 HD
ENDBRANCH   5  18
BRANCH   3  22
ATOM     22  C   LIG d   1       3.752  90.088 117.811  0.00  0.00     0.382 C 
ATOM     23  O   LIG d   1       4.895  90.383 118.235  0.00  0.00    -0.241 OA
ATOM     24  O   LIG d   1       2.753  90.343 118.510  0.00  0.00    -0.241 OA
ENDBRANCH   3  22
TORSDOF 7
ENDMDL
MODEL 2
REMARK VINA RESULT:      -5.4     12.677     14.946
REMARK  7 active torsions:
REMARK  status: ('A' for Active; 'I' for Inactive)
REMARK    1  A    between atoms: C_2  and  C_3 
REMARK    2  A    between atoms: C_3  and  O_6 
REMARK    3  A    between atoms: C_3  and  C_4 
REMARK    4  A    between atoms: C_7  and  O_6 
REMARK    5  A    between atoms: C_9  and  C_10 
REMARK    6  A    between atoms: N_15  and  C_14 
REMARK    7  A    between atoms: N_20  and  C_19 
REMARK       I    between atoms: C_22  and  N_20 
ROOT
ATOM      1  C   LIG d   1      -7.474  76.882 117.700  0.00  0.00     0.161 C 
ATOM      2  C   LIG d   1      -8.662  77.528 118.080  0.00  0.00     0.016 C 
ATOM      3  C   LIG d   1      -8.765  78.927 118.257  0.00  0.00     0.038 C 
ATOM      4  C   LIG d   1      -7.718  79.797 117.916  0.00  0.00     0.028 C 
ATOM      5  C   LIG d   1      -6.340  79.151 118.010  0.00  0.00    -0.047 C 
ATOM      6  C   LIG d   1      -6.352  77.825 117.216  0.00  0.00     0.091 C 
ENDROOT
BRANCH   1   7
ATOM      7  O   LIG d   1      -7.758  75.886 116.697  0.00  0.00    -0.368 OA
BRANCH   7   8
ATOM      8  C   LIG d   1      -7.734  74.508 117.143  0.00  0.00     0.119 C 
BRANCH   8   9
ATOM      9  C   LIG d   1      -7.077  73.672 116.028  0.00  0.00     0.028 C 
ATOM     10  C   LIG d   1      -6.346  74.545 114.993  0.00  0.00     0.006 C 
ENDBRANCH   8   9
BRANCH   8  11
ATOM     11  C   LIG d   1      -9.150  73.945 117.292  0.00  0.00     0.028 C 
ATOM     12  C   LIG d   1      -9.257  72.476 116.854  0.00  0.00     0.006 C 
ENDBRANCH   8  11
ENDBRANCH   7   8
ENDBRANCH   1   7
BRANCH   6  13
ATOM     13  N   LIG d   1      -5.066  77.087 117.326  0.00  0.00    -0.311 N 
ATOM     14  C   LIG d   1      -4.072  77.212 116.449  0.00  0.00     0.210 C 
ATOM     15  C   LIG d   1      -2.842  76.346 116.738  0.00  0.00     0.109 C 
ATOM     16  O   LIG d   1      -4.079  77.982 115.477  0.00  0.00    -0.276 OA
ATOM     17  H   LIG d   1      -4.963  76.463 118.103  0.00  0.00     0.149 HD
ENDBRANCH   6  13
BRANCH   5  18
ATOM     18  N   LIG d   1      -5.356  80.123 117.497  0.00  0.00     0.381 N 
ATOM     19  H   LIG d   1      -4.729  79.669 116.864  0.00  0.00    -0.090 HD
ATOM     20  H   LIG d   1      -4.821  80.482 118.268  0.00  0.00    -0.090 HD
ATOM     21  H   LIG d   1      -5.825  80.870 117.034  0.00  0.00    -0.090 HD
ENDBRANCH   5  18
BRANCH   3  22
ATOM     22  C   LIG d   1      -9.913  79.466 118.818  0.00  0.00     0.382 C 
ATOM     23  O   LIG d   1     -10.790  78.710 119.299  0.00  0.00    -0.241 OA
ATOM     24  O   LIG d   1     -10.103  80.697 118.808  0.00  0.00    -0.241 OA
ENDBRANCH   3  22
TORSDOF 7
ENDMDL
MODEL 3
REMARK VINA RESULT:      -5.3     13.948     15.892
REMARK  7 active torsions:
REMARK  status: ('A' for Active; 'I' for Inactive)
REMARK    1  A    between atoms: C_2  and  C_3 
REMARK    2  A    between atoms: C_3  and  O_6 
REMARK    3  A    between atoms: C_3  and  C_4 
REMARK    4  A    between atoms: C_7  and  O_6 
REMARK    5  A    between atoms: C_9  and  C_10 
REMARK    6  A    between atoms: N_15  and  C_14 
REMARK    7  A    between atoms: N_20  and  C_19 
REMARK       I    between atoms: C_22  and  N_20 
ROOT
ATOM      1  C   LIG d   1      -7.394  75.768 118.748  0.00  0.00     0.161 C 
ATOM      2  C   LIG d   1      -8.522  76.596 118.863  0.00  0.00     0.016 C 
ATOM      3  C   LIG d   1      -8.579  77.910 118.343  0.00  0.00     0.038 C 
ATOM      4  C   LIG d   1      -7.559  78.433 117.536  0.00  0.00     0.028 C 
ATOM      5  C   LIG d   1      -6.190  77.821 117.817  0.00  0.00    -0.047 C 
ATOM      6  C   LIG d   1      -6.312  76.280 117.774  0.00  0.00     0.091 C 
ENDROOT
BRANCH   1   7
ATOM      7  O   LIG d   1      -7.802  74.434 118.386  0.00  0.00    -0.368 OA
BRANCH   7   8
ATOM      8  C   LIG d   1      -8.336  74.271 117.049  0.00  0.00     0.119 C 
BRANCH   8   9
ATOM      9  C   LIG d   1      -9.671  73.512 117.173  0.00  0.00     0.028 C 
ATOM     10  C   LIG d   1     -10.889  74.442 117.043  0.00  0.00     0.006 C 
ENDBRANCH   8   9
BRANCH   8  11
ATOM     11  C   LIG d   1      -7.436  73.372 116.195  0.00  0.00     0.028 C 
ATOM     12  C   LIG d   1      -8.005  71.955 116.019  0.00  0.00     0.006 C 
ENDBRANCH   8  11
ENDBRANCH   7   8
ENDBRANCH   1   7
BRANCH   6  13
ATOM     13  N   LIG d   1      -5.036  75.602 118.122  0.00  0.00    -0.311 N 
ATOM     14  C   LIG d   1      -4.192  75.117 117.212  0.00  0.00     0.210 C 
ATOM     15  C   LIG d   1      -2.945  74.437 117.785  0.00  0.00     0.109 C 
ATOM     16  O   LIG d   1      -4.343  75.213 115.985  0.00  0.00    -0.276 OA
ATOM     17  H   LIG d   1      -4.820  75.508 119.095  0.00  0.00     0.149 HD
ENDBRANCH   6  13
BRANCH   5  18
ATOM     18  N   LIG d   1      -5.249  78.355 116.814  0.00  0.00     0.381 N 
ATOM     19  H   LIG d   1      -4.791  77.600 116.344  0.00  0.00    -0.090 HD
ATOM     20  H   LIG d   1      -4.550  78.903 117.284  0.00  0.00    -0.090 HD
ATOM     21  H   LIG d   1      -5.737  78.919 116.155  0.00  0.00    -0.090 HD
ENDBRANCH   5  18
BRANCH   3  22
ATOM     22  C   LIG d   1      -9.651  78.730 118.664  0.00  0.00     0.382 C 
ATOM     23  O   LIG d   1      -9.488  79.971 118.744  0.00  0.00    -0.241 OA
ATOM     24  O   LIG d   1     -10.768  78.240 118.917  0.00  0.00    -0.241 OA
ENDBRANCH   3  22
TORSDOF 7
ENDMDL
MODEL 4
REMARK VINA RESULT:      -5.1      3.609      6.906
REMARK  7 active torsions:
REMARK  status: ('A' for Active; 'I' for Inactive)
REMARK    1  A    between atoms: C_2  and  C_3 
REMARK    2  A    between atoms: C_3  and  O_6 
REMARK    3  A    between atoms: C_3  and  C_4 
REMARK    4  A    between atoms: C_7  and  O_6 
REMARK    5  A    between atoms: C_9  and  C_10 
REMARK    6  A    between atoms: N_15  and  C_14 
REMARK    7  A    between atoms: N_20  and  C_19 
REMARK       I    between atoms: C_22  and  N_20 
ROOT
ATOM      1  C   LIG d   1      -0.053  84.497 113.051  0.00  0.00     0.161 C 
ATOM      2  C   LIG d   1      -1.156  83.680 113.352  0.00  0.00     0.016 C 
ATOM      3  C   LIG d   1      -1.254  82.327 112.951  0.00  0.00     0.038 C 
ATOM      4  C   LIG d   1      -0.182  81.653 112.348  0.00  0.00     0.028 C 
ATOM      5  C   LIG d   1       0.756  82.575 111.575  0.00  0.00    -0.047 C 
ATOM      6  C   LIG d   1       1.174  83.748 112.491  0.00  0.00     0.091 C 
ENDROOT
BRANCH   1   7
ATOM      7  O   LIG d   1       0.317  85.265 114.213  0.00  0.00    -0.368 OA
BRANCH   7   8
ATOM      8  C   LIG d   1       0.998  84.540 115.266  0.00  0.00     0.119 C 
BRANCH   8   9
ATOM      9  C   LIG d   1       0.081  84.552 116.505  0.00  0.00     0.028 C 
ATOM     10  C   LIG d   1       0.769  85.161 117.738  0.00  0.00     0.006 C 
ENDBRANCH   8   9
BRANCH   8  11
ATOM     11  C   LIG d   1       2.277  85.261 115.702  0.00  0.00     0.028 C 
ATOM     12  C   LIG d   1       2.526  86.560 114.917  0.00  0.00     0.006 C 
ENDBRANCH   8  11
ENDBRANCH   7   8
ENDBRANCH   1   7
BRANCH   6  13
ATOM     13  N   LIG d   1       2.025  84.742 111.786  0.00  0.00    -0.311 N 
ATOM     14  C   LIG d   1       3.354  84.754 111.862  0.00  0.00     0.210 C 
ATOM     15  C   LIG d   1       4.037  85.876 111.074  0.00  0.00     0.109 C 
ATOM     16  O   LIG d   1       4.035  83.923 112.481  0.00  0.00    -0.276 OA
ATOM     17  H   LIG d   1       1.556  85.434 111.235  0.00  0.00     0.149 HD
ENDBRANCH   6  13
BRANCH   5  18
ATOM     18  N   LIG d   1       1.899  81.764 111.116  0.00  0.00     0.381 N 
ATOM     19  H   LIG d   1       2.639  81.809 111.788  0.00  0.00    -0.090 HD
ATOM     20  H   LIG d   1       2.238  82.141 110.249  0.00  0.00    -0.090 HD
ATOM     21  H   LIG d   1       1.616  80.817 110.986  0.00  0.00    -0.090 HD
ENDBRANCH   5  18
BRANCH   3  22
ATOM     22  C   LIG d   1      -2.450  81.647 113.117  0.00  0.00     0.382 C 
ATOM     23  O   LIG d   1      -3.288  81.614 112.183  0.00  0.00    -0.241 OA
ATOM     24  O   LIG d   1      -2.722  81.102 114.204  0.00  0.00    -0.241 OA
ENDBRANCH   3  22
TORSDOF 7
ENDMDL
MODEL 5
REMARK VINA RESULT:      -5.1     26.517     28.641
REMARK  7 active torsions:
REMARK  status: ('A' for Active; 'I' for Inactive)
REMARK    1  A    between atoms: C_2  and  C_3 
REMARK    2  A    between atoms: C_3  and  O_6 
REMARK    3  A    between atoms: C_3  and  C_4 
REMARK    4  A    between atoms: C_7  and  O_6 
REMARK    5  A    between atoms: C_9  and  C_10 
REMARK    6  A    between atoms: N_15  and  C_14 
REMARK    7  A    between atoms: N_20  and  C_19 
REMARK       I    between atoms: C_22  and  N_20 
ROOT
ATOM      1  C   LIG d   1     -15.941  66.761 115.449  0.00  0.00     0.161 C 
ATOM      2  C   LIG d   1     -15.487  67.722 114.531  0.00  0.00     0.016 C 
ATOM      3  C   LIG d   1     -15.415  67.495 113.137  0.00  0.00     0.038 C 
ATOM      4  C   LIG d   1     -15.939  66.335 112.547  0.00  0.00     0.028 C 
ATOM      5  C   LIG d   1     -15.945  65.130 113.481  0.00  0.00    -0.047 C 
ATOM      6  C   LIG d   1     -16.621  65.530 114.812  0.00  0.00     0.091 C 
ENDROOT
BRANCH   1   7
ATOM      7  O   LIG d   1     -16.821  67.379 116.409  0.00  0.00    -0.368 OA
BRANCH   7   8
ATOM      8  C   LIG d   1     -16.460  67.214 117.802  0.00  0.00     0.119 C 
BRANCH   8   9
ATOM      9  C   LIG d   1     -16.702  68.564 118.505  0.00  0.00     0.028 C 
ATOM     10  C   LIG d   1     -16.526  69.760 117.556  0.00  0.00     0.006 C 
ENDBRANCH   8   9
BRANCH   8  11
ATOM     11  C   LIG d   1     -14.962  66.937 117.961  0.00  0.00     0.028 C 
ATOM     12  C   LIG d   1     -14.404  67.431 119.305  0.00  0.00     0.006 C 
ENDBRANCH   8  11
ENDBRANCH   7   8
ENDBRANCH   1   7
BRANCH   6  13
ATOM     13  N   LIG d   1     -16.593  64.433 115.814  0.00  0.00    -0.311 N 
ATOM     14  C   LIG d   1     -17.683  63.969 116.424  0.00  0.00     0.210 C 
ATOM     15  C   LIG d   1     -17.430  62.848 117.437  0.00  0.00     0.109 C 
ATOM     16  O   LIG d   1     -18.839  64.357 116.198  0.00  0.00    -0.276 OA
ATOM     17  H   LIG d   1     -15.700  64.039 116.035  0.00  0.00     0.149 HD
ENDBRANCH   6  13
BRANCH   5  18
ATOM     18  N   LIG d   1     -16.641  64.031 112.786  0.00  0.00     0.381 N 
ATOM     19  H   LIG d   1     -16.508  64.116 111.798  0.00  0.00    -0.090 HD
ATOM     20  H   LIG d   1     -17.626  64.097 112.978  0.00  0.00    -0.090 HD
ATOM     21  H   LIG d   1     -16.292  63.153 113.101  0.00  0.00    -0.090 HD
ENDBRANCH   5  18
BRANCH   3  22
ATOM     22  C   LIG d   1     -14.777  68.418 112.323  0.00  0.00     0.382 C 
ATOM     23  O   LIG d   1     -14.306  69.471 112.817  0.00  0.00    -0.241 OA
ATOM     24  O   LIG d   1     -14.707  68.233 111.093  0.00  0.00    -0.241 OA
ENDBRANCH   3  22
TORSDOF 7
ENDMDL
MODEL 6
REMARK VINA RESULT:      -5.1      4.080      7.279
REMARK  7 active torsions:
REMARK  status: ('A' for Active; 'I' for Inactive)
REMARK    1  A    between atoms: C_2  and  C_3 
REMARK    2  A    between atoms: C_3  and  O_6 
REMARK    3  A    between atoms: C_3  and  C_4 
REMARK    4  A    between atoms: C_7  and  O_6 
REMARK    5  A    between atoms: C_9  and  C_10 
REMARK    6  A    between atoms: N_15  and  C_14 
REMARK    7  A    between atoms: N_20  and  C_19 
REMARK       I    between atoms: C_22  and  N_20 
ROOT
ATOM      1  C   LIG d   1      -0.171  83.852 112.359  0.00  0.00     0.161 C 
ATOM      2  C   LIG d   1      -1.119  82.825 112.510  0.00  0.00     0.016 C 
ATOM      3  C   LIG d   1      -0.821  81.457 112.314  0.00  0.00     0.038 C 
ATOM      4  C   LIG d   1       0.490  81.007 112.101  0.00  0.00     0.028 C 
ATOM      5  C   LIG d   1       1.389  82.048 111.442  0.00  0.00    -0.047 C 
ATOM      6  C   LIG d   1       1.290  83.371 112.236  0.00  0.00     0.091 C 
ENDROOT
BRANCH   1   7
ATOM      7  O   LIG d   1      -0.298  84.796 113.440  0.00  0.00    -0.368 OA
BRANCH   7   8
ATOM      8  C   LIG d   1       0.472  84.507 114.633  0.00  0.00     0.119 C 
BRANCH   8   9
ATOM      9  C   LIG d   1      -0.527  84.262 115.781  0.00  0.00     0.028 C 
ATOM     10  C   LIG d   1      -0.631  82.775 116.160  0.00  0.00     0.006 C 
ENDBRANCH   8   9
BRANCH   8  11
ATOM     11  C   LIG d   1       1.301  85.719 115.069  0.00  0.00     0.028 C 
ATOM     12  C   LIG d   1       1.287  85.935 116.590  0.00  0.00     0.006 C 
ENDBRANCH   8  11
ENDBRANCH   7   8
ENDBRANCH   1   7
BRANCH   6  13
ATOM     13  N   LIG d   1       2.073  84.467 111.609  0.00  0.00    -0.311 N 
ATOM     14  C   LIG d   1       3.324  84.766 111.957  0.00  0.00     0.210 C 
ATOM     15  C   LIG d   1       3.941  85.946 111.200  0.00  0.00     0.109 C 
ATOM     16  O   LIG d   1       3.992  84.145 112.797  0.00  0.00    -0.276 OA
ATOM     17  H   LIG d   1       1.618  85.003 110.896  0.00  0.00     0.149 HD
ENDBRANCH   6  13
BRANCH   5  18
ATOM     18  N   LIG d   1       2.757  81.497 111.405  0.00  0.00     0.381 N 
ATOM     19  H   LIG d   1       3.350  82.022 112.016  0.00  0.00    -0.090 HD
ATOM     20  H   LIG d   1       3.115  81.579 110.470  0.00  0.00    -0.090 HD
ATOM     21  H   LIG d   1       2.746  80.540 111.682  0.00  0.00    -0.090 HD
ENDBRANCH   5  18
BRANCH   3  22
ATOM     22  C   LIG d   1      -1.849  80.527 112.292  0.00  0.00     0.382 C 
ATOM     23  O   LIG d   1      -1.781  79.536 111.525  0.00  0.00    -0.241 OA
ATOM     24  O   LIG d   1      -2.863  80.689 112.996  0.00  0.00    -0.241 OA
ENDBRANCH   3  22
TORSDOF 7
ENDMDL
MODEL 7
REMARK VINA RESULT:      -5.0     26.225     28.569
REMARK  7 active torsions:
REMARK  status: ('A' for Active; 'I' for Inactive)
REMARK    1  A    between atoms: C_2  and  C_3 
REMARK    2  A    between atoms: C_3  and  O_6 
REMARK    3  A    between atoms: C_3  and  C_4 
REMARK    4  A    between atoms: C_7  and  O_6 
REMARK    5  A    between atoms: C_9  and  C_10 
REMARK    6  A    between atoms: N_15  and  C_14 
REMARK    7  A    between atoms: N_20  and  C_19 
REMARK       I    between atoms: C_22  and  N_20 
ROOT
ATOM      1  C   LIG d   1     -25.525  86.055 113.431  0.00  0.00     0.161 C 
ATOM      2  C   LIG d   1     -24.363  86.841 113.499  0.00  0.00     0.016 C 
ATOM      3  C   LIG d   1     -23.066  86.301 113.665  0.00  0.00     0.038 C 
ATOM      4  C   LIG d   1     -22.828  84.920 113.623  0.00  0.00     0.028 C 
ATOM      5  C   LIG d   1     -24.026  84.084 114.062  0.00  0.00    -0.047 C 
ATOM      6  C   LIG d   1     -25.273  84.541 113.271  0.00  0.00     0.091 C 
ENDROOT
BRANCH   1   7
ATOM      7  O   LIG d   1     -26.378  86.535 112.373  0.00  0.00    -0.368 OA
BRANCH   7   8
ATOM      8  C   LIG d   1     -27.287  87.608 112.725  0.00  0.00     0.119 C 
BRANCH   8   9
ATOM      9  C   LIG d   1     -28.715  87.130 112.398  0.00  0.00     0.028 C 
ATOM     10  C   LIG d   1     -29.317  86.269 113.521  0.00  0.00     0.006 C 
ENDBRANCH   8   9
BRANCH   8  11
ATOM     11  C   LIG d   1     -27.060  88.841 111.845  0.00  0.00     0.028 C 
ATOM     12  C   LIG d   1     -26.973  90.143 112.656  0.00  0.00     0.006 C 
ENDBRANCH   8  11
ENDBRANCH   7   8
ENDBRANCH   1   7
BRANCH   6  13
ATOM     13  N   LIG d   1     -26.507  83.832 113.700  0.00  0.00    -0.311 N 
ATOM     14  C   LIG d   1     -27.259  83.106 112.875  0.00  0.00     0.210 C 
ATOM     15  C   LIG d   1     -28.499  82.476 113.517  0.00  0.00     0.109 C 
ATOM     16  O   LIG d   1     -26.999  82.897 111.680  0.00  0.00    -0.276 OA
ATOM     17  H   LIG d   1     -26.774  83.922 114.660  0.00  0.00     0.149 HD
ENDBRANCH   6  13
BRANCH   5  18
ATOM     18  N   LIG d   1     -23.686  82.666 113.838  0.00  0.00     0.381 N 
ATOM     19  H   LIG d   1     -23.557  82.499 112.860  0.00  0.00    -0.090 HD
ATOM     20  H   LIG d   1     -24.449  82.095 114.157  0.00  0.00    -0.090 HD
ATOM     21  H   LIG d   1     -22.855  82.432 114.335  0.00  0.00    -0.090 HD
ENDBRANCH   5  18
BRANCH   3  22
ATOM     22  C   LIG d   1     -21.997  87.147 113.916  0.00  0.00     0.382 C 
ATOM     23  O   LIG d   1     -22.107  88.061 114.770  0.00  0.00    -0.241 OA
ATOM     24  O   LIG d   1     -20.938  87.036 113.269  0.00  0.00    -0.241 OA
ENDBRANCH   3  22
TORSDOF 7
ENDMDL
MODEL 8
REMARK VINA RESULT:      -4.9      4.104      6.414
REMARK  7 active torsions:
REMARK  status: ('A' for Active; 'I' for Inactive)
REMARK    1  A    between atoms: C_2  and  C_3 
REMARK    2  A    between atoms: C_3  and  O_6 
REMARK    3  A    between atoms: C_3  and  C_4 
REMARK    4  A    between atoms: C_7  and  O_6 
REMARK    5  A    between atoms: C_9  and  C_10 
REMARK    6  A    between atoms: N_15  and  C_14 
REMARK    7  A    between atoms: N_20  and  C_19 
REMARK       I    between atoms: C_22  and  N_20 
ROOT
ATOM      1  C   LIG d   1      -1.023  83.020 115.216  0.00  0.00     0.161 C 
ATOM      2  C   LIG d   1      -0.447  84.167 115.787  0.00  0.00     0.016 C 
ATOM      3  C   LIG d   1       0.262  85.136 115.040  0.00  0.00     0.038 C 
ATOM      4  C   LIG d   1       0.313  85.100 113.638  0.00  0.00     0.028 C 
ATOM      5  C   LIG d   1       0.177  83.694 113.063  0.00  0.00    -0.047 C 
ATOM      6  C   LIG d   1      -1.073  83.020 113.674  0.00  0.00     0.091 C 
ENDROOT
BRANCH   1   7
ATOM      7  O   LIG d   1      -2.342  82.813 115.760  0.00  0.00    -0.368 OA
BRANCH   7   8
ATOM      8  C   LIG d   1      -2.482  81.710 116.689  0.00  0.00     0.119 C 
BRANCH   8   9
ATOM      9  C   LIG d   1      -3.564  80.767 116.127  0.00  0.00     0.028 C 
ATOM     10  C   LIG d   1      -3.056  79.325 115.958  0.00  0.00     0.006 C 
ENDBRANCH   8   9
BRANCH   8  11
ATOM     11  C   LIG d   1      -3.021  82.186 118.041  0.00  0.00     0.028 C 
ATOM     12  C   LIG d   1      -1.959  82.910 118.884  0.00  0.00     0.006 C 
ENDBRANCH   8  11
ENDBRANCH   7   8
ENDBRANCH   1   7
BRANCH   6  13
ATOM     13  N   LIG d   1      -1.232  81.611 113.228  0.00  0.00    -0.311 N 
ATOM     14  C   LIG d   1      -2.341  81.144 112.657  0.00  0.00     0.210 C 
ATOM     15  C   LIG d   1      -2.303  79.657 112.292  0.00  0.00     0.109 C 
ATOM     16  O   LIG d   1      -3.340  81.828 112.388  0.00  0.00    -0.276 OA
ATOM     17  H   LIG d   1      -0.458  80.995 113.380  0.00  0.00     0.149 HD
ENDBRANCH   6  13
BRANCH   5  18
ATOM     18  N   LIG d   1       0.109  83.818 111.595  0.00  0.00     0.381 N 
ATOM     19  H   LIG d   1      -0.545  83.154 111.229  0.00  0.00    -0.090 HD
ATOM     20  H   LIG d   1       1.014  83.615 111.209  0.00  0.00    -0.090 HD
ATOM     21  H   LIG d   1      -0.169  84.741 111.343  0.00  0.00    -0.090 HD
ENDBRANCH   5  18
BRANCH   3  22
ATOM     22  C   LIG d   1       0.963  86.134 115.699  0.00  0.00     0.382 C 
ATOM     23  O   LIG d   1       1.196  86.030 116.927  0.00  0.00    -0.241 OA
ATOM     24  O   LIG d   1       1.326  87.158 115.090  0.00  0.00    -0.241 OA
ENDBRANCH   3  22
TORSDOF 7
ENDMDL
MODEL 9
REMARK VINA RESULT:      -4.9      2.397      5.144
REMARK  7 active torsions:
REMARK  status: ('A' for Active; 'I' for Inactive)
REMARK    1  A    between atoms: C_2  and  C_3 
REMARK    2  A    between atoms: C_3  and  O_6 
REMARK    3  A    between atoms: C_3  and  C_4 
REMARK    4  A    between atoms: C_7  and  O_6 
REMARK    5  A    between atoms: C_9  and  C_10 
REMARK    6  A    between atoms: N_15  and  C_14 
REMARK    7  A    between atoms: N_20  and  C_19 
REMARK       I    between atoms: C_22  and  N_20 
ROOT
ATOM      1  C   LIG d   1       1.578  85.486 114.698  0.00  0.00     0.161 C 
ATOM      2  C   LIG d   1       0.666  84.578 115.262  0.00  0.00     0.016 C 
ATOM      3  C   LIG d   1       0.361  84.538 116.642  0.00  0.00     0.038 C 
ATOM      4  C   LIG d   1       0.835  85.510 117.535  0.00  0.00     0.028 C 
ATOM      5  C   LIG d   1       2.155  86.139 117.100  0.00  0.00    -0.047 C 
ATOM      6  C   LIG d   1       2.021  86.625 115.639  0.00  0.00     0.091 C 
ENDROOT
BRANCH   1   7
ATOM      7  O   LIG d   1       1.037  86.026 113.476  0.00  0.00    -0.368 OA
BRANCH   7   8
ATOM      8  C   LIG d   1       1.342  85.293 112.264  0.00  0.00     0.119 C 
BRANCH   8   9
ATOM      9  C   LIG d   1       2.094  86.252 111.321  0.00  0.00     0.028 C 
ATOM     10  C   LIG d   1       3.615  86.223 111.543  0.00  0.00     0.006 C 
ENDBRANCH   8   9
BRANCH   8  11
ATOM     11  C   LIG d   1       0.066  84.902 111.513  0.00  0.00     0.028 C 
ATOM     12  C   LIG d   1      -0.384  83.463 111.812  0.00  0.00     0.006 C 
ENDBRANCH   8  11
ENDBRANCH   7   8
ENDBRANCH   1   7
BRANCH   6  13
ATOM     13  N   LIG d   1       3.294  87.178 115.107  0.00  0.00    -0.311 N 
ATOM     14  C   LIG d   1       3.486  88.473 114.863  0.00  0.00     0.210 C 
ATOM     15  C   LIG d   1       4.865  88.828 114.298  0.00  0.00     0.109 C 
ATOM     16  O   LIG d   1       2.656  89.366 115.091  0.00  0.00    -0.276 OA
ATOM     17  H   LIG d   1       4.032  86.527 114.922  0.00  0.00     0.149 HD
ENDBRANCH   6  13
BRANCH   5  18
ATOM     18  N   LIG d   1       2.463  87.228 118.046  0.00  0.00     0.381 N 
ATOM     19  H   LIG d   1       1.681  87.849 118.114  0.00  0.00    -0.090 HD
ATOM     20  H   LIG d   1       3.249  87.748 117.698  0.00  0.00    -0.090 HD
ATOM     21  H   LIG d   1       2.676  86.851 118.943  0.00  0.00    -0.090 HD
ENDBRANCH   5  18
BRANCH   3  22
ATOM     22  C   LIG d   1      -0.398  83.493 117.148  0.00  0.00     0.382 C 
ATOM     23  O   LIG d   1      -0.865  83.563 118.310  0.00  0.00    -0.241 OA
ATOM     24  O   LIG d   1      -0.583  82.463 116.474  0.00  0.00    -0.241 OA
ENDBRANCH   3  22
TORSDOF 7
ENDMDL
