MODEL 1
REMARK VINA RESULT:      -5.7      0.000      0.000
REMARK  7 active torsions:
REMARK  status: ('A' for Active; 'I' for Inactive)
REMARK    1  A    between atoms: C_2  and  C_3 
REMARK    2  A    between atoms: C_3  and  O_6 
REMARK    3  A    between atoms: C_3  and  C_4 
REMARK    4  A    between atoms: C_7  and  O_6 
REMARK    5  A    between atoms: C_9  and  C_10 
REMARK    6  A    between atoms: N_15  and  C_14 
REMARK    7  A    between atoms: N_20  and  C_19 
REMARK       I    between atoms: C_22  and  N_20 
ROOT
ATOM      1  C   LIG d   1     -16.632  64.931 113.693  0.00  0.00     0.161 C 
ATOM      2  C   LIG d   1     -16.186  65.908 112.788  0.00  0.00     0.016 C 
ATOM      3  C   LIG d   1     -15.512  67.086 113.184  0.00  0.00     0.038 C 
ATOM      4  C   LIG d   1     -15.102  67.296 114.509  0.00  0.00     0.028 C 
ATOM      5  C   LIG d   1     -15.973  66.577 115.534  0.00  0.00    -0.047 C 
ATOM      6  C   LIG d   1     -16.096  65.089 115.132  0.00  0.00     0.091 C 
ENDROOT
BRANCH   1   7
ATOM      7  O   LIG d   1     -16.324  63.618 113.186  0.00  0.00    -0.368 OA
BRANCH   7   8
ATOM      8  C   LIG d   1     -17.458  62.760 112.906  0.00  0.00     0.119 C 
BRANCH   8   9
ATOM      9  C   LIG d   1     -18.729  63.626 113.008  0.00  0.00     0.028 C 
ATOM     10  C   LIG d   1     -19.881  63.081 112.148  0.00  0.00     0.006 C 
ENDBRANCH   8   9
BRANCH   8  11
ATOM     11  C   LIG d   1     -17.617  61.679 113.979  0.00  0.00     0.028 C 
ATOM     12  C   LIG d   1     -17.807  60.274 113.385  0.00  0.00     0.006 C 
ENDBRANCH   8  11
ENDBRANCH   7   8
ENDBRANCH   1   7
BRANCH   6  13
ATOM     13  N   LIG d   1     -17.000  64.331 116.035  0.00  0.00    -0.311 N 
ATOM     14  C   LIG d   1     -16.566  63.584 117.049  0.00  0.00     0.210 C 
ATOM     15  C   LIG d   1     -17.664  62.870 117.842  0.00  0.00     0.109 C 
ATOM     16  O   LIG d   1     -15.378  63.471 117.386  0.00  0.00    -0.276 OA
ATOM     17  H   LIG d   1     -17.983  64.391 115.852  0.00  0.00     0.149 HD
ENDBRANCH   6  13
BRANCH   5  18
ATOM     18  N   LIG d   1     -15.353  66.768 116.858  0.00  0.00     0.381 N 
ATOM     19  H   LIG d   1     -15.146  65.879 117.267  0.00  0.00    -0.090 HD
ATOM     20  H   LIG d   1     -16.004  67.246 117.456  0.00  0.00    -0.090 HD
ATOM     21  H   LIG d   1     -14.518  67.304 116.770  0.00  0.00    -0.090 HD
ENDBRANCH   5  18
BRANCH   3  22
ATOM     22  C   LIG d   1     -15.277  68.089 112.255  0.00  0.00     0.382 C 
ATOM     23  O   LIG d   1     -14.674  69.134 112.600  0.00  0.00    -0.241 OA
ATOM     24  O   LIG d   1     -15.700  67.981 111.089  0.00  0.00    -0.241 OA
ENDBRANCH   3  22
TORSDOF 7
ENDMDL
MODEL 2
REMARK VINA RESULT:      -5.5     27.716     30.602
REMARK  7 active torsions:
REMARK  status: ('A' for Active; 'I' for Inactive)
REMARK    1  A    between atoms: C_2  and  C_3 
REMARK    2  A    between atoms: C_3  and  O_6 
REMARK    3  A    between atoms: C_3  and  C_4 
REMARK    4  A    between atoms: C_7  and  O_6 
REMARK    5  A    between atoms: C_9  and  C_10 
REMARK    6  A    between atoms: N_15  and  C_14 
REMARK    7  A    between atoms: N_20  and  C_19 
REMARK       I    between atoms: C_22  and  N_20 
ROOT
ATOM      1  C   LIG d   1       2.743  88.171 115.365  0.00  0.00     0.161 C 
ATOM      2  C   LIG d   1       2.852  89.374 116.084  0.00  0.00     0.016 C 
ATOM      3  C   LIG d   1       3.884  90.316 115.870  0.00  0.00     0.038 C 
ATOM      4  C   LIG d   1       4.796  90.190 114.811  0.00  0.00     0.028 C 
ATOM      5  C   LIG d   1       5.030  88.746 114.383  0.00  0.00    -0.047 C 
ATOM      6  C   LIG d   1       3.663  88.069 114.132  0.00  0.00     0.091 C 
ENDROOT
BRANCH   1   7
ATOM      7  O   LIG d   1       1.369  87.953 114.985  0.00  0.00    -0.368 OA
BRANCH   7   8
ATOM      8  C   LIG d   1       0.597  87.090 115.856  0.00  0.00     0.119 C 
BRANCH   8   9
ATOM      9  C   LIG d   1       1.581  86.119 116.537  0.00  0.00     0.028 C 
ATOM     10  C   LIG d   1       0.995  85.487 117.811  0.00  0.00     0.006 C 
ENDBRANCH   8   9
BRANCH   8  11
ATOM     11  C   LIG d   1      -0.359  86.202 115.054  0.00  0.00     0.028 C 
ATOM     12  C   LIG d   1       0.242  85.731 113.720  0.00  0.00     0.006 C 
ENDBRANCH   8  11
ENDBRANCH   7   8
ENDBRANCH   1   7
BRANCH   6  13
ATOM     13  N   LIG d   1       3.798  86.629 113.790  0.00  0.00    -0.311 N 
ATOM     14  C   LIG d   1       3.856  86.174 112.539  0.00  0.00     0.210 C 
ATOM     15  C   LIG d   1       3.975  84.653 112.408  0.00  0.00     0.109 C 
ATOM     16  O   LIG d   1       3.853  86.890 111.526  0.00  0.00    -0.276 OA
ATOM     17  H   LIG d   1       3.840  85.981 114.552  0.00  0.00     0.149 HD
ENDBRANCH   6  13
BRANCH   5  18
ATOM     18  N   LIG d   1       5.892  88.770 113.186  0.00  0.00     0.381 N 
ATOM     19  H   LIG d   1       6.837  88.959 113.453  0.00  0.00    -0.090 HD
ATOM     20  H   LIG d   1       5.583  89.507 112.577  0.00  0.00    -0.090 HD
ATOM     21  H   LIG d   1       5.842  87.895 112.711  0.00  0.00    -0.090 HD
ENDBRANCH   5  18
BRANCH   3  22
ATOM     22  C   LIG d   1       4.035  91.381 116.746  0.00  0.00     0.382 C 
ATOM     23  O   LIG d   1       4.927  91.345 117.628  0.00  0.00    -0.241 OA
ATOM     24  O   LIG d   1       3.263  92.356 116.693  0.00  0.00    -0.241 OA
ENDBRANCH   3  22
TORSDOF 7
ENDMDL
MODEL 3
REMARK VINA RESULT:      -5.5     15.462     18.507
REMARK  7 active torsions:
REMARK  status: ('A' for Active; 'I' for Inactive)
REMARK    1  A    between atoms: C_2  and  C_3 
REMARK    2  A    between atoms: C_3  and  O_6 
REMARK    3  A    between atoms: C_3  and  C_4 
REMARK    4  A    between atoms: C_7  and  O_6 
REMARK    5  A    between atoms: C_9  and  C_10 
REMARK    6  A    between atoms: N_15  and  C_14 
REMARK    7  A    between atoms: N_20  and  C_19 
REMARK       I    between atoms: C_22  and  N_20 
ROOT
ATOM      1  C   LIG d   1      -2.035  75.156 114.899  0.00  0.00     0.161 C 
ATOM      2  C   LIG d   1      -1.844  74.123 115.833  0.00  0.00     0.016 C 
ATOM      3  C   LIG d   1      -1.020  74.249 116.975  0.00  0.00     0.038 C 
ATOM      4  C   LIG d   1      -0.446  75.475 117.343  0.00  0.00     0.028 C 
ATOM      5  C   LIG d   1      -0.201  76.408 116.163  0.00  0.00    -0.047 C 
ATOM      6  C   LIG d   1      -1.505  76.535 115.344  0.00  0.00     0.091 C 
ENDROOT
BRANCH   1   7
ATOM      7  O   LIG d   1      -3.429  75.244 114.547  0.00  0.00    -0.368 OA
BRANCH   7   8
ATOM      8  C   LIG d   1      -4.370  74.761 115.537  0.00  0.00     0.119 C 
BRANCH   8   9
ATOM      9  C   LIG d   1      -5.519  74.065 114.784  0.00  0.00     0.028 C 
ATOM     10  C   LIG d   1      -6.299  73.086 115.678  0.00  0.00     0.006 C 
ENDBRANCH   8   9
BRANCH   8  11
ATOM     11  C   LIG d   1      -5.024  75.919 116.296  0.00  0.00     0.028 C 
ATOM     12  C   LIG d   1      -4.416  76.137 117.691  0.00  0.00     0.006 C 
ENDBRANCH   8  11
ENDBRANCH   7   8
ENDBRANCH   1   7
BRANCH   6  13
ATOM     13  N   LIG d   1      -1.330  77.364 114.123  0.00  0.00    -0.311 N 
ATOM     14  C   LIG d   1      -2.117  78.394 113.817  0.00  0.00     0.210 C 
ATOM     15  C   LIG d   1      -1.774  79.102 112.502  0.00  0.00     0.109 C 
ATOM     16  O   LIG d   1      -3.047  78.809 114.525  0.00  0.00    -0.276 OA
ATOM     17  H   LIG d   1      -0.580  77.117 113.508  0.00  0.00     0.149 HD
ENDBRANCH   6  13
BRANCH   5  18
ATOM     18  N   LIG d   1       0.270  77.697 116.704  0.00  0.00     0.381 N 
ATOM     19  H   LIG d   1       0.878  77.536 117.483  0.00  0.00    -0.090 HD
ATOM     20  H   LIG d   1      -0.523  78.223 117.027  0.00  0.00    -0.090 HD
ATOM     21  H   LIG d   1       0.752  78.208 115.998  0.00  0.00    -0.090 HD
ENDBRANCH   5  18
BRANCH   3  22
ATOM     22  C   LIG d   1      -0.731  73.129 117.740  0.00  0.00     0.382 C 
ATOM     23  O   LIG d   1      -0.870  73.169 118.986  0.00  0.00    -0.241 OA
ATOM     24  O   LIG d   1      -0.290  72.095 117.204  0.00  0.00    -0.241 OA
ENDBRANCH   3  22
TORSDOF 7
ENDMDL
MODEL 4
REMARK VINA RESULT:      -5.3     26.811     29.569
REMARK  7 active torsions:
REMARK  status: ('A' for Active; 'I' for Inactive)
REMARK    1  A    between atoms: C_2  and  C_3 
REMARK    2  A    between atoms: C_3  and  O_6 
REMARK    3  A    between atoms: C_3  and  C_4 
REMARK    4  A    between atoms: C_7  and  O_6 
REMARK    5  A    between atoms: C_9  and  C_10 
REMARK    6  A    between atoms: N_15  and  C_14 
REMARK    7  A    between atoms: N_20  and  C_19 
REMARK       I    between atoms: C_22  and  N_20 
ROOT
ATOM      1  C   LIG d   1       1.889  87.454 115.307  0.00  0.00     0.161 C 
ATOM      2  C   LIG d   1       1.636  88.259 116.430  0.00  0.00     0.016 C 
ATOM      3  C   LIG d   1       2.137  89.573 116.574  0.00  0.00     0.038 C 
ATOM      4  C   LIG d   1       2.805  90.231 115.531  0.00  0.00     0.028 C 
ATOM      5  C   LIG d   1       3.519  89.281 114.575  0.00  0.00    -0.047 C 
ATOM      6  C   LIG d   1       2.523  88.194 114.110  0.00  0.00     0.091 C 
ENDROOT
BRANCH   1   7
ATOM      7  O   LIG d   1       0.678  86.787 114.900  0.00  0.00    -0.368 OA
BRANCH   7   8
ATOM      8  C   LIG d   1       0.664  85.346 115.042  0.00  0.00     0.119 C 
BRANCH   8   9
ATOM      9  C   LIG d   1       0.178  84.753 113.706  0.00  0.00     0.028 C 
ATOM     10  C   LIG d   1      -0.744  85.715 112.938  0.00  0.00     0.006 C 
ENDBRANCH   8   9
BRANCH   8  11
ATOM     11  C   LIG d   1      -0.366  84.898 116.083  0.00  0.00     0.028 C 
ATOM     12  C   LIG d   1       0.201  84.875 117.512  0.00  0.00     0.006 C 
ENDBRANCH   8  11
ENDBRANCH   7   8
ENDBRANCH   1   7
BRANCH   6  13
ATOM     13  N   LIG d   1       3.162  87.174 113.238  0.00  0.00    -0.311 N 
ATOM     14  C   LIG d   1       2.772  86.929 111.989  0.00  0.00     0.210 C 
ATOM     15  C   LIG d   1       3.553  85.823 111.272  0.00  0.00     0.109 C 
ATOM     16  O   LIG d   1       1.873  87.544 111.395  0.00  0.00    -0.276 OA
ATOM     17  H   LIG d   1       3.920  86.650 113.630  0.00  0.00     0.149 HD
ENDBRANCH   6  13
BRANCH   5  18
ATOM     18  N   LIG d   1       4.055  90.087 113.462  0.00  0.00     0.381 N 
ATOM     19  H   LIG d   1       4.706  89.543 112.932  0.00  0.00    -0.090 HD
ATOM     20  H   LIG d   1       4.541  90.881 113.841  0.00  0.00    -0.090 HD
ATOM     21  H   LIG d   1       3.311  90.394 112.874  0.00  0.00    -0.090 HD
ENDBRANCH   5  18
BRANCH   3  22
ATOM     22  C   LIG d   1       2.005  90.229 117.789  0.00  0.00     0.382 C 
ATOM     23  O   LIG d   1       1.705  89.583 118.821  0.00  0.00    -0.241 OA
ATOM     24  O   LIG d   1       2.140  91.465 117.857  0.00  0.00    -0.241 OA
ENDBRANCH   3  22
TORSDOF 7
ENDMDL
MODEL 5
REMARK VINA RESULT:      -5.0     24.436     27.706
REMARK  7 active torsions:
REMARK  status: ('A' for Active; 'I' for Inactive)
REMARK    1  A    between atoms: C_2  and  C_3 
REMARK    2  A    between atoms: C_3  and  O_6 
REMARK    3  A    between atoms: C_3  and  C_4 
REMARK    4  A    between atoms: C_7  and  O_6 
REMARK    5  A    between atoms: C_9  and  C_10 
REMARK    6  A    between atoms: N_15  and  C_14 
REMARK    7  A    between atoms: N_20  and  C_19 
REMARK       I    between atoms: C_22  and  N_20 
ROOT
ATOM      1  C   LIG d   1       1.848  85.707 114.335  0.00  0.00     0.161 C 
ATOM      2  C   LIG d   1       2.371  86.969 114.006  0.00  0.00     0.016 C 
ATOM      3  C   LIG d   1       3.293  87.179 112.956  0.00  0.00     0.038 C 
ATOM      4  C   LIG d   1       3.642  86.158 112.060  0.00  0.00     0.028 C 
ATOM      5  C   LIG d   1       3.529  84.761 112.660  0.00  0.00    -0.047 C 
ATOM      6  C   LIG d   1       2.131  84.600 113.298  0.00  0.00     0.091 C 
ENDROOT
BRANCH   1   7
ATOM      7  O   LIG d   1       0.431  85.814 114.579  0.00  0.00    -0.368 OA
BRANCH   7   8
ATOM      8  C   LIG d   1       0.012  85.695 115.961  0.00  0.00     0.119 C 
BRANCH   8   9
ATOM      9  C   LIG d   1       1.275  85.443 116.808  0.00  0.00     0.028 C 
ATOM     10  C   LIG d   1       0.955  85.272 118.302  0.00  0.00     0.006 C 
ENDBRANCH   8   9
BRANCH   8  11
ATOM     11  C   LIG d   1      -0.870  84.461 116.172  0.00  0.00     0.028 C 
ATOM     12  C   LIG d   1      -2.021  84.371 115.157  0.00  0.00     0.006 C 
ENDBRANCH   8  11
ENDBRANCH   7   8
ENDBRANCH   1   7
BRANCH   6  13
ATOM     13  N   LIG d   1       1.967  83.291 113.982  0.00  0.00    -0.311 N 
ATOM     14  C   LIG d   1       0.993  82.429 113.693  0.00  0.00     0.210 C 
ATOM     15  C   LIG d   1       0.994  81.147 114.531  0.00  0.00     0.109 C 
ATOM     16  O   LIG d   1       0.148  82.591 112.800  0.00  0.00    -0.276 OA
ATOM     17  H   LIG d   1       2.628  83.065 114.699  0.00  0.00     0.149 HD
ENDBRANCH   6  13
BRANCH   5  18
ATOM     18  N   LIG d   1       3.787  83.789 111.580  0.00  0.00     0.381 N 
ATOM     19  H   LIG d   1       4.059  82.910 111.973  0.00  0.00    -0.090 HD
ATOM     20  H   LIG d   1       4.544  84.128 111.012  0.00  0.00    -0.090 HD
ATOM     21  H   LIG d   1       2.970  83.674 111.023  0.00  0.00    -0.090 HD
ENDBRANCH   5  18
BRANCH   3  22
ATOM     22  C   LIG d   1       3.908  88.414 112.818  0.00  0.00     0.382 C 
ATOM     23  O   LIG d   1       3.214  89.457 112.759  0.00  0.00    -0.241 OA
ATOM     24  O   LIG d   1       5.146  88.495 112.708  0.00  0.00    -0.241 OA
ENDBRANCH   3  22
TORSDOF 7
ENDMDL
MODEL 6
REMARK VINA RESULT:      -5.0     21.862     25.497
REMARK  7 active torsions:
REMARK  status: ('A' for Active; 'I' for Inactive)
REMARK    1  A    between atoms: C_2  and  C_3 
REMARK    2  A    between atoms: C_3  and  O_6 
REMARK    3  A    between atoms: C_3  and  C_4 
REMARK    4  A    between atoms: C_7  and  O_6 
REMARK    5  A    between atoms: C_9  and  C_10 
REMARK    6  A    between atoms: N_15  and  C_14 
REMARK    7  A    between atoms: N_20  and  C_19 
REMARK       I    between atoms: C_22  and  N_20 
ROOT
ATOM      1  C   LIG d   1      -0.479  83.730 112.686  0.00  0.00     0.161 C 
ATOM      2  C   LIG d   1      -1.426  82.705 112.845  0.00  0.00     0.016 C 
ATOM      3  C   LIG d   1      -1.134  81.337 112.637  0.00  0.00     0.038 C 
ATOM      4  C   LIG d   1       0.173  80.885 112.402  0.00  0.00     0.028 C 
ATOM      5  C   LIG d   1       1.063  81.928 111.735  0.00  0.00    -0.047 C 
ATOM      6  C   LIG d   1       0.979  83.247 112.538  0.00  0.00     0.091 C 
ENDROOT
BRANCH   1   7
ATOM      7  O   LIG d   1      -0.587  84.669 113.775  0.00  0.00    -0.368 OA
BRANCH   7   8
ATOM      8  C   LIG d   1      -0.086  84.218 115.057  0.00  0.00     0.119 C 
BRANCH   8   9
ATOM      9  C   LIG d   1      -1.214  84.410 116.089  0.00  0.00     0.028 C 
ATOM     10  C   LIG d   1      -0.831  83.881 117.482  0.00  0.00     0.006 C 
ENDBRANCH   8   9
BRANCH   8  11
ATOM     11  C   LIG d   1       1.066  85.101 115.546  0.00  0.00     0.028 C 
ATOM     12  C   LIG d   1       1.052  86.503 114.916  0.00  0.00     0.006 C 
ENDBRANCH   8  11
ENDBRANCH   7   8
ENDBRANCH   1   7
BRANCH   6  13
ATOM     13  N   LIG d   1       1.755  84.346 111.906  0.00  0.00    -0.311 N 
ATOM     14  C   LIG d   1       3.010  84.643 112.240  0.00  0.00     0.210 C 
ATOM     15  C   LIG d   1       3.618  85.826 111.480  0.00  0.00     0.109 C 
ATOM     16  O   LIG d   1       3.687  84.019 113.070  0.00  0.00    -0.276 OA
ATOM     17  H   LIG d   1       1.292  84.884 111.200  0.00  0.00     0.149 HD
ENDBRANCH   6  13
BRANCH   5  18
ATOM     18  N   LIG d   1       2.429  81.375 111.674  0.00  0.00     0.381 N 
ATOM     19  H   LIG d   1       2.394  80.417 111.389  0.00  0.00    -0.090 HD
ATOM     20  H   LIG d   1       2.838  81.417 112.591  0.00  0.00    -0.090 HD
ATOM     21  H   LIG d   1       2.982  81.900 111.032  0.00  0.00    -0.090 HD
ENDBRANCH   5  18
BRANCH   3  22
ATOM     22  C   LIG d   1      -2.164  80.409 112.625  0.00  0.00     0.382 C 
ATOM     23  O   LIG d   1      -2.134  79.450 111.816  0.00  0.00    -0.241 OA
ATOM     24  O   LIG d   1      -3.144  80.543 113.382  0.00  0.00    -0.241 OA
ENDBRANCH   3  22
TORSDOF 7
ENDMDL
MODEL 7
REMARK VINA RESULT:      -4.9     23.334     26.909
REMARK  7 active torsions:
REMARK  status: ('A' for Active; 'I' for Inactive)
REMARK    1  A    between atoms: C_2  and  C_3 
REMARK    2  A    between atoms: C_3  and  O_6 
REMARK    3  A    between atoms: C_3  and  C_4 
REMARK    4  A    between atoms: C_7  and  O_6 
REMARK    5  A    between atoms: C_9  and  C_10 
REMARK    6  A    between atoms: N_15  and  C_14 
REMARK    7  A    between atoms: N_20  and  C_19 
REMARK       I    between atoms: C_22  and  N_20 
ROOT
ATOM      1  C   LIG d   1       1.008  84.440 113.371  0.00  0.00     0.161 C 
ATOM      2  C   LIG d   1       0.189  83.565 112.638  0.00  0.00     0.016 C 
ATOM      3  C   LIG d   1      -0.994  82.989 113.156  0.00  0.00     0.038 C 
ATOM      4  C   LIG d   1      -1.522  83.372 114.398  0.00  0.00     0.028 C 
ATOM      5  C   LIG d   1      -0.466  83.869 115.378  0.00  0.00    -0.047 C 
ATOM      6  C   LIG d   1       0.389  84.956 114.687  0.00  0.00     0.091 C 
ENDROOT
BRANCH   1   7
ATOM      7  O   LIG d   1       1.409  85.546 112.538  0.00  0.00    -0.368 OA
BRANCH   7   8
ATOM      8  C   LIG d   1       2.836  85.744 112.384  0.00  0.00     0.119 C 
BRANCH   8   9
ATOM      9  C   LIG d   1       3.086  87.262 112.294  0.00  0.00     0.028 C 
ATOM     10  C   LIG d   1       4.367  87.690 113.028  0.00  0.00     0.006 C 
ENDBRANCH   8   9
BRANCH   8  11
ATOM     11  C   LIG d   1       3.338  85.171 111.055  0.00  0.00     0.028 C 
ATOM     12  C   LIG d   1       3.751  83.694 111.162  0.00  0.00     0.006 C 
ENDBRANCH   8  11
ENDBRANCH   7   8
ENDBRANCH   1   7
BRANCH   6  13
ATOM     13  N   LIG d   1       1.501  85.436 115.548  0.00  0.00    -0.311 N 
ATOM     14  C   LIG d   1       1.752  86.725 115.770  0.00  0.00     0.210 C 
ATOM     15  C   LIG d   1       2.957  87.003 116.673  0.00  0.00     0.109 C 
ATOM     16  O   LIG d   1       1.072  87.664 115.329  0.00  0.00    -0.276 OA
ATOM     17  H   LIG d   1       2.084  84.741 115.971  0.00  0.00     0.149 HD
ENDBRANCH   6  13
BRANCH   5  18
ATOM     18  N   LIG d   1      -1.168  84.363 116.578  0.00  0.00     0.381 N 
ATOM     19  H   LIG d   1      -0.510  84.767 117.214  0.00  0.00    -0.090 HD
ATOM     20  H   LIG d   1      -1.615  83.588 117.035  0.00  0.00    -0.090 HD
ATOM     21  H   LIG d   1      -1.849  85.042 116.319  0.00  0.00    -0.090 HD
ENDBRANCH   5  18
BRANCH   3  22
ATOM     22  C   LIG d   1      -1.640  81.990 112.445  0.00  0.00     0.382 C 
ATOM     23  O   LIG d   1      -0.974  81.178 111.758  0.00  0.00    -0.241 OA
ATOM     24  O   LIG d   1      -2.884  81.917 112.445  0.00  0.00    -0.241 OA
ENDBRANCH   3  22
TORSDOF 7
ENDMDL
MODEL 8
REMARK VINA RESULT:      -4.8     21.937     25.177
REMARK  7 active torsions:
REMARK  status: ('A' for Active; 'I' for Inactive)
REMARK    1  A    between atoms: C_2  and  C_3 
REMARK    2  A    between atoms: C_3  and  O_6 
REMARK    3  A    between atoms: C_3  and  C_4 
REMARK    4  A    between atoms: C_7  and  O_6 
REMARK    5  A    between atoms: C_9  and  C_10 
REMARK    6  A    between atoms: N_15  and  C_14 
REMARK    7  A    between atoms: N_20  and  C_19 
REMARK       I    between atoms: C_22  and  N_20 
ROOT
ATOM      1  C   LIG d   1      -0.316  83.864 114.309  0.00  0.00     0.161 C 
ATOM      2  C   LIG d   1      -1.421  82.997 114.270  0.00  0.00     0.016 C 
ATOM      3  C   LIG d   1      -1.600  82.009 113.276  0.00  0.00     0.038 C 
ATOM      4  C   LIG d   1      -0.604  81.718 112.332  0.00  0.00     0.028 C 
ATOM      5  C   LIG d   1       0.304  82.904 112.023  0.00  0.00    -0.047 C 
ATOM      6  C   LIG d   1       0.835  83.488 113.352  0.00  0.00     0.091 C 
ENDROOT
BRANCH   1   7
ATOM      7  O   LIG d   1       0.172  83.975 115.660  0.00  0.00    -0.368 OA
BRANCH   7   8
ATOM      8  C   LIG d   1      -0.307  82.976 116.595  0.00  0.00     0.119 C 
BRANCH   8   9
ATOM      9  C   LIG d   1      -0.754  83.714 117.872  0.00  0.00     0.028 C 
ATOM     10  C   LIG d   1       0.304  84.710 118.375  0.00  0.00     0.006 C 
ENDBRANCH   8   9
BRANCH   8  11
ATOM     11  C   LIG d   1       0.822  82.043 117.040  0.00  0.00     0.028 C 
ATOM     12  C   LIG d   1       1.042  80.869 116.071  0.00  0.00     0.006 C 
ENDBRANCH   8  11
ENDBRANCH   7   8
ENDBRANCH   1   7
BRANCH   6  13
ATOM     13  N   LIG d   1       1.664  84.704 113.145  0.00  0.00    -0.311 N 
ATOM     14  C   LIG d   1       2.949  84.783 113.488  0.00  0.00     0.210 C 
ATOM     15  C   LIG d   1       3.612  86.134 113.206  0.00  0.00     0.109 C 
ATOM     16  O   LIG d   1       3.611  83.851 113.969  0.00  0.00    -0.276 OA
ATOM     17  H   LIG d   1       1.215  85.497 112.732  0.00  0.00     0.149 HD
ENDBRANCH   6  13
BRANCH   5  18
ATOM     18  N   LIG d   1       1.377  82.424 111.133  0.00  0.00     0.381 N 
ATOM     19  H   LIG d   1       1.488  83.056 110.365  0.00  0.00    -0.090 HD
ATOM     20  H   LIG d   1       1.118  81.525 110.766  0.00  0.00    -0.090 HD
ATOM     21  H   LIG d   1       2.232  82.350 111.638  0.00  0.00    -0.090 HD
ENDBRANCH   5  18
BRANCH   3  22
ATOM     22  C   LIG d   1      -2.804  81.326 113.195  0.00  0.00     0.382 C 
ATOM     23  O   LIG d   1      -2.945  80.231 113.791  0.00  0.00    -0.241 OA
ATOM     24  O   LIG d   1      -3.735  81.769 112.496  0.00  0.00    -0.241 OA
ENDBRANCH   3  22
TORSDOF 7
ENDMDL
MODEL 9
REMARK VINA RESULT:      -4.8      2.634      4.285
REMARK  7 active torsions:
REMARK  status: ('A' for Active; 'I' for Inactive)
REMARK    1  A    between atoms: C_2  and  C_3 
REMARK    2  A    between atoms: C_3  and  O_6 
REMARK    3  A    between atoms: C_3  and  C_4 
REMARK    4  A    between atoms: C_7  and  O_6 
REMARK    5  A    between atoms: C_9  and  C_10 
REMARK    6  A    between atoms: N_15  and  C_14 
REMARK    7  A    between atoms: N_20  and  C_19 
REMARK       I    between atoms: C_22  and  N_20 
ROOT
ATOM      1  C   LIG d   1     -16.818  63.126 116.218  0.00  0.00     0.161 C 
ATOM      2  C   LIG d   1     -16.356  64.402 116.584  0.00  0.00     0.016 C 
ATOM      3  C   LIG d   1     -16.068  65.423 115.649  0.00  0.00     0.038 C 
ATOM      4  C   LIG d   1     -16.369  65.286 114.286  0.00  0.00     0.028 C 
ATOM      5  C   LIG d   1     -16.364  63.838 113.807  0.00  0.00    -0.047 C 
ATOM      6  C   LIG d   1     -17.258  62.996 114.745  0.00  0.00     0.091 C 
ENDROOT
BRANCH   1   7
ATOM      7  O   LIG d   1     -17.887  62.723 117.098  0.00  0.00    -0.368 OA
BRANCH   7   8
ATOM      8  C   LIG d   1     -19.232  62.997 116.634  0.00  0.00     0.119 C 
BRANCH   8   9
ATOM      9  C   LIG d   1     -19.792  64.148 117.491  0.00  0.00     0.028 C 
ATOM     10  C   LIG d   1     -19.974  65.445 116.684  0.00  0.00     0.006 C 
ENDBRANCH   8   9
BRANCH   8  11
ATOM     11  C   LIG d   1     -20.163  61.809 116.892  0.00  0.00     0.028 C 
ATOM     12  C   LIG d   1     -21.071  61.491 115.693  0.00  0.00     0.006 C 
ENDBRANCH   8  11
ENDBRANCH   7   8
ENDBRANCH   1   7
BRANCH   6  13
ATOM     13  N   LIG d   1     -17.242  61.551 114.397  0.00  0.00    -0.311 N 
ATOM     14  C   LIG d   1     -18.091  60.995 113.534  0.00  0.00     0.210 C 
ATOM     15  C   LIG d   1     -17.914  59.487 113.335  0.00  0.00     0.109 C 
ATOM     16  O   LIG d   1     -18.952  61.614 112.891  0.00  0.00    -0.276 OA
ATOM     17  H   LIG d   1     -16.554  60.981 114.850  0.00  0.00     0.149 HD
ENDBRANCH   6  13
BRANCH   5  18
ATOM     18  N   LIG d   1     -16.827  63.831 112.406  0.00  0.00     0.381 N 
ATOM     19  H   LIG d   1     -17.809  64.019 112.373  0.00  0.00    -0.090 HD
ATOM     20  H   LIG d   1     -16.667  62.919 112.016  0.00  0.00    -0.090 HD
ATOM     21  H   LIG d   1     -16.332  64.517 111.880  0.00  0.00    -0.090 HD
ENDBRANCH   5  18
BRANCH   3  22
ATOM     22  C   LIG d   1     -15.436  66.582 116.071  0.00  0.00     0.382 C 
ATOM     23  O   LIG d   1     -15.628  67.014 117.233  0.00  0.00    -0.241 OA
ATOM     24  O   LIG d   1     -14.709  67.226 115.290  0.00  0.00    -0.241 OA
ENDBRANCH   3  22
TORSDOF 7
ENDMDL
