MODEL 1
REMARK VINA RESULT:      -5.8      0.000      0.000
REMARK  7 active torsions:
REMARK  status: ('A' for Active; 'I' for Inactive)
REMARK    1  A    between atoms: C_2  and  C_3 
REMARK    2  A    between atoms: C_3  and  O_6 
REMARK    3  A    between atoms: C_3  and  C_4 
REMARK    4  A    between atoms: C_7  and  O_6 
REMARK    5  A    between atoms: C_9  and  C_10 
REMARK    6  A    between atoms: N_15  and  C_14 
REMARK    7  A    between atoms: N_20  and  C_19 
REMARK       I    between atoms: C_22  and  N_20 
ROOT
ATOM      1  C   LIG d   1      -6.605  75.422 117.505  0.00  0.00     0.161 C 
ATOM      2  C   LIG d   1      -6.929  74.139 117.033  0.00  0.00     0.016 C 
ATOM      3  C   LIG d   1      -8.250  73.726 116.745  0.00  0.00     0.038 C 
ATOM      4  C   LIG d   1      -9.329  74.623 116.767  0.00  0.00     0.028 C 
ATOM      5  C   LIG d   1      -9.124  75.793 117.723  0.00  0.00    -0.047 C 
ATOM      6  C   LIG d   1      -7.755  76.448 117.429  0.00  0.00     0.091 C 
ENDROOT
BRANCH   1   7
ATOM      7  O   LIG d   1      -5.443  75.919 116.813  0.00  0.00    -0.368 OA
BRANCH   7   8
ATOM      8  C   LIG d   1      -4.777  74.981 115.932  0.00  0.00     0.119 C 
BRANCH   8   9
ATOM      9  C   LIG d   1      -3.334  74.811 116.444  0.00  0.00     0.028 C 
ATOM     10  C   LIG d   1      -2.306  74.768 115.300  0.00  0.00     0.006 C 
ENDBRANCH   8   9
BRANCH   8  11
ATOM     11  C   LIG d   1      -4.641  75.548 114.515  0.00  0.00     0.028 C 
ATOM     12  C   LIG d   1      -5.998  75.836 113.856  0.00  0.00     0.006 C 
ENDBRANCH   8  11
ENDBRANCH   7   8
ENDBRANCH   1   7
BRANCH   6  13
ATOM     13  N   LIG d   1      -7.438  77.549 118.376  0.00  0.00    -0.311 N 
ATOM     14  C   LIG d   1      -6.941  78.724 117.994  0.00  0.00     0.210 C 
ATOM     15  C   LIG d   1      -6.668  79.712 119.132  0.00  0.00     0.109 C 
ATOM     16  O   LIG d   1      -6.729  79.054 116.817  0.00  0.00    -0.276 OA
ATOM     17  H   LIG d   1      -7.609  77.379 119.348  0.00  0.00     0.149 HD
ENDBRANCH   6  13
BRANCH   5  18
ATOM     18  N   LIG d   1     -10.258  76.719 117.544  0.00  0.00     0.381 N 
ATOM     19  H   LIG d   1     -10.545  77.079 118.432  0.00  0.00    -0.090 HD
ATOM     20  H   LIG d   1     -11.030  76.215 117.144  0.00  0.00    -0.090 HD
ATOM     21  H   LIG d   1      -9.995  77.469 116.943  0.00  0.00    -0.090 HD
ENDBRANCH   5  18
BRANCH   3  22
ATOM     22  C   LIG d   1      -8.509  72.392 116.470  0.00  0.00     0.382 C 
ATOM     23  O   LIG d   1      -9.634  71.904 116.735  0.00  0.00    -0.241 OA
ATOM     24  O   LIG d   1      -7.617  71.660 116.001  0.00  0.00    -0.241 OA
ENDBRANCH   3  22
TORSDOF 7
ENDMDL
MODEL 2
REMARK VINA RESULT:      -5.8      2.060      4.674
REMARK  7 active torsions:
REMARK  status: ('A' for Active; 'I' for Inactive)
REMARK    1  A    between atoms: C_2  and  C_3 
REMARK    2  A    between atoms: C_3  and  O_6 
REMARK    3  A    between atoms: C_3  and  C_4 
REMARK    4  A    between atoms: C_7  and  O_6 
REMARK    5  A    between atoms: C_9  and  C_10 
REMARK    6  A    between atoms: N_15  and  C_14 
REMARK    7  A    between atoms: N_20  and  C_19 
REMARK       I    between atoms: C_22  and  N_20 
ROOT
ATOM      1  C   LIG d   1      -5.831  75.941 115.666  0.00  0.00     0.161 C 
ATOM      2  C   LIG d   1      -4.714  75.156 115.337  0.00  0.00     0.016 C 
ATOM      3  C   LIG d   1      -3.499  75.189 116.061  0.00  0.00     0.038 C 
ATOM      4  C   LIG d   1      -3.371  75.903 117.262  0.00  0.00     0.028 C 
ATOM      5  C   LIG d   1      -4.307  77.104 117.355  0.00  0.00    -0.047 C 
ATOM      6  C   LIG d   1      -5.748  76.643 117.037  0.00  0.00     0.091 C 
ENDROOT
BRANCH   1   7
ATOM      7  O   LIG d   1      -7.029  75.144 115.583  0.00  0.00    -0.368 OA
BRANCH   7   8
ATOM      8  C   LIG d   1      -7.333  74.327 116.740  0.00  0.00     0.119 C 
BRANCH   8   9
ATOM      9  C   LIG d   1      -7.239  72.852 116.303  0.00  0.00     0.028 C 
ATOM     10  C   LIG d   1      -8.534  72.072 116.586  0.00  0.00     0.006 C 
ENDBRANCH   8   9
BRANCH   8  11
ATOM     11  C   LIG d   1      -8.782  74.523 117.197  0.00  0.00     0.028 C 
ATOM     12  C   LIG d   1      -9.529  75.580 116.369  0.00  0.00     0.006 C 
ENDBRANCH   8  11
ENDBRANCH   7   8
ENDBRANCH   1   7
BRANCH   6  13
ATOM     13  N   LIG d   1      -6.714  77.772 117.024  0.00  0.00    -0.311 N 
ATOM     14  C   LIG d   1      -7.449  78.121 118.079  0.00  0.00     0.210 C 
ATOM     15  C   LIG d   1      -8.397  79.301 117.846  0.00  0.00     0.109 C 
ATOM     16  O   LIG d   1      -7.382  77.585 119.196  0.00  0.00    -0.276 OA
ATOM     17  H   LIG d   1      -6.809  78.281 116.168  0.00  0.00     0.149 HD
ENDBRANCH   6  13
BRANCH   5  18
ATOM     18  N   LIG d   1      -4.167  77.674 118.709  0.00  0.00     0.381 N 
ATOM     19  H   LIG d   1      -3.606  78.501 118.672  0.00  0.00    -0.090 HD
ATOM     20  H   LIG d   1      -3.704  77.004 119.297  0.00  0.00    -0.090 HD
ATOM     21  H   LIG d   1      -5.065  77.889 119.082  0.00  0.00    -0.090 HD
ENDBRANCH   5  18
BRANCH   3  22
ATOM     22  C   LIG d   1      -2.384  74.534 115.563  0.00  0.00     0.382 C 
ATOM     23  O   LIG d   1      -1.521  74.077 116.350  0.00  0.00    -0.241 OA
ATOM     24  O   LIG d   1      -2.208  74.431 114.334  0.00  0.00    -0.241 OA
ENDBRANCH   3  22
TORSDOF 7
ENDMDL
MODEL 3
REMARK VINA RESULT:      -5.7      2.375      4.950
REMARK  7 active torsions:
REMARK  status: ('A' for Active; 'I' for Inactive)
REMARK    1  A    between atoms: C_2  and  C_3 
REMARK    2  A    between atoms: C_3  and  O_6 
REMARK    3  A    between atoms: C_3  and  C_4 
REMARK    4  A    between atoms: C_7  and  O_6 
REMARK    5  A    between atoms: C_9  and  C_10 
REMARK    6  A    between atoms: N_15  and  C_14 
REMARK    7  A    between atoms: N_20  and  C_19 
REMARK       I    between atoms: C_22  and  N_20 
ROOT
ATOM      1  C   LIG d   1      -7.612  76.760 117.607  0.00  0.00     0.161 C 
ATOM      2  C   LIG d   1      -8.846  77.377 117.872  0.00  0.00     0.016 C 
ATOM      3  C   LIG d   1      -9.002  78.774 118.015  0.00  0.00     0.038 C 
ATOM      4  C   LIG d   1      -7.954  79.669 117.752  0.00  0.00     0.028 C 
ATOM      5  C   LIG d   1      -6.572  79.064 117.976  0.00  0.00    -0.047 C 
ATOM      6  C   LIG d   1      -6.478  77.727 117.207  0.00  0.00     0.091 C 
ENDROOT
BRANCH   1   7
ATOM      7  O   LIG d   1      -7.780  75.742 116.601  0.00  0.00    -0.368 OA
BRANCH   7   8
ATOM      8  C   LIG d   1      -7.897  74.381 117.085  0.00  0.00     0.119 C 
BRANCH   8   9
ATOM      9  C   LIG d   1      -6.738  73.571 116.472  0.00  0.00     0.028 C 
ATOM     10  C   LIG d   1      -6.055  74.311 115.309  0.00  0.00     0.006 C 
ENDBRANCH   8   9
BRANCH   8  11
ATOM     11  C   LIG d   1      -9.175  73.714 116.568  0.00  0.00     0.028 C 
ATOM     12  C   LIG d   1      -9.187  72.194 116.795  0.00  0.00     0.006 C 
ENDBRANCH   8  11
ENDBRANCH   7   8
ENDBRANCH   1   7
BRANCH   6  13
ATOM     13  N   LIG d   1      -5.187  77.028 117.440  0.00  0.00    -0.311 N 
ATOM     14  C   LIG d   1      -4.128  77.158 116.643  0.00  0.00     0.210 C 
ATOM     15  C   LIG d   1      -2.904  76.334 117.054  0.00  0.00     0.109 C 
ATOM     16  O   LIG d   1      -4.076  77.903 115.653  0.00  0.00    -0.276 OA
ATOM     17  H   LIG d   1      -5.132  76.427 118.240  0.00  0.00     0.149 HD
ENDBRANCH   6  13
BRANCH   5  18
ATOM     18  N   LIG d   1      -5.574  80.057 117.534  0.00  0.00     0.381 N 
ATOM     19  H   LIG d   1      -5.872  80.477 116.676  0.00  0.00    -0.090 HD
ATOM     20  H   LIG d   1      -4.701  79.589 117.369  0.00  0.00    -0.090 HD
ATOM     21  H   LIG d   1      -5.458  80.758 118.232  0.00  0.00    -0.090 HD
ENDBRANCH   5  18
BRANCH   3  22
ATOM     22  C   LIG d   1     -10.209  79.288 118.465  0.00  0.00     0.382 C 
ATOM     23  O   LIG d   1     -10.587  80.423 118.086  0.00  0.00    -0.241 OA
ATOM     24  O   LIG d   1     -10.903  78.651 119.279  0.00  0.00    -0.241 OA
ENDBRANCH   3  22
TORSDOF 7
ENDMDL
MODEL 4
REMARK VINA RESULT:      -5.2     16.839     18.253
REMARK  7 active torsions:
REMARK  status: ('A' for Active; 'I' for Inactive)
REMARK    1  A    between atoms: C_2  and  C_3 
REMARK    2  A    between atoms: C_3  and  O_6 
REMARK    3  A    between atoms: C_3  and  C_4 
REMARK    4  A    between atoms: C_7  and  O_6 
REMARK    5  A    between atoms: C_9  and  C_10 
REMARK    6  A    between atoms: N_15  and  C_14 
REMARK    7  A    between atoms: N_20  and  C_19 
REMARK       I    between atoms: C_22  and  N_20 
ROOT
ATOM      1  C   LIG d   1       4.065  88.624 115.269  0.00  0.00     0.161 C 
ATOM      2  C   LIG d   1       3.362  88.156 114.146  0.00  0.00     0.016 C 
ATOM      3  C   LIG d   1       3.946  88.013 112.866  0.00  0.00     0.038 C 
ATOM      4  C   LIG d   1       5.322  88.187 112.655  0.00  0.00     0.028 C 
ATOM      5  C   LIG d   1       5.971  89.145 113.648  0.00  0.00    -0.047 C 
ATOM      6  C   LIG d   1       5.595  88.712 115.083  0.00  0.00     0.091 C 
ENDROOT
BRANCH   1   7
ATOM      7  O   LIG d   1       3.746  87.814 116.417  0.00  0.00    -0.368 OA
BRANCH   7   8
ATOM      8  C   LIG d   1       2.958  88.456 117.450  0.00  0.00     0.119 C 
BRANCH   8   9
ATOM      9  C   LIG d   1       2.613  89.874 116.955  0.00  0.00     0.028 C 
ATOM     10  C   LIG d   1       1.097  90.100 116.833  0.00  0.00     0.006 C 
ENDBRANCH   8   9
BRANCH   8  11
ATOM     11  C   LIG d   1       3.775  88.660 118.729  0.00  0.00     0.028 C 
ATOM     12  C   LIG d   1       3.914  90.140 119.117  0.00  0.00     0.006 C 
ENDBRANCH   8  11
ENDBRANCH   7   8
ENDBRANCH   1   7
BRANCH   6  13
ATOM     13  N   LIG d   1       6.119  89.646 116.114  0.00  0.00    -0.311 N 
ATOM     14  C   LIG d   1       7.051  89.308 117.003  0.00  0.00     0.210 C 
ATOM     15  C   LIG d   1       7.436  90.416 117.989  0.00  0.00     0.109 C 
ATOM     16  O   LIG d   1       7.619  88.207 117.048  0.00  0.00    -0.276 OA
ATOM     17  H   LIG d   1       5.736  90.571 116.128  0.00  0.00     0.149 HD
ENDBRANCH   6  13
BRANCH   5  18
ATOM     18  N   LIG d   1       7.425  89.127 113.401  0.00  0.00     0.381 N 
ATOM     19  H   LIG d   1       7.643  88.431 112.716  0.00  0.00    -0.090 HD
ATOM     20  H   LIG d   1       7.897  88.887 114.255  0.00  0.00    -0.090 HD
ATOM     21  H   LIG d   1       7.729  90.021 113.084  0.00  0.00    -0.090 HD
ENDBRANCH   5  18
BRANCH   3  22
ATOM     22  C   LIG d   1       3.143  87.732 111.772  0.00  0.00     0.382 C 
ATOM     23  O   LIG d   1       3.345  86.695 111.095  0.00  0.00    -0.241 OA
ATOM     24  O   LIG d   1       2.246  88.524 111.426  0.00  0.00    -0.241 OA
ENDBRANCH   3  22
TORSDOF 7
ENDMDL
MODEL 5
REMARK VINA RESULT:      -5.2      4.784      7.449
REMARK  7 active torsions:
REMARK  status: ('A' for Active; 'I' for Inactive)
REMARK    1  A    between atoms: C_2  and  C_3 
REMARK    2  A    between atoms: C_3  and  O_6 
REMARK    3  A    between atoms: C_3  and  C_4 
REMARK    4  A    between atoms: C_7  and  O_6 
REMARK    5  A    between atoms: C_9  and  C_10 
REMARK    6  A    between atoms: N_15  and  C_14 
REMARK    7  A    between atoms: N_20  and  C_19 
REMARK       I    between atoms: C_22  and  N_20 
ROOT
ATOM      1  C   LIG d   1      -1.271  75.142 114.989  0.00  0.00     0.161 C 
ATOM      2  C   LIG d   1      -0.950  73.848 114.548  0.00  0.00     0.016 C 
ATOM      3  C   LIG d   1       0.335  73.274 114.687  0.00  0.00     0.038 C 
ATOM      4  C   LIG d   1       1.352  73.904 115.419  0.00  0.00     0.028 C 
ATOM      5  C   LIG d   1       1.227  75.424 115.446  0.00  0.00    -0.047 C 
ATOM      6  C   LIG d   1      -0.205  75.802 115.889  0.00  0.00     0.091 C 
ENDROOT
BRANCH   1   7
ATOM      7  O   LIG d   1      -2.549  75.128 115.655  0.00  0.00    -0.368 OA
BRANCH   7   8
ATOM      8  C   LIG d   1      -3.623  75.836 114.988  0.00  0.00     0.119 C 
BRANCH   8   9
ATOM      9  C   LIG d   1      -4.153  76.902 115.967  0.00  0.00     0.028 C 
ATOM     10  C   LIG d   1      -3.726  76.629 117.419  0.00  0.00     0.006 C 
ENDBRANCH   8   9
BRANCH   8  11
ATOM     11  C   LIG d   1      -4.813  74.913 114.711  0.00  0.00     0.028 C 
ATOM     12  C   LIG d   1      -6.125  75.681 114.487  0.00  0.00     0.006 C 
ENDBRANCH   8  11
ENDBRANCH   7   8
ENDBRANCH   1   7
BRANCH   6  13
ATOM     13  N   LIG d   1      -0.438  77.269 115.861  0.00  0.00    -0.311 N 
ATOM     14  C   LIG d   1      -0.296  78.054 116.927  0.00  0.00     0.210 C 
ATOM     15  C   LIG d   1      -0.605  79.535 116.686  0.00  0.00     0.109 C 
ATOM     16  O   LIG d   1       0.089  77.670 118.042  0.00  0.00    -0.276 OA
ATOM     17  H   LIG d   1      -0.723  77.669 114.989  0.00  0.00     0.149 HD
ENDBRANCH   6  13
BRANCH   5  18
ATOM     18  N   LIG d   1       2.268  75.941 116.355  0.00  0.00     0.381 N 
ATOM     19  H   LIG d   1       1.894  76.039 117.277  0.00  0.00    -0.090 HD
ATOM     20  H   LIG d   1       2.558  76.848 116.034  0.00  0.00    -0.090 HD
ATOM     21  H   LIG d   1       3.048  75.320 116.368  0.00  0.00    -0.090 HD
ENDBRANCH   5  18
BRANCH   3  22
ATOM     22  C   LIG d   1       0.624  72.074 114.057  0.00  0.00     0.382 C 
ATOM     23  O   LIG d   1       0.700  72.026 112.805  0.00  0.00    -0.241 OA
ATOM     24  O   LIG d   1       0.765  71.029 114.721  0.00  0.00    -0.241 OA
ENDBRANCH   3  22
TORSDOF 7
ENDMDL
MODEL 6
REMARK VINA RESULT:      -5.2     14.952     17.571
REMARK  7 active torsions:
REMARK  status: ('A' for Active; 'I' for Inactive)
REMARK    1  A    between atoms: C_2  and  C_3 
REMARK    2  A    between atoms: C_3  and  O_6 
REMARK    3  A    between atoms: C_3  and  C_4 
REMARK    4  A    between atoms: C_7  and  O_6 
REMARK    5  A    between atoms: C_9  and  C_10 
REMARK    6  A    between atoms: N_15  and  C_14 
REMARK    7  A    between atoms: N_20  and  C_19 
REMARK       I    between atoms: C_22  and  N_20 
ROOT
ATOM      1  C   LIG d   1       4.034  88.567 115.276  0.00  0.00     0.161 C 
ATOM      2  C   LIG d   1       3.353  88.095 114.142  0.00  0.00     0.016 C 
ATOM      3  C   LIG d   1       3.955  87.974 112.868  0.00  0.00     0.038 C 
ATOM      4  C   LIG d   1       5.329  88.176 112.675  0.00  0.00     0.028 C 
ATOM      5  C   LIG d   1       5.948  89.139 113.682  0.00  0.00    -0.047 C 
ATOM      6  C   LIG d   1       5.564  88.686 115.110  0.00  0.00     0.091 C 
ENDROOT
BRANCH   1   7
ATOM      7  O   LIG d   1       3.717  87.742 116.415  0.00  0.00    -0.368 OA
BRANCH   7   8
ATOM      8  C   LIG d   1       3.278  86.393 116.122  0.00  0.00     0.119 C 
BRANCH   8   9
ATOM      9  C   LIG d   1       1.912  86.191 116.806  0.00  0.00     0.028 C 
ATOM     10  C   LIG d   1       0.934  85.383 115.937  0.00  0.00     0.006 C 
ENDBRANCH   8   9
BRANCH   8  11
ATOM     11  C   LIG d   1       4.207  85.354 116.758  0.00  0.00     0.028 C 
ATOM     12  C   LIG d   1       5.493  85.129 115.946  0.00  0.00     0.006 C 
ENDBRANCH   8  11
ENDBRANCH   7   8
ENDBRANCH   1   7
BRANCH   6  13
ATOM     13  N   LIG d   1       6.058  89.622 116.153  0.00  0.00    -0.311 N 
ATOM     14  C   LIG d   1       6.992  89.298 117.046  0.00  0.00     0.210 C 
ATOM     15  C   LIG d   1       7.342  90.404 118.046  0.00  0.00     0.109 C 
ATOM     16  O   LIG d   1       7.586  88.210 117.084  0.00  0.00    -0.276 OA
ATOM     17  H   LIG d   1       5.652  90.537 116.174  0.00  0.00     0.149 HD
ENDBRANCH   6  13
BRANCH   5  18
ATOM     18  N   LIG d   1       7.405  89.150 113.452  0.00  0.00     0.381 N 
ATOM     19  H   LIG d   1       7.646  88.451 112.778  0.00  0.00    -0.090 HD
ATOM     20  H   LIG d   1       7.872  88.931 114.314  0.00  0.00    -0.090 HD
ATOM     21  H   LIG d   1       7.692  90.048 113.128  0.00  0.00    -0.090 HD
ENDBRANCH   5  18
BRANCH   3  22
ATOM     22  C   LIG d   1       3.169  87.686 111.762  0.00  0.00     0.382 C 
ATOM     23  O   LIG d   1       3.393  86.652 111.087  0.00  0.00    -0.241 OA
ATOM     24  O   LIG d   1       2.269  88.469 111.405  0.00  0.00    -0.241 OA
ENDBRANCH   3  22
TORSDOF 7
ENDMDL
MODEL 7
REMARK VINA RESULT:      -5.1      7.007      9.310
REMARK  7 active torsions:
REMARK  status: ('A' for Active; 'I' for Inactive)
REMARK    1  A    between atoms: C_2  and  C_3 
REMARK    2  A    between atoms: C_3  and  O_6 
REMARK    3  A    between atoms: C_3  and  C_4 
REMARK    4  A    between atoms: C_7  and  O_6 
REMARK    5  A    between atoms: C_9  and  C_10 
REMARK    6  A    between atoms: N_15  and  C_14 
REMARK    7  A    between atoms: N_20  and  C_19 
REMARK       I    between atoms: C_22  and  N_20 
ROOT
ATOM      1  C   LIG d   1      -2.452  81.874 113.593  0.00  0.00     0.161 C 
ATOM      2  C   LIG d   1      -2.885  80.610 113.157  0.00  0.00     0.016 C 
ATOM      3  C   LIG d   1      -2.002  79.574 112.776  0.00  0.00     0.038 C 
ATOM      4  C   LIG d   1      -0.614  79.682 112.950  0.00  0.00     0.028 C 
ATOM      5  C   LIG d   1      -0.108  81.120 112.911  0.00  0.00    -0.047 C 
ATOM      6  C   LIG d   1      -0.942  81.972 113.894  0.00  0.00     0.091 C 
ENDROOT
BRANCH   1   7
ATOM      7  O   LIG d   1      -3.220  82.284 114.741  0.00  0.00    -0.368 OA
BRANCH   7   8
ATOM      8  C   LIG d   1      -2.727  81.840 116.029  0.00  0.00     0.119 C 
BRANCH   8   9
ATOM      9  C   LIG d   1      -3.832  80.983 116.677  0.00  0.00     0.028 C 
ATOM     10  C   LIG d   1      -3.522  79.478 116.610  0.00  0.00     0.006 C 
ENDBRANCH   8   9
BRANCH   8  11
ATOM     11  C   LIG d   1      -2.518  83.020 116.983  0.00  0.00     0.028 C 
ATOM     12  C   LIG d   1      -2.837  82.668 118.445  0.00  0.00     0.006 C 
ENDBRANCH   8  11
ENDBRANCH   7   8
ENDBRANCH   1   7
BRANCH   6  13
ATOM     13  N   LIG d   1      -0.568  83.410 113.856  0.00  0.00    -0.311 N 
ATOM     14  C   LIG d   1      -0.674  84.166 112.765  0.00  0.00     0.210 C 
ATOM     15  C   LIG d   1      -0.215  85.618 112.937  0.00  0.00     0.109 C 
ATOM     16  O   LIG d   1      -1.134  83.781 111.679  0.00  0.00    -0.276 OA
ATOM     17  H   LIG d   1      -0.215  83.812 114.702  0.00  0.00     0.149 HD
ENDBRANCH   6  13
BRANCH   5  18
ATOM     18  N   LIG d   1       1.329  81.096 113.241  0.00  0.00     0.381 N 
ATOM     19  H   LIG d   1       1.871  81.096 112.400  0.00  0.00    -0.090 HD
ATOM     20  H   LIG d   1       1.533  80.252 113.747  0.00  0.00    -0.090 HD
ATOM     21  H   LIG d   1       1.565  81.889 113.797  0.00  0.00    -0.090 HD
ENDBRANCH   5  18
BRANCH   3  22
ATOM     22  C   LIG d   1      -2.504  78.429 112.177  0.00  0.00     0.382 C 
ATOM     23  O   LIG d   1      -1.960  77.972 111.143  0.00  0.00    -0.241 OA
ATOM     24  O   LIG d   1      -3.520  77.871 112.632  0.00  0.00    -0.241 OA
ENDBRANCH   3  22
TORSDOF 7
ENDMDL
MODEL 8
REMARK VINA RESULT:      -5.0     12.789     15.566
REMARK  7 active torsions:
REMARK  status: ('A' for Active; 'I' for Inactive)
REMARK    1  A    between atoms: C_2  and  C_3 
REMARK    2  A    between atoms: C_3  and  O_6 
REMARK    3  A    between atoms: C_3  and  C_4 
REMARK    4  A    between atoms: C_7  and  O_6 
REMARK    5  A    between atoms: C_9  and  C_10 
REMARK    6  A    between atoms: N_15  and  C_14 
REMARK    7  A    between atoms: N_20  and  C_19 
REMARK       I    between atoms: C_22  and  N_20 
ROOT
ATOM      1  C   LIG d   1       2.940  85.780 113.147  0.00  0.00     0.161 C 
ATOM      2  C   LIG d   1       3.659  86.889 112.670  0.00  0.00     0.016 C 
ATOM      3  C   LIG d   1       4.611  87.591 113.445  0.00  0.00     0.038 C 
ATOM      4  C   LIG d   1       5.022  87.134 114.706  0.00  0.00     0.028 C 
ATOM      5  C   LIG d   1       3.961  86.312 115.428  0.00  0.00    -0.047 C 
ATOM      6  C   LIG d   1       3.456  85.200 114.480  0.00  0.00     0.091 C 
ENDROOT
BRANCH   1   7
ATOM      7  O   LIG d   1       2.900  84.753 112.136  0.00  0.00    -0.368 OA
BRANCH   7   8
ATOM      8  C   LIG d   1       1.718  84.728 111.299  0.00  0.00     0.119 C 
BRANCH   8   9
ATOM      9  C   LIG d   1       0.581  85.411 112.084  0.00  0.00     0.028 C 
ATOM     10  C   LIG d   1      -0.312  86.282 111.184  0.00  0.00     0.006 C 
ENDBRANCH   8   9
BRANCH   8  11
ATOM     11  C   LIG d   1       1.238  83.295 111.055  0.00  0.00     0.028 C 
ATOM     12  C   LIG d   1       0.604  82.658 112.302  0.00  0.00     0.006 C 
ENDBRANCH   8  11
ENDBRANCH   7   8
ENDBRANCH   1   7
BRANCH   6  13
ATOM     13  N   LIG d   1       2.355  84.401 115.079  0.00  0.00    -0.311 N 
ATOM     14  C   LIG d   1       2.543  83.223 115.672  0.00  0.00     0.210 C 
ATOM     15  C   LIG d   1       1.270  82.557 116.204  0.00  0.00     0.109 C 
ATOM     16  O   LIG d   1       3.647  82.682 115.836  0.00  0.00    -0.276 OA
ATOM     17  H   LIG d   1       1.431  84.780 115.018  0.00  0.00     0.149 HD
ENDBRANCH   6  13
BRANCH   5  18
ATOM     18  N   LIG d   1       4.569  85.785 116.665  0.00  0.00     0.381 N 
ATOM     19  H   LIG d   1       4.304  86.356 117.442  0.00  0.00    -0.090 HD
ATOM     20  H   LIG d   1       5.570  85.820 116.575  0.00  0.00    -0.090 HD
ATOM     21  H   LIG d   1       4.275  84.846 116.817  0.00  0.00    -0.090 HD
ENDBRANCH   5  18
BRANCH   3  22
ATOM     22  C   LIG d   1       5.133  88.786 112.974  0.00  0.00     0.382 C 
ATOM     23  O   LIG d   1       4.412  89.812 112.932  0.00  0.00    -0.241 OA
ATOM     24  O   LIG d   1       6.303  88.841 112.550  0.00  0.00    -0.241 OA
ENDBRANCH   3  22
TORSDOF 7
ENDMDL
MODEL 9
REMARK VINA RESULT:      -4.9      2.220      4.922
REMARK  7 active torsions:
REMARK  status: ('A' for Active; 'I' for Inactive)
REMARK    1  A    between atoms: C_2  and  C_3 
REMARK    2  A    between atoms: C_3  and  O_6 
REMARK    3  A    between atoms: C_3  and  C_4 
REMARK    4  A    between atoms: C_7  and  O_6 
REMARK    5  A    between atoms: C_9  and  C_10 
REMARK    6  A    between atoms: N_15  and  C_14 
REMARK    7  A    between atoms: N_20  and  C_19 
REMARK       I    between atoms: C_22  and  N_20 
ROOT
ATOM      1  C   LIG d   1      -5.837  76.997 117.182  0.00  0.00     0.161 C 
ATOM      2  C   LIG d   1      -4.598  76.524 116.719  0.00  0.00     0.016 C 
ATOM      3  C   LIG d   1      -4.428  75.262 116.103  0.00  0.00     0.038 C 
ATOM      4  C   LIG d   1      -5.519  74.446 115.771  0.00  0.00     0.028 C 
ATOM      5  C   LIG d   1      -6.731  74.659 116.672  0.00  0.00    -0.047 C 
ATOM      6  C   LIG d   1      -7.057  76.169 116.728  0.00  0.00     0.091 C 
ENDROOT
BRANCH   1   7
ATOM      7  O   LIG d   1      -6.002  78.379 116.807  0.00  0.00    -0.368 OA
BRANCH   7   8
ATOM      8  C   LIG d   1      -5.987  79.340 117.892  0.00  0.00     0.119 C 
BRANCH   8   9
ATOM      9  C   LIG d   1      -7.019  80.434 117.557  0.00  0.00     0.028 C 
ATOM     10  C   LIG d   1      -8.456  80.012 117.909  0.00  0.00     0.006 C 
ENDBRANCH   8   9
BRANCH   8  11
ATOM     11  C   LIG d   1      -4.640  80.065 117.974  0.00  0.00     0.028 C 
ATOM     12  C   LIG d   1      -4.632  81.395 117.205  0.00  0.00     0.006 C 
ENDBRANCH   8  11
ENDBRANCH   7   8
ENDBRANCH   1   7
BRANCH   6  13
ATOM     13  N   LIG d   1      -8.178  76.473 117.655  0.00  0.00    -0.311 N 
ATOM     14  C   LIG d   1      -9.461  76.372 117.312  0.00  0.00     0.210 C 
ATOM     15  C   LIG d   1     -10.456  76.753 118.413  0.00  0.00     0.109 C 
ATOM     16  O   LIG d   1      -9.869  75.972 116.212  0.00  0.00    -0.276 OA
ATOM     17  H   LIG d   1      -7.936  76.775 118.579  0.00  0.00     0.149 HD
ENDBRANCH   6  13
BRANCH   5  18
ATOM     18  N   LIG d   1      -7.838  73.848 116.130  0.00  0.00     0.381 N 
ATOM     19  H   LIG d   1      -7.548  72.894 116.043  0.00  0.00    -0.090 HD
ATOM     20  H   LIG d   1      -8.073  74.191 115.215  0.00  0.00    -0.090 HD
ATOM     21  H   LIG d   1      -8.631  73.909 116.729  0.00  0.00    -0.090 HD
ENDBRANCH   5  18
BRANCH   3  22
ATOM     22  C   LIG d   1      -3.150  74.788 115.850  0.00  0.00     0.382 C 
ATOM     23  O   LIG d   1      -2.544  74.121 116.724  0.00  0.00    -0.241 OA
ATOM     24  O   LIG d   1      -2.577  75.056 114.777  0.00  0.00    -0.241 OA
ENDBRANCH   3  22
TORSDOF 7
ENDMDL
