MODEL 1
REMARK VINA RESULT:      -5.5      0.000      0.000
REMARK  7 active torsions:
REMARK  status: ('A' for Active; 'I' for Inactive)
REMARK    1  A    between atoms: C_2  and  C_3 
REMARK    2  A    between atoms: C_3  and  O_6 
REMARK    3  A    between atoms: C_3  and  C_4 
REMARK    4  A    between atoms: C_7  and  O_6 
REMARK    5  A    between atoms: C_9  and  C_10 
REMARK    6  A    between atoms: N_15  and  C_14 
REMARK    7  A    between atoms: N_20  and  C_19 
REMARK       I    between atoms: C_22  and  N_20 
ROOT
ATOM      1  C   LIG d   1     -25.371  85.841 113.274  0.00  0.00     0.161 C 
ATOM      2  C   LIG d   1     -24.265  86.622 113.652  0.00  0.00     0.016 C 
ATOM      3  C   LIG d   1     -22.978  86.085 113.887  0.00  0.00     0.038 C 
ATOM      4  C   LIG d   1     -22.672  84.744 113.612  0.00  0.00     0.028 C 
ATOM      5  C   LIG d   1     -23.877  83.815 113.713  0.00  0.00    -0.047 C 
ATOM      6  C   LIG d   1     -25.030  84.394 112.862  0.00  0.00     0.091 C 
ENDROOT
BRANCH   1   7
ATOM      7  O   LIG d   1     -26.100  86.504 112.222  0.00  0.00    -0.368 OA
BRANCH   7   8
ATOM      8  C   LIG d   1     -26.738  87.755 112.579  0.00  0.00     0.119 C 
BRANCH   8   9
ATOM      9  C   LIG d   1     -28.165  87.427 113.058  0.00  0.00     0.028 C 
ATOM     10  C   LIG d   1     -28.904  86.482 112.096  0.00  0.00     0.006 C 
ENDBRANCH   8   9
BRANCH   8  11
ATOM     11  C   LIG d   1     -26.919  88.657 111.355  0.00  0.00     0.028 C 
ATOM     12  C   LIG d   1     -27.567  90.007 111.700  0.00  0.00     0.006 C 
ENDBRANCH   8  11
ENDBRANCH   7   8
ENDBRANCH   1   7
BRANCH   6  13
ATOM     13  N   LIG d   1     -26.275  83.590 112.973  0.00  0.00    -0.311 N 
ATOM     14  C   LIG d   1     -26.652  82.692 112.063  0.00  0.00     0.210 C 
ATOM     15  C   LIG d   1     -27.979  81.989 112.361  0.00  0.00     0.109 C 
ATOM     16  O   LIG d   1     -25.996  82.389 111.055  0.00  0.00    -0.276 OA
ATOM     17  H   LIG d   1     -26.852  83.750 113.776  0.00  0.00     0.149 HD
ENDBRANCH   6  13
BRANCH   5  18
ATOM     18  N   LIG d   1     -23.446  82.476 113.269  0.00  0.00     0.381 N 
ATOM     19  H   LIG d   1     -24.220  81.989 112.863  0.00  0.00    -0.090 HD
ATOM     20  H   LIG d   1     -23.129  81.955 114.067  0.00  0.00    -0.090 HD
ATOM     21  H   LIG d   1     -22.710  82.559 112.602  0.00  0.00    -0.090 HD
ENDBRANCH   5  18
BRANCH   3  22
ATOM     22  C   LIG d   1     -21.991  86.886 114.441  0.00  0.00     0.382 C 
ATOM     23  O   LIG d   1     -22.292  87.748 115.301  0.00  0.00    -0.241 OA
ATOM     24  O   LIG d   1     -20.809  86.787 114.059  0.00  0.00    -0.241 OA
ENDBRANCH   3  22
TORSDOF 7
ENDMDL
MODEL 2
REMARK VINA RESULT:      -5.5     25.581     28.413
REMARK  7 active torsions:
REMARK  status: ('A' for Active; 'I' for Inactive)
REMARK    1  A    between atoms: C_2  and  C_3 
REMARK    2  A    between atoms: C_3  and  O_6 
REMARK    3  A    between atoms: C_3  and  C_4 
REMARK    4  A    between atoms: C_7  and  O_6 
REMARK    5  A    between atoms: C_9  and  C_10 
REMARK    6  A    between atoms: N_15  and  C_14 
REMARK    7  A    between atoms: N_20  and  C_19 
REMARK       I    between atoms: C_22  and  N_20 
ROOT
ATOM      1  C   LIG d   1       2.172  86.247 114.408  0.00  0.00     0.161 C 
ATOM      2  C   LIG d   1       2.555  87.547 114.038  0.00  0.00     0.016 C 
ATOM      3  C   LIG d   1       3.710  88.191 114.539  0.00  0.00     0.038 C 
ATOM      4  C   LIG d   1       4.648  87.516 115.334  0.00  0.00     0.028 C 
ATOM      5  C   LIG d   1       4.047  86.369 116.139  0.00  0.00    -0.047 C 
ATOM      6  C   LIG d   1       3.243  85.455 115.187  0.00  0.00     0.091 C 
ENDROOT
BRANCH   1   7
ATOM      7  O   LIG d   1       1.754  85.511 113.241  0.00  0.00    -0.368 OA
BRANCH   7   8
ATOM      8  C   LIG d   1       1.905  86.190 111.971  0.00  0.00     0.119 C 
BRANCH   8   9
ATOM      9  C   LIG d   1       0.607  85.968 111.170  0.00  0.00     0.028 C 
ATOM     10  C   LIG d   1      -0.653  86.144 112.034  0.00  0.00     0.006 C 
ENDBRANCH   8   9
BRANCH   8  11
ATOM     11  C   LIG d   1       3.015  85.556 111.128  0.00  0.00     0.028 C 
ATOM     12  C   LIG d   1       3.425  84.163 111.632  0.00  0.00     0.006 C 
ENDBRANCH   8  11
ENDBRANCH   7   8
ENDBRANCH   1   7
BRANCH   6  13
ATOM     13  N   LIG d   1       2.552  84.354 115.907  0.00  0.00    -0.311 N 
ATOM     14  C   LIG d   1       3.091  83.151 116.098  0.00  0.00     0.210 C 
ATOM     15  C   LIG d   1       2.200  82.155 116.848  0.00  0.00     0.109 C 
ATOM     16  O   LIG d   1       4.234  82.824 115.745  0.00  0.00    -0.276 OA
ATOM     17  H   LIG d   1       1.632  84.543 116.255  0.00  0.00     0.149 HD
ENDBRANCH   6  13
BRANCH   5  18
ATOM     18  N   LIG d   1       5.157  85.668 116.813  0.00  0.00     0.381 N 
ATOM     19  H   LIG d   1       5.388  86.140 117.664  0.00  0.00    -0.090 HD
ATOM     20  H   LIG d   1       5.963  85.685 116.214  0.00  0.00    -0.090 HD
ATOM     21  H   LIG d   1       4.897  84.726 117.007  0.00  0.00    -0.090 HD
ENDBRANCH   5  18
BRANCH   3  22
ATOM     22  C   LIG d   1       3.914  89.537 114.278  0.00  0.00     0.382 C 
ATOM     23  O   LIG d   1       4.011  89.938 113.093  0.00  0.00    -0.241 OA
ATOM     24  O   LIG d   1       4.047  90.349 115.214  0.00  0.00    -0.241 OA
ENDBRANCH   3  22
TORSDOF 7
ENDMDL
MODEL 3
REMARK VINA RESULT:      -5.3      0.623      1.647
REMARK  7 active torsions:
REMARK  status: ('A' for Active; 'I' for Inactive)
REMARK    1  A    between atoms: C_2  and  C_3 
REMARK    2  A    between atoms: C_3  and  O_6 
REMARK    3  A    between atoms: C_3  and  C_4 
REMARK    4  A    between atoms: C_7  and  O_6 
REMARK    5  A    between atoms: C_9  and  C_10 
REMARK    6  A    between atoms: N_15  and  C_14 
REMARK    7  A    between atoms: N_20  and  C_19 
REMARK       I    between atoms: C_22  and  N_20 
ROOT
ATOM      1  C   LIG d   1     -25.405  85.749 113.256  0.00  0.00     0.161 C 
ATOM      2  C   LIG d   1     -24.310  86.546 113.629  0.00  0.00     0.016 C 
ATOM      3  C   LIG d   1     -23.018  86.027 113.876  0.00  0.00     0.038 C 
ATOM      4  C   LIG d   1     -22.696  84.686 113.619  0.00  0.00     0.028 C 
ATOM      5  C   LIG d   1     -23.891  83.744 113.727  0.00  0.00    -0.047 C 
ATOM      6  C   LIG d   1     -25.047  84.300 112.864  0.00  0.00     0.091 C 
ENDROOT
BRANCH   1   7
ATOM      7  O   LIG d   1     -26.137  86.390 112.193  0.00  0.00    -0.368 OA
BRANCH   7   8
ATOM      8  C   LIG d   1     -27.403  86.990 112.563  0.00  0.00     0.119 C 
BRANCH   8   9
ATOM      9  C   LIG d   1     -27.160  88.499 112.758  0.00  0.00     0.028 C 
ATOM     10  C   LIG d   1     -26.858  89.221 111.434  0.00  0.00     0.006 C 
ENDBRANCH   8   9
BRANCH   8  11
ATOM     11  C   LIG d   1     -27.887  86.478 113.922  0.00  0.00     0.028 C 
ATOM     12  C   LIG d   1     -29.140  85.594 113.814  0.00  0.00     0.006 C 
ENDBRANCH   8  11
ENDBRANCH   7   8
ENDBRANCH   1   7
BRANCH   6  13
ATOM     13  N   LIG d   1     -26.284  83.484 112.979  0.00  0.00    -0.311 N 
ATOM     14  C   LIG d   1     -26.657  82.586 112.069  0.00  0.00     0.210 C 
ATOM     15  C   LIG d   1     -27.976  81.869 112.372  0.00  0.00     0.109 C 
ATOM     16  O   LIG d   1     -26.005  82.293 111.055  0.00  0.00    -0.276 OA
ATOM     17  H   LIG d   1     -26.856  83.635 113.786  0.00  0.00     0.149 HD
ENDBRANCH   6  13
BRANCH   5  18
ATOM     18  N   LIG d   1     -23.443  82.405 113.301  0.00  0.00     0.381 N 
ATOM     19  H   LIG d   1     -22.756  82.491 112.579  0.00  0.00    -0.090 HD
ATOM     20  H   LIG d   1     -24.230  81.902 112.929  0.00  0.00    -0.090 HD
ATOM     21  H   LIG d   1     -23.061  81.911 114.077  0.00  0.00    -0.090 HD
ENDBRANCH   5  18
BRANCH   3  22
ATOM     22  C   LIG d   1     -22.042  86.845 114.424  0.00  0.00     0.382 C 
ATOM     23  O   LIG d   1     -22.356  87.714 115.273  0.00  0.00    -0.241 OA
ATOM     24  O   LIG d   1     -20.858  86.755 114.047  0.00  0.00    -0.241 OA
ENDBRANCH   3  22
TORSDOF 7
ENDMDL
MODEL 4
REMARK VINA RESULT:      -5.2     26.938     29.486
REMARK  7 active torsions:
REMARK  status: ('A' for Active; 'I' for Inactive)
REMARK    1  A    between atoms: C_2  and  C_3 
REMARK    2  A    between atoms: C_3  and  O_6 
REMARK    3  A    between atoms: C_3  and  C_4 
REMARK    4  A    between atoms: C_7  and  O_6 
REMARK    5  A    between atoms: C_9  and  C_10 
REMARK    6  A    between atoms: N_15  and  C_14 
REMARK    7  A    between atoms: N_20  and  C_19 
REMARK       I    between atoms: C_22  and  N_20 
ROOT
ATOM      1  C   LIG d   1       3.219  88.595 115.136  0.00  0.00     0.161 C 
ATOM      2  C   LIG d   1       2.478  87.948 114.134  0.00  0.00     0.016 C 
ATOM      3  C   LIG d   1       2.884  87.890 112.781  0.00  0.00     0.038 C 
ATOM      4  C   LIG d   1       4.143  88.348 112.364  0.00  0.00     0.028 C 
ATOM      5  C   LIG d   1       4.706  89.458 113.245  0.00  0.00    -0.047 C 
ATOM      6  C   LIG d   1       4.648  89.004 114.722  0.00  0.00     0.091 C 
ENDROOT
BRANCH   1   7
ATOM      7  O   LIG d   1       3.257  87.776 116.322  0.00  0.00    -0.368 OA
BRANCH   7   8
ATOM      8  C   LIG d   1       2.397  86.611 116.319  0.00  0.00     0.119 C 
BRANCH   8   9
ATOM      9  C   LIG d   1       1.488  86.702 117.560  0.00  0.00     0.028 C 
ATOM     10  C   LIG d   1       0.545  87.916 117.509  0.00  0.00     0.006 C 
ENDBRANCH   8   9
BRANCH   8  11
ATOM     11  C   LIG d   1       3.204  85.322 116.501  0.00  0.00     0.028 C 
ATOM     12  C   LIG d   1       3.530  84.630 115.168  0.00  0.00     0.006 C 
ENDBRANCH   8  11
ENDBRANCH   7   8
ENDBRANCH   1   7
BRANCH   6  13
ATOM     13  N   LIG d   1       5.102  90.065 115.659  0.00  0.00    -0.311 N 
ATOM     14  C   LIG d   1       5.960  89.846 116.654  0.00  0.00     0.210 C 
ATOM     15  C   LIG d   1       6.279  91.073 117.514  0.00  0.00     0.109 C 
ATOM     16  O   LIG d   1       6.512  88.760 116.886  0.00  0.00    -0.276 OA
ATOM     17  H   LIG d   1       4.728  90.984 115.523  0.00  0.00     0.149 HD
ENDBRANCH   6  13
BRANCH   5  18
ATOM     18  N   LIG d   1       6.076  89.744 112.781  0.00  0.00     0.381 N 
ATOM     19  H   LIG d   1       6.732  89.523 113.504  0.00  0.00    -0.090 HD
ATOM     20  H   LIG d   1       6.152  90.725 112.576  0.00  0.00    -0.090 HD
ATOM     21  H   LIG d   1       6.278  89.211 111.964  0.00  0.00    -0.090 HD
ENDBRANCH   5  18
BRANCH   3  22
ATOM     22  C   LIG d   1       2.009  87.404 111.821  0.00  0.00     0.382 C 
ATOM     23  O   LIG d   1       0.843  87.860 111.747  0.00  0.00    -0.241 OA
ATOM     24  O   LIG d   1       2.357  86.484 111.057  0.00  0.00    -0.241 OA
ENDBRANCH   3  22
TORSDOF 7
ENDMDL
MODEL 5
REMARK VINA RESULT:      -5.1     35.116     38.347
REMARK  7 active torsions:
REMARK  status: ('A' for Active; 'I' for Inactive)
REMARK    1  A    between atoms: C_2  and  C_3 
REMARK    2  A    between atoms: C_3  and  O_6 
REMARK    3  A    between atoms: C_3  and  C_4 
REMARK    4  A    between atoms: C_7  and  O_6 
REMARK    5  A    between atoms: C_9  and  C_10 
REMARK    6  A    between atoms: N_15  and  C_14 
REMARK    7  A    between atoms: N_20  and  C_19 
REMARK       I    between atoms: C_22  and  N_20 
ROOT
ATOM      1  C   LIG d   1      11.364  76.234 114.400  0.00  0.00     0.161 C 
ATOM      2  C   LIG d   1      10.084  76.774 114.611  0.00  0.00     0.016 C 
ATOM      3  C   LIG d   1       9.754  78.122 114.343  0.00  0.00     0.038 C 
ATOM      4  C   LIG d   1      10.649  78.990 113.699  0.00  0.00     0.028 C 
ATOM      5  C   LIG d   1      12.113  78.631 113.929  0.00  0.00    -0.047 C 
ATOM      6  C   LIG d   1      12.321  77.136 113.594  0.00  0.00     0.091 C 
ENDROOT
BRANCH   1   7
ATOM      7  O   LIG d   1      11.251  74.940 113.776  0.00  0.00    -0.368 OA
BRANCH   7   8
ATOM      8  C   LIG d   1      11.156  73.806 114.673  0.00  0.00     0.119 C 
BRANCH   8   9
ATOM      9  C   LIG d   1      12.360  73.872 115.632  0.00  0.00     0.028 C 
ATOM     10  C   LIG d   1      11.952  73.675 117.102  0.00  0.00     0.006 C 
ENDBRANCH   8   9
BRANCH   8  11
ATOM     11  C   LIG d   1      11.311  72.483 113.917  0.00  0.00     0.028 C 
ATOM     12  C   LIG d   1      10.380  71.381 114.447  0.00  0.00     0.006 C 
ENDBRANCH   8  11
ENDBRANCH   7   8
ENDBRANCH   1   7
BRANCH   6  13
ATOM     13  N   LIG d   1      13.709  76.681 113.872  0.00  0.00    -0.311 N 
ATOM     14  C   LIG d   1      14.676  76.677 112.957  0.00  0.00     0.210 C 
ATOM     15  C   LIG d   1      16.028  76.149 113.448  0.00  0.00     0.109 C 
ATOM     16  O   LIG d   1      14.551  77.089 111.794  0.00  0.00    -0.276 OA
ATOM     17  H   LIG d   1      13.906  76.359 114.800  0.00  0.00     0.149 HD
ENDBRANCH   6  13
BRANCH   5  18
ATOM     18  N   LIG d   1      12.929  79.530 113.092  0.00  0.00     0.381 N 
ATOM     19  H   LIG d   1      13.070  79.119 112.191  0.00  0.00    -0.090 HD
ATOM     20  H   LIG d   1      13.827  79.653 113.526  0.00  0.00    -0.090 HD
ATOM     21  H   LIG d   1      12.475  80.412 112.995  0.00  0.00    -0.090 HD
ENDBRANCH   5  18
BRANCH   3  22
ATOM     22  C   LIG d   1       8.531  78.626 114.757  0.00  0.00     0.382 C 
ATOM     23  O   LIG d   1       7.466  78.112 114.336  0.00  0.00    -0.241 OA
ATOM     24  O   LIG d   1       8.477  79.616 115.511  0.00  0.00    -0.241 OA
ENDBRANCH   3  22
TORSDOF 7
ENDMDL
MODEL 6
REMARK VINA RESULT:      -5.0     27.405     29.446
REMARK  7 active torsions:
REMARK  status: ('A' for Active; 'I' for Inactive)
REMARK    1  A    between atoms: C_2  and  C_3 
REMARK    2  A    between atoms: C_3  and  O_6 
REMARK    3  A    between atoms: C_3  and  C_4 
REMARK    4  A    between atoms: C_7  and  O_6 
REMARK    5  A    between atoms: C_9  and  C_10 
REMARK    6  A    between atoms: N_15  and  C_14 
REMARK    7  A    between atoms: N_20  and  C_19 
REMARK       I    between atoms: C_22  and  N_20 
ROOT
ATOM      1  C   LIG d   1       3.693  87.919 115.334  0.00  0.00     0.161 C 
ATOM      2  C   LIG d   1       2.763  87.512 114.363  0.00  0.00     0.016 C 
ATOM      3  C   LIG d   1       2.893  87.810 112.987  0.00  0.00     0.038 C 
ATOM      4  C   LIG d   1       4.048  88.410 112.465  0.00  0.00     0.028 C 
ATOM      5  C   LIG d   1       4.783  89.288 113.472  0.00  0.00    -0.047 C 
ATOM      6  C   LIG d   1       5.015  88.478 114.768  0.00  0.00     0.091 C 
ENDROOT
BRANCH   1   7
ATOM      7  O   LIG d   1       3.957  86.833 116.244  0.00  0.00    -0.368 OA
BRANCH   7   8
ATOM      8  C   LIG d   1       3.379  86.954 117.567  0.00  0.00     0.119 C 
BRANCH   8   9
ATOM      9  C   LIG d   1       2.438  85.751 117.773  0.00  0.00     0.028 C 
ATOM     10  C   LIG d   1       2.658  84.648 116.724  0.00  0.00     0.006 C 
ENDBRANCH   8   9
BRANCH   8  11
ATOM     11  C   LIG d   1       2.482  88.192 117.671  0.00  0.00     0.028 C 
ATOM     12  C   LIG d   1       1.015  87.841 117.964  0.00  0.00     0.006 C 
ENDBRANCH   8  11
ENDBRANCH   7   8
ENDBRANCH   1   7
BRANCH   6  13
ATOM     13  N   LIG d   1       5.654  89.290 115.837  0.00  0.00    -0.311 N 
ATOM     14  C   LIG d   1       5.131  90.419 116.312  0.00  0.00     0.210 C 
ATOM     15  C   LIG d   1       5.962  91.109 117.398  0.00  0.00     0.109 C 
ATOM     16  O   LIG d   1       4.043  90.897 115.960  0.00  0.00    -0.276 OA
ATOM     17  H   LIG d   1       6.526  88.958 116.202  0.00  0.00     0.149 HD
ENDBRANCH   6  13
BRANCH   5  18
ATOM     18  N   LIG d   1       6.038  89.738 112.840  0.00  0.00     0.381 N 
ATOM     19  H   LIG d   1       6.228  89.181 112.031  0.00  0.00    -0.090 HD
ATOM     20  H   LIG d   1       6.792  89.616 113.491  0.00  0.00    -0.090 HD
ATOM     21  H   LIG d   1       5.964  90.698 112.581  0.00  0.00    -0.090 HD
ENDBRANCH   5  18
BRANCH   3  22
ATOM     22  C   LIG d   1       1.842  87.543 112.124  0.00  0.00     0.382 C 
ATOM     23  O   LIG d   1       1.691  86.388 111.658  0.00  0.00    -0.241 OA
ATOM     24  O   LIG d   1       1.068  88.453 111.770  0.00  0.00    -0.241 OA
ENDBRANCH   3  22
TORSDOF 7
ENDMDL
MODEL 7
REMARK VINA RESULT:      -4.9      3.572      6.950
REMARK  7 active torsions:
REMARK  status: ('A' for Active; 'I' for Inactive)
REMARK    1  A    between atoms: C_2  and  C_3 
REMARK    2  A    between atoms: C_3  and  O_6 
REMARK    3  A    between atoms: C_3  and  C_4 
REMARK    4  A    between atoms: C_7  and  O_6 
REMARK    5  A    between atoms: C_9  and  C_10 
REMARK    6  A    between atoms: N_15  and  C_14 
REMARK    7  A    between atoms: N_20  and  C_19 
REMARK       I    between atoms: C_22  and  N_20 
ROOT
ATOM      1  C   LIG d   1     -23.522  83.051 115.791  0.00  0.00     0.161 C 
ATOM      2  C   LIG d   1     -24.034  81.748 115.680  0.00  0.00     0.016 C 
ATOM      3  C   LIG d   1     -24.614  81.238 114.495  0.00  0.00     0.038 C 
ATOM      4  C   LIG d   1     -24.585  81.953 113.288  0.00  0.00     0.028 C 
ATOM      5  C   LIG d   1     -24.532  83.465 113.481  0.00  0.00    -0.047 C 
ATOM      6  C   LIG d   1     -23.380  83.807 114.454  0.00  0.00     0.091 C 
ENDROOT
BRANCH   1   7
ATOM      7  O   LIG d   1     -22.260  83.022 116.487  0.00  0.00    -0.368 OA
BRANCH   7   8
ATOM      8  C   LIG d   1     -22.269  83.525 117.845  0.00  0.00     0.119 C 
BRANCH   8   9
ATOM      9  C   LIG d   1     -22.308  82.308 118.790  0.00  0.00     0.028 C 
ATOM     10  C   LIG d   1     -20.912  81.708 119.031  0.00  0.00     0.006 C 
ENDBRANCH   8   9
BRANCH   8  11
ATOM     11  C   LIG d   1     -23.551  84.309 118.141  0.00  0.00     0.028 C 
ATOM     12  C   LIG d   1     -23.294  85.806 118.376  0.00  0.00     0.006 C 
ENDBRANCH   8  11
ENDBRANCH   7   8
ENDBRANCH   1   7
BRANCH   6  13
ATOM     13  N   LIG d   1     -23.311  85.259 114.763  0.00  0.00    -0.311 N 
ATOM     14  C   LIG d   1     -22.292  86.038 114.404  0.00  0.00     0.210 C 
ATOM     15  C   LIG d   1     -22.412  87.501 114.840  0.00  0.00     0.109 C 
ATOM     16  O   LIG d   1     -21.316  85.662 113.739  0.00  0.00    -0.276 OA
ATOM     17  H   LIG d   1     -24.077  85.653 115.274  0.00  0.00     0.149 HD
ENDBRANCH   6  13
BRANCH   5  18
ATOM     18  N   LIG d   1     -24.365  84.078 112.150  0.00  0.00     0.381 N 
ATOM     19  H   LIG d   1     -24.494  83.386 111.439  0.00  0.00    -0.090 HD
ATOM     20  H   LIG d   1     -23.430  84.439 112.073  0.00  0.00    -0.090 HD
ATOM     21  H   LIG d   1     -25.024  84.816 112.029  0.00  0.00    -0.090 HD
ENDBRANCH   5  18
BRANCH   3  22
ATOM     22  C   LIG d   1     -25.269  80.016 114.521  0.00  0.00     0.382 C 
ATOM     23  O   LIG d   1     -25.880  79.611 113.502  0.00  0.00    -0.241 OA
ATOM     24  O   LIG d   1     -25.293  79.334 115.563  0.00  0.00    -0.241 OA
ENDBRANCH   3  22
TORSDOF 7
ENDMDL
MODEL 8
REMARK VINA RESULT:      -4.7      2.261      4.697
REMARK  7 active torsions:
REMARK  status: ('A' for Active; 'I' for Inactive)
REMARK    1  A    between atoms: C_2  and  C_3 
REMARK    2  A    between atoms: C_3  and  O_6 
REMARK    3  A    between atoms: C_3  and  C_4 
REMARK    4  A    between atoms: C_7  and  O_6 
REMARK    5  A    between atoms: C_9  and  C_10 
REMARK    6  A    between atoms: N_15  and  C_14 
REMARK    7  A    between atoms: N_20  and  C_19 
REMARK       I    between atoms: C_22  and  N_20 
ROOT
ATOM      1  C   LIG d   1     -24.607  83.985 113.749  0.00  0.00     0.161 C 
ATOM      2  C   LIG d   1     -23.484  84.727 114.152  0.00  0.00     0.016 C 
ATOM      3  C   LIG d   1     -23.424  86.139 114.095  0.00  0.00     0.038 C 
ATOM      4  C   LIG d   1     -24.545  86.917 113.770  0.00  0.00     0.028 C 
ATOM      5  C   LIG d   1     -25.543  86.195 112.872  0.00  0.00    -0.047 C 
ATOM      6  C   LIG d   1     -25.879  84.821 113.497  0.00  0.00     0.091 C 
ENDROOT
BRANCH   1   7
ATOM      7  O   LIG d   1     -24.874  82.943 114.709  0.00  0.00    -0.368 OA
BRANCH   7   8
ATOM      8  C   LIG d   1     -24.429  81.613 114.346  0.00  0.00     0.119 C 
BRANCH   8   9
ATOM      9  C   LIG d   1     -25.672  80.808 113.921  0.00  0.00     0.028 C 
ATOM     10  C   LIG d   1     -26.884  81.078 114.828  0.00  0.00     0.006 C 
ENDBRANCH   8   9
BRANCH   8  11
ATOM     11  C   LIG d   1     -23.857  80.868 115.556  0.00  0.00     0.028 C 
ATOM     12  C   LIG d   1     -23.579  81.795 116.750  0.00  0.00     0.006 C 
ENDBRANCH   8  11
ENDBRANCH   7   8
ENDBRANCH   1   7
BRANCH   6  13
ATOM     13  N   LIG d   1     -26.785  84.014 112.638  0.00  0.00    -0.311 N 
ATOM     14  C   LIG d   1     -28.107  83.979 112.798  0.00  0.00     0.210 C 
ATOM     15  C   LIG d   1     -28.852  83.067 111.818  0.00  0.00     0.109 C 
ATOM     16  O   LIG d   1     -28.736  84.641 113.636  0.00  0.00    -0.276 OA
ATOM     17  H   LIG d   1     -26.361  83.470 111.913  0.00  0.00     0.149 HD
ENDBRANCH   6  13
BRANCH   5  18
ATOM     18  N   LIG d   1     -26.724  87.067 112.725  0.00  0.00     0.381 N 
ATOM     19  H   LIG d   1     -26.523  87.974 113.097  0.00  0.00    -0.090 HD
ATOM     20  H   LIG d   1     -27.486  86.674 113.249  0.00  0.00    -0.090 HD
ATOM     21  H   LIG d   1     -26.975  87.142 111.764  0.00  0.00    -0.090 HD
ENDBRANCH   5  18
BRANCH   3  22
ATOM     22  C   LIG d   1     -22.219  86.785 114.326  0.00  0.00     0.382 C 
ATOM     23  O   LIG d   1     -22.188  87.820 115.034  0.00  0.00    -0.241 OA
ATOM     24  O   LIG d   1     -21.168  86.371 113.800  0.00  0.00    -0.241 OA
ENDBRANCH   3  22
TORSDOF 7
ENDMDL
MODEL 9
REMARK VINA RESULT:      -4.7      2.216      4.752
REMARK  7 active torsions:
REMARK  status: ('A' for Active; 'I' for Inactive)
REMARK    1  A    between atoms: C_2  and  C_3 
REMARK    2  A    between atoms: C_3  and  O_6 
REMARK    3  A    between atoms: C_3  and  C_4 
REMARK    4  A    between atoms: C_7  and  O_6 
REMARK    5  A    between atoms: C_9  and  C_10 
REMARK    6  A    between atoms: N_15  and  C_14 
REMARK    7  A    between atoms: N_20  and  C_19 
REMARK       I    between atoms: C_22  and  N_20 
ROOT
ATOM      1  C   LIG d   1     -25.233  85.339 113.631  0.00  0.00     0.161 C 
ATOM      2  C   LIG d   1     -23.847  85.523 113.770  0.00  0.00     0.016 C 
ATOM      3  C   LIG d   1     -23.271  86.667 114.367  0.00  0.00     0.038 C 
ATOM      4  C   LIG d   1     -24.050  87.643 115.006  0.00  0.00     0.028 C 
ATOM      5  C   LIG d   1     -25.465  87.749 114.447  0.00  0.00    -0.047 C 
ATOM      6  C   LIG d   1     -26.101  86.340 114.422  0.00  0.00     0.091 C 
ENDROOT
BRANCH   1   7
ATOM      7  O   LIG d   1     -25.584  83.985 113.983  0.00  0.00    -0.368 OA
BRANCH   7   8
ATOM      8  C   LIG d   1     -24.482  83.112 114.331  0.00  0.00     0.119 C 
BRANCH   8   9
ATOM      9  C   LIG d   1     -24.608  81.841 113.468  0.00  0.00     0.028 C 
ATOM     10  C   LIG d   1     -25.760  80.932 113.926  0.00  0.00     0.006 C 
ENDBRANCH   8   9
BRANCH   8  11
ATOM     11  C   LIG d   1     -24.590  82.629 115.781  0.00  0.00     0.028 C 
ATOM     12  C   LIG d   1     -23.442  83.140 116.666  0.00  0.00     0.006 C 
ENDBRANCH   8  11
ENDBRANCH   7   8
ENDBRANCH   1   7
BRANCH   6  13
ATOM     13  N   LIG d   1     -27.456  86.341 113.811  0.00  0.00    -0.311 N 
ATOM     14  C   LIG d   1     -27.697  86.733 112.561  0.00  0.00     0.210 C 
ATOM     15  C   LIG d   1     -29.167  86.674 112.136  0.00  0.00     0.109 C 
ATOM     16  O   LIG d   1     -26.828  87.094 111.753  0.00  0.00    -0.276 OA
ATOM     17  H   LIG d   1     -28.216  86.033 114.386  0.00  0.00     0.149 HD
ENDBRANCH   6  13
BRANCH   5  18
ATOM     18  N   LIG d   1     -26.208  88.703 115.293  0.00  0.00     0.381 N 
ATOM     19  H   LIG d   1     -25.798  88.737 116.205  0.00  0.00    -0.090 HD
ATOM     20  H   LIG d   1     -27.157  88.385 115.385  0.00  0.00    -0.090 HD
ATOM     21  H   LIG d   1     -26.192  89.609 114.879  0.00  0.00    -0.090 HD
ENDBRANCH   5  18
BRANCH   3  22
ATOM     22  C   LIG d   1     -21.900  86.864 114.293  0.00  0.00     0.382 C 
ATOM     23  O   LIG d   1     -21.168  85.987 113.775  0.00  0.00    -0.241 OA
ATOM     24  O   LIG d   1     -21.382  87.888 114.777  0.00  0.00    -0.241 OA
ENDBRANCH   3  22
TORSDOF 7
ENDMDL
