MODEL 1
REMARK VINA RESULT:      -5.7      0.000      0.000
REMARK  7 active torsions:
REMARK  status: ('A' for Active; 'I' for Inactive)
REMARK    1  A    between atoms: C_2  and  C_3 
REMARK    2  A    between atoms: C_3  and  O_6 
REMARK    3  A    between atoms: C_3  and  C_4 
REMARK    4  A    between atoms: C_7  and  O_6 
REMARK    5  A    between atoms: C_9  and  C_10 
REMARK    6  A    between atoms: N_15  and  C_14 
REMARK    7  A    between atoms: N_20  and  C_19 
REMARK       I    between atoms: C_22  and  N_20 
ROOT
ATOM      1  C   LIG d   1      -8.827  74.491 117.805  0.00  0.00     0.161 C 
ATOM      2  C   LIG d   1     -10.231  74.532 117.783  0.00  0.00     0.016 C 
ATOM      3  C   LIG d   1     -10.985  75.643 118.225  0.00  0.00     0.038 C 
ATOM      4  C   LIG d   1     -10.377  76.857 118.581  0.00  0.00     0.028 C 
ATOM      5  C   LIG d   1      -8.952  76.692 119.098  0.00  0.00    -0.047 C 
ATOM      6  C   LIG d   1      -8.145  75.847 118.086  0.00  0.00     0.091 C 
ENDROOT
BRANCH   1   7
ATOM      7  O   LIG d   1      -8.335  73.928 116.573  0.00  0.00    -0.368 OA
BRANCH   7   8
ATOM      8  C   LIG d   1      -7.401  72.828 116.703  0.00  0.00     0.119 C 
BRANCH   8   9
ATOM      9  C   LIG d   1      -6.097  73.241 115.994  0.00  0.00     0.028 C 
ATOM     10  C   LIG d   1      -6.328  74.322 114.925  0.00  0.00     0.006 C 
ENDBRANCH   8   9
BRANCH   8  11
ATOM     11  C   LIG d   1      -7.895  71.587 115.953  0.00  0.00     0.028 C 
ATOM     12  C   LIG d   1      -9.309  71.159 116.375  0.00  0.00     0.006 C 
ENDBRANCH   8  11
ENDBRANCH   7   8
ENDBRANCH   1   7
BRANCH   6  13
ATOM     13  N   LIG d   1      -6.763  75.566 118.555  0.00  0.00    -0.311 N 
ATOM     14  C   LIG d   1      -5.703  76.281 118.182  0.00  0.00     0.210 C 
ATOM     15  C   LIG d   1      -4.368  75.811 118.767  0.00  0.00     0.109 C 
ATOM     16  O   LIG d   1      -5.746  77.280 117.448  0.00  0.00    -0.276 OA
ATOM     17  H   LIG d   1      -6.642  74.793 119.179  0.00  0.00     0.149 HD
ENDBRANCH   6  13
BRANCH   5  18
ATOM     18  N   LIG d   1      -8.392  78.041 119.300  0.00  0.00     0.381 N 
ATOM     19  H   LIG d   1      -8.151  78.444 118.417  0.00  0.00    -0.090 HD
ATOM     20  H   LIG d   1      -7.556  77.967 119.852  0.00  0.00    -0.090 HD
ATOM     21  H   LIG d   1      -9.056  78.620 119.767  0.00  0.00    -0.090 HD
ENDBRANCH   5  18
BRANCH   3  22
ATOM     22  C   LIG d   1     -12.361  75.534 118.352  0.00  0.00     0.382 C 
ATOM     23  O   LIG d   1     -12.959  74.546 117.862  0.00  0.00    -0.241 OA
ATOM     24  O   LIG d   1     -13.017  76.432 118.912  0.00  0.00    -0.241 OA
ENDBRANCH   3  22
TORSDOF 7
ENDMDL
MODEL 2
REMARK VINA RESULT:      -5.4      2.294      4.229
REMARK  7 active torsions:
REMARK  status: ('A' for Active; 'I' for Inactive)
REMARK    1  A    between atoms: C_2  and  C_3 
REMARK    2  A    between atoms: C_3  and  O_6 
REMARK    3  A    between atoms: C_3  and  C_4 
REMARK    4  A    between atoms: C_7  and  O_6 
REMARK    5  A    between atoms: C_9  and  C_10 
REMARK    6  A    between atoms: N_15  and  C_14 
REMARK    7  A    between atoms: N_20  and  C_19 
REMARK       I    between atoms: C_22  and  N_20 
ROOT
ATOM      1  C   LIG d   1      -8.054  75.392 117.493  0.00  0.00     0.161 C 
ATOM      2  C   LIG d   1      -8.166  76.723 117.928  0.00  0.00     0.016 C 
ATOM      3  C   LIG d   1      -9.374  77.290 118.395  0.00  0.00     0.038 C 
ATOM      4  C   LIG d   1     -10.525  76.515 118.603  0.00  0.00     0.028 C 
ATOM      5  C   LIG d   1     -10.598  75.286 117.703  0.00  0.00    -0.047 C 
ATOM      6  C   LIG d   1      -9.271  74.501 117.817  0.00  0.00     0.091 C 
ENDROOT
BRANCH   1   7
ATOM      7  O   LIG d   1      -6.848  74.805 118.023  0.00  0.00    -0.368 OA
BRANCH   7   8
ATOM      8  C   LIG d   1      -5.720  74.738 117.116  0.00  0.00     0.119 C 
BRANCH   8   9
ATOM      9  C   LIG d   1      -6.118  73.813 115.950  0.00  0.00     0.028 C 
ATOM     10  C   LIG d   1      -6.016  74.512 114.584  0.00  0.00     0.006 C 
ENDBRANCH   8   9
BRANCH   8  11
ATOM     11  C   LIG d   1      -4.514  74.064 117.776  0.00  0.00     0.028 C 
ATOM     12  C   LIG d   1      -3.206  74.292 117.002  0.00  0.00     0.006 C 
ENDBRANCH   8  11
ENDBRANCH   7   8
ENDBRANCH   1   7
BRANCH   6  13
ATOM     13  N   LIG d   1      -9.226  73.329 116.905  0.00  0.00    -0.311 N 
ATOM     14  C   LIG d   1      -9.494  72.084 117.296  0.00  0.00     0.210 C 
ATOM     15  C   LIG d   1      -9.369  71.021 116.201  0.00  0.00     0.109 C 
ATOM     16  O   LIG d   1      -9.854  71.765 118.439  0.00  0.00    -0.276 OA
ATOM     17  H   LIG d   1      -8.973  73.502 115.952  0.00  0.00     0.149 HD
ENDBRANCH   6  13
BRANCH   5  18
ATOM     18  N   LIG d   1     -11.773  74.498 118.120  0.00  0.00     0.381 N 
ATOM     19  H   LIG d   1     -11.822  73.654 117.585  0.00  0.00    -0.090 HD
ATOM     20  H   LIG d   1     -12.604  75.034 117.941  0.00  0.00    -0.090 HD
ATOM     21  H   LIG d   1     -11.712  74.282 119.091  0.00  0.00    -0.090 HD
ENDBRANCH   5  18
BRANCH   3  22
ATOM     22  C   LIG d   1      -9.450  78.656 118.622  0.00  0.00     0.382 C 
ATOM     23  O   LIG d   1     -10.558  79.190 118.868  0.00  0.00    -0.241 OA
ATOM     24  O   LIG d   1      -8.431  79.367 118.541  0.00  0.00    -0.241 OA
ENDBRANCH   3  22
TORSDOF 7
ENDMDL
MODEL 3
REMARK VINA RESULT:      -5.2      1.927      4.081
REMARK  7 active torsions:
REMARK  status: ('A' for Active; 'I' for Inactive)
REMARK    1  A    between atoms: C_2  and  C_3 
REMARK    2  A    between atoms: C_3  and  O_6 
REMARK    3  A    between atoms: C_3  and  C_4 
REMARK    4  A    between atoms: C_7  and  O_6 
REMARK    5  A    between atoms: C_9  and  C_10 
REMARK    6  A    between atoms: N_15  and  C_14 
REMARK    7  A    between atoms: N_20  and  C_19 
REMARK       I    between atoms: C_22  and  N_20 
ROOT
ATOM      1  C   LIG d   1      -8.514  75.345 117.888  0.00  0.00     0.161 C 
ATOM      2  C   LIG d   1      -9.791  75.770 118.290  0.00  0.00     0.016 C 
ATOM      3  C   LIG d   1     -10.964  75.007 118.090  0.00  0.00     0.038 C 
ATOM      4  C   LIG d   1     -10.919  73.691 117.607  0.00  0.00     0.028 C 
ATOM      5  C   LIG d   1      -9.710  73.412 116.721  0.00  0.00    -0.047 C 
ATOM      6  C   LIG d   1      -8.430  73.865 117.460  0.00  0.00     0.091 C 
ENDROOT
BRANCH   1   7
ATOM      7  O   LIG d   1      -7.557  75.620 118.930  0.00  0.00    -0.368 OA
BRANCH   7   8
ATOM      8  C   LIG d   1      -6.561  76.629 118.631  0.00  0.00     0.119 C 
BRANCH   8   9
ATOM      9  C   LIG d   1      -5.242  76.190 119.297  0.00  0.00     0.028 C 
ATOM     10  C   LIG d   1      -4.499  75.121 118.479  0.00  0.00     0.006 C 
ENDBRANCH   8   9
BRANCH   8  11
ATOM     11  C   LIG d   1      -6.915  77.971 119.278  0.00  0.00     0.028 C 
ATOM     12  C   LIG d   1      -7.330  79.036 118.251  0.00  0.00     0.006 C 
ENDBRANCH   8  11
ENDBRANCH   7   8
ENDBRANCH   1   7
BRANCH   6  13
ATOM     13  N   LIG d   1      -7.208  73.705 116.629  0.00  0.00    -0.311 N 
ATOM     14  C   LIG d   1      -6.987  74.394 115.512  0.00  0.00     0.210 C 
ATOM     15  C   LIG d   1      -5.673  74.062 114.797  0.00  0.00     0.109 C 
ATOM     16  O   LIG d   1      -7.738  75.273 115.062  0.00  0.00    -0.276 OA
ATOM     17  H   LIG d   1      -6.531  73.035 116.938  0.00  0.00     0.149 HD
ENDBRANCH   6  13
BRANCH   5  18
ATOM     18  N   LIG d   1      -9.714  71.972 116.401  0.00  0.00     0.381 N 
ATOM     19  H   LIG d   1     -10.622  71.590 116.573  0.00  0.00    -0.090 HD
ATOM     20  H   LIG d   1      -9.056  71.504 116.999  0.00  0.00    -0.090 HD
ATOM     21  H   LIG d   1      -9.463  71.834 115.447  0.00  0.00    -0.090 HD
ENDBRANCH   5  18
BRANCH   3  22
ATOM     22  C   LIG d   1     -12.204  75.576 118.337  0.00  0.00     0.382 C 
ATOM     23  O   LIG d   1     -12.279  76.713 118.862  0.00  0.00    -0.241 OA
ATOM     24  O   LIG d   1     -13.249  74.947 118.083  0.00  0.00    -0.241 OA
ENDBRANCH   3  22
TORSDOF 7
ENDMDL
MODEL 4
REMARK VINA RESULT:      -5.1     15.284     17.653
REMARK  7 active torsions:
REMARK  status: ('A' for Active; 'I' for Inactive)
REMARK    1  A    between atoms: C_2  and  C_3 
REMARK    2  A    between atoms: C_3  and  O_6 
REMARK    3  A    between atoms: C_3  and  C_4 
REMARK    4  A    between atoms: C_7  and  O_6 
REMARK    5  A    between atoms: C_9  and  C_10 
REMARK    6  A    between atoms: N_15  and  C_14 
REMARK    7  A    between atoms: N_20  and  C_19 
REMARK       I    between atoms: C_22  and  N_20 
ROOT
ATOM      1  C   LIG d   1      -4.310  91.249 117.393  0.00  0.00     0.161 C 
ATOM      2  C   LIG d   1      -3.369  92.129 117.952  0.00  0.00     0.016 C 
ATOM      3  C   LIG d   1      -3.723  93.300 118.661  0.00  0.00     0.038 C 
ATOM      4  C   LIG d   1      -5.054  93.593 118.991  0.00  0.00     0.028 C 
ATOM      5  C   LIG d   1      -6.065  92.999 118.016  0.00  0.00    -0.047 C 
ATOM      6  C   LIG d   1      -5.767  91.493 117.839  0.00  0.00     0.091 C 
ENDROOT
BRANCH   1   7
ATOM      7  O   LIG d   1      -3.925  89.887 117.662  0.00  0.00    -0.368 OA
BRANCH   7   8
ATOM      8  C   LIG d   1      -2.562  89.686 118.111  0.00  0.00     0.119 C 
BRANCH   8   9
ATOM      9  C   LIG d   1      -1.794  88.998 116.966  0.00  0.00     0.028 C 
ATOM     10  C   LIG d   1      -0.550  89.793 116.534  0.00  0.00     0.006 C 
ENDBRANCH   8   9
BRANCH   8  11
ATOM     11  C   LIG d   1      -2.501  88.707 119.287  0.00  0.00     0.028 C 
ATOM     12  C   LIG d   1      -1.462  87.593 119.081  0.00  0.00     0.006 C 
ENDBRANCH   8  11
ENDBRANCH   7   8
ENDBRANCH   1   7
BRANCH   6  13
ATOM     13  N   LIG d   1      -6.658  90.852 116.836  0.00  0.00    -0.311 N 
ATOM     14  C   LIG d   1      -6.720  91.235 115.562  0.00  0.00     0.210 C 
ATOM     15  C   LIG d   1      -7.719  90.454 114.701  0.00  0.00     0.109 C 
ATOM     16  O   LIG d   1      -6.021  92.124 115.055  0.00  0.00    -0.276 OA
ATOM     17  H   LIG d   1      -7.237  90.101 117.155  0.00  0.00     0.149 HD
ENDBRANCH   6  13
BRANCH   5  18
ATOM     18  N   LIG d   1      -7.413  93.263 118.555  0.00  0.00     0.381 N 
ATOM     19  H   LIG d   1      -8.084  93.241 117.813  0.00  0.00    -0.090 HD
ATOM     20  H   LIG d   1      -7.425  94.180 118.964  0.00  0.00    -0.090 HD
ATOM     21  H   LIG d   1      -7.644  92.581 119.243  0.00  0.00    -0.090 HD
ENDBRANCH   5  18
BRANCH   3  22
ATOM     22  C   LIG d   1      -2.741  94.214 119.012  0.00  0.00     0.382 C 
ATOM     23  O   LIG d   1      -1.542  93.851 119.080  0.00  0.00    -0.241 OA
ATOM     24  O   LIG d   1      -3.045  95.386 119.305  0.00  0.00    -0.241 OA
ENDBRANCH   3  22
TORSDOF 7
ENDMDL
MODEL 5
REMARK VINA RESULT:      -5.1      2.169      2.979
REMARK  7 active torsions:
REMARK  status: ('A' for Active; 'I' for Inactive)
REMARK    1  A    between atoms: C_2  and  C_3 
REMARK    2  A    between atoms: C_3  and  O_6 
REMARK    3  A    between atoms: C_3  and  C_4 
REMARK    4  A    between atoms: C_7  and  O_6 
REMARK    5  A    between atoms: C_9  and  C_10 
REMARK    6  A    between atoms: N_15  and  C_14 
REMARK    7  A    between atoms: N_20  and  C_19 
REMARK       I    between atoms: C_22  and  N_20 
ROOT
ATOM      1  C   LIG d   1      -7.786  75.714 117.685  0.00  0.00     0.161 C 
ATOM      2  C   LIG d   1      -8.864  76.507 118.113  0.00  0.00     0.016 C 
ATOM      3  C   LIG d   1      -8.767  77.901 118.328  0.00  0.00     0.038 C 
ATOM      4  C   LIG d   1      -7.617  78.626 117.982  0.00  0.00     0.028 C 
ATOM      5  C   LIG d   1      -6.340  77.794 118.023  0.00  0.00    -0.047 C 
ATOM      6  C   LIG d   1      -6.555  76.505 117.196  0.00  0.00     0.091 C 
ENDROOT
BRANCH   1   7
ATOM      7  O   LIG d   1      -8.228  74.796 116.666  0.00  0.00    -0.368 OA
BRANCH   7   8
ATOM      8  C   LIG d   1      -8.484  73.437 117.099  0.00  0.00     0.119 C 
BRANCH   8   9
ATOM      9  C   LIG d   1      -7.545  72.512 116.302  0.00  0.00     0.028 C 
ATOM     10  C   LIG d   1      -8.040  71.057 116.273  0.00  0.00     0.006 C 
ENDBRANCH   8   9
BRANCH   8  11
ATOM     11  C   LIG d   1      -9.902  72.992 116.728  0.00  0.00     0.028 C 
ATOM     12  C   LIG d   1     -10.938  73.343 117.807  0.00  0.00     0.006 C 
ENDBRANCH   8  11
ENDBRANCH   7   8
ENDBRANCH   1   7
BRANCH   6  13
ATOM     13  N   LIG d   1      -5.382  75.594 117.254  0.00  0.00    -0.311 N 
ATOM     14  C   LIG d   1      -4.802  75.077 116.172  0.00  0.00     0.210 C 
ATOM     15  C   LIG d   1      -3.619  74.145 116.455  0.00  0.00     0.109 C 
ATOM     16  O   LIG d   1      -5.133  75.328 115.003  0.00  0.00    -0.276 OA
ATOM     17  H   LIG d   1      -5.028  75.362 118.161  0.00  0.00     0.149 HD
ENDBRANCH   6  13
BRANCH   5  18
ATOM     18  N   LIG d   1      -5.243  78.635 117.509  0.00  0.00     0.381 N 
ATOM     19  H   LIG d   1      -5.187  79.481 118.040  0.00  0.00    -0.090 HD
ATOM     20  H   LIG d   1      -5.438  78.875 116.553  0.00  0.00    -0.090 HD
ATOM     21  H   LIG d   1      -4.380  78.141 117.566  0.00  0.00    -0.090 HD
ENDBRANCH   5  18
BRANCH   3  22
ATOM     22  C   LIG d   1      -9.816  78.577 118.932  0.00  0.00     0.382 C 
ATOM     23  O   LIG d   1     -10.930  78.016 119.066  0.00  0.00    -0.241 OA
ATOM     24  O   LIG d   1      -9.675  79.757 119.305  0.00  0.00    -0.241 OA
ENDBRANCH   3  22
TORSDOF 7
ENDMDL
MODEL 6
REMARK VINA RESULT:      -5.1     13.495     15.746
REMARK  7 active torsions:
REMARK  status: ('A' for Active; 'I' for Inactive)
REMARK    1  A    between atoms: C_2  and  C_3 
REMARK    2  A    between atoms: C_3  and  O_6 
REMARK    3  A    between atoms: C_3  and  C_4 
REMARK    4  A    between atoms: C_7  and  O_6 
REMARK    5  A    between atoms: C_9  and  C_10 
REMARK    6  A    between atoms: N_15  and  C_14 
REMARK    7  A    between atoms: N_20  and  C_19 
REMARK       I    between atoms: C_22  and  N_20 
ROOT
ATOM      1  C   LIG d   1       2.541  84.455 113.071  0.00  0.00     0.161 C 
ATOM      2  C   LIG d   1       2.736  85.682 112.415  0.00  0.00     0.016 C 
ATOM      3  C   LIG d   1       3.163  86.857 113.073  0.00  0.00     0.038 C 
ATOM      4  C   LIG d   1       3.573  86.849 114.414  0.00  0.00     0.028 C 
ATOM      5  C   LIG d   1       2.914  85.750 115.242  0.00  0.00    -0.047 C 
ATOM      6  C   LIG d   1       3.090  84.399 114.512  0.00  0.00     0.091 C 
ENDROOT
BRANCH   1   7
ATOM      7  O   LIG d   1       3.096  83.385 112.282  0.00  0.00    -0.368 OA
BRANCH   7   8
ATOM      8  C   LIG d   1       2.202  82.772 111.320  0.00  0.00     0.119 C 
BRANCH   8   9
ATOM      9  C   LIG d   1       0.794  82.750 111.946  0.00  0.00     0.028 C 
ATOM     10  C   LIG d   1      -0.240  83.502 111.091  0.00  0.00     0.006 C 
ENDBRANCH   8   9
BRANCH   8  11
ATOM     11  C   LIG d   1       2.562  81.302 111.082  0.00  0.00     0.028 C 
ATOM     12  C   LIG d   1       1.389  80.349 111.358  0.00  0.00     0.006 C 
ENDBRANCH   8  11
ENDBRANCH   7   8
ENDBRANCH   1   7
BRANCH   6  13
ATOM     13  N   LIG d   1       2.401  83.283 115.213  0.00  0.00    -0.311 N 
ATOM     14  C   LIG d   1       3.025  82.432 116.025  0.00  0.00     0.210 C 
ATOM     15  C   LIG d   1       2.132  81.343 116.629  0.00  0.00     0.109 C 
ATOM     16  O   LIG d   1       4.226  82.495 116.329  0.00  0.00    -0.276 OA
ATOM     17  H   LIG d   1       1.419  83.178 115.048  0.00  0.00     0.149 HD
ENDBRANCH   6  13
BRANCH   5  18
ATOM     18  N   LIG d   1       3.533  85.769 116.581  0.00  0.00     0.381 N 
ATOM     19  H   LIG d   1       4.474  85.433 116.524  0.00  0.00    -0.090 HD
ATOM     20  H   LIG d   1       3.016  85.157 117.187  0.00  0.00    -0.090 HD
ATOM     21  H   LIG d   1       3.526  86.696 116.947  0.00  0.00    -0.090 HD
ENDBRANCH   5  18
BRANCH   3  22
ATOM     22  C   LIG d   1       3.146  88.068 112.397  0.00  0.00     0.382 C 
ATOM     23  O   LIG d   1       3.905  88.999 112.760  0.00  0.00    -0.241 OA
ATOM     24  O   LIG d   1       2.349  88.256 111.458  0.00  0.00    -0.241 OA
ENDBRANCH   3  22
TORSDOF 7
ENDMDL
MODEL 7
REMARK VINA RESULT:      -4.8     14.877     17.478
REMARK  7 active torsions:
REMARK  status: ('A' for Active; 'I' for Inactive)
REMARK    1  A    between atoms: C_2  and  C_3 
REMARK    2  A    between atoms: C_3  and  O_6 
REMARK    3  A    between atoms: C_3  and  C_4 
REMARK    4  A    between atoms: C_7  and  O_6 
REMARK    5  A    between atoms: C_9  and  C_10 
REMARK    6  A    between atoms: N_15  and  C_14 
REMARK    7  A    between atoms: N_20  and  C_19 
REMARK       I    between atoms: C_22  and  N_20 
ROOT
ATOM      1  C   LIG d   1       1.990  87.324 115.415  0.00  0.00     0.161 C 
ATOM      2  C   LIG d   1       2.024  88.714 115.620  0.00  0.00     0.016 C 
ATOM      3  C   LIG d   1       2.920  89.347 116.511  0.00  0.00     0.038 C 
ATOM      4  C   LIG d   1       3.952  88.644 117.150  0.00  0.00     0.028 C 
ATOM      5  C   LIG d   1       3.637  87.167 117.362  0.00  0.00    -0.047 C 
ATOM      6  C   LIG d   1       3.182  86.552 116.019  0.00  0.00     0.091 C 
ENDROOT
BRANCH   1   7
ATOM      7  O   LIG d   1       1.871  87.041 114.006  0.00  0.00    -0.368 OA
BRANCH   7   8
ATOM      8  C   LIG d   1       3.106  86.740 113.311  0.00  0.00     0.119 C 
BRANCH   8   9
ATOM      9  C   LIG d   1       3.437  87.947 112.412  0.00  0.00     0.028 C 
ATOM     10  C   LIG d   1       4.600  88.789 112.964  0.00  0.00     0.006 C 
ENDBRANCH   8   9
BRANCH   8  11
ATOM     11  C   LIG d   1       2.932  85.557 112.353  0.00  0.00     0.028 C 
ATOM     12  C   LIG d   1       1.698  84.703 112.680  0.00  0.00     0.006 C 
ENDBRANCH   8  11
ENDBRANCH   7   8
ENDBRANCH   1   7
BRANCH   6  13
ATOM     13  N   LIG d   1       2.774  85.130 116.155  0.00  0.00    -0.311 N 
ATOM     14  C   LIG d   1       3.576  84.106 115.868  0.00  0.00     0.210 C 
ATOM     15  C   LIG d   1       2.950  82.721 116.059  0.00  0.00     0.109 C 
ATOM     16  O   LIG d   1       4.756  84.213 115.503  0.00  0.00    -0.276 OA
ATOM     17  H   LIG d   1       1.842  84.952 116.475  0.00  0.00     0.149 HD
ENDBRANCH   6  13
BRANCH   5  18
ATOM     18  N   LIG d   1       4.848  86.527 117.910  0.00  0.00     0.381 N 
ATOM     19  H   LIG d   1       5.662  87.018 117.597  0.00  0.00    -0.090 HD
ATOM     20  H   LIG d   1       4.899  85.583 117.569  0.00  0.00    -0.090 HD
ATOM     21  H   LIG d   1       4.813  86.527 118.905  0.00  0.00    -0.090 HD
ENDBRANCH   5  18
BRANCH   3  22
ATOM     22  C   LIG d   1       2.763  90.694 116.802  0.00  0.00     0.382 C 
ATOM     23  O   LIG d   1       3.730  91.481 116.666  0.00  0.00    -0.241 OA
ATOM     24  O   LIG d   1       1.679  91.123 117.240  0.00  0.00    -0.241 OA
ENDBRANCH   3  22
TORSDOF 7
ENDMDL
MODEL 8
REMARK VINA RESULT:      -4.7      3.058      4.261
REMARK  7 active torsions:
REMARK  status: ('A' for Active; 'I' for Inactive)
REMARK    1  A    between atoms: C_2  and  C_3 
REMARK    2  A    between atoms: C_3  and  O_6 
REMARK    3  A    between atoms: C_3  and  C_4 
REMARK    4  A    between atoms: C_7  and  O_6 
REMARK    5  A    between atoms: C_9  and  C_10 
REMARK    6  A    between atoms: N_15  and  C_14 
REMARK    7  A    between atoms: N_20  and  C_19 
REMARK       I    between atoms: C_22  and  N_20 
ROOT
ATOM      1  C   LIG d   1      -5.551  75.322 118.092  0.00  0.00     0.161 C 
ATOM      2  C   LIG d   1      -6.709  76.100 118.257  0.00  0.00     0.016 C 
ATOM      3  C   LIG d   1      -6.796  77.457 117.871  0.00  0.00     0.038 C 
ATOM      4  C   LIG d   1      -5.772  78.090 117.150  0.00  0.00     0.028 C 
ATOM      5  C   LIG d   1      -4.392  77.494 117.407  0.00  0.00    -0.047 C 
ATOM      6  C   LIG d   1      -4.462  75.963 117.207  0.00  0.00     0.091 C 
ENDROOT
BRANCH   1   7
ATOM      7  O   LIG d   1      -5.905  74.019 117.586  0.00  0.00    -0.368 OA
BRANCH   7   8
ATOM      8  C   LIG d   1      -7.001  73.981 116.638  0.00  0.00     0.119 C 
BRANCH   8   9
ATOM      9  C   LIG d   1      -7.863  72.750 116.977  0.00  0.00     0.028 C 
ATOM     10  C   LIG d   1      -7.602  71.569 116.027  0.00  0.00     0.006 C 
ENDBRANCH   8   9
BRANCH   8  11
ATOM     11  C   LIG d   1      -6.495  73.741 115.212  0.00  0.00     0.028 C 
ATOM     12  C   LIG d   1      -6.458  75.025 114.369  0.00  0.00     0.006 C 
ENDBRANCH   8  11
ENDBRANCH   7   8
ENDBRANCH   1   7
BRANCH   6  13
ATOM     13  N   LIG d   1      -3.174  75.291 117.521  0.00  0.00    -0.311 N 
ATOM     14  C   LIG d   1      -2.538  74.489 116.668  0.00  0.00     0.210 C 
ATOM     15  C   LIG d   1      -1.235  73.883 117.199  0.00  0.00     0.109 C 
ATOM     16  O   LIG d   1      -2.913  74.248 115.510  0.00  0.00    -0.276 OA
ATOM     17  H   LIG d   1      -2.782  75.456 118.427  0.00  0.00     0.149 HD
ENDBRANCH   6  13
BRANCH   5  18
ATOM     18  N   LIG d   1      -3.443  78.155 116.492  0.00  0.00     0.381 N 
ATOM     19  H   LIG d   1      -3.861  78.978 116.107  0.00  0.00    -0.090 HD
ATOM     20  H   LIG d   1      -3.230  77.527 115.736  0.00  0.00    -0.090 HD
ATOM     21  H   LIG d   1      -2.608  78.394 116.980  0.00  0.00    -0.090 HD
ENDBRANCH   5  18
BRANCH   3  22
ATOM     22  C   LIG d   1      -7.901  78.208 118.241  0.00  0.00     0.382 C 
ATOM     23  O   LIG d   1      -7.827  79.460 118.273  0.00  0.00    -0.241 OA
ATOM     24  O   LIG d   1      -8.958  77.647 118.587  0.00  0.00    -0.241 OA
ENDBRANCH   3  22
TORSDOF 7
ENDMDL
MODEL 9
REMARK VINA RESULT:      -4.7     15.943     18.560
REMARK  7 active torsions:
REMARK  status: ('A' for Active; 'I' for Inactive)
REMARK    1  A    between atoms: C_2  and  C_3 
REMARK    2  A    between atoms: C_3  and  O_6 
REMARK    3  A    between atoms: C_3  and  C_4 
REMARK    4  A    between atoms: C_7  and  O_6 
REMARK    5  A    between atoms: C_9  and  C_10 
REMARK    6  A    between atoms: N_15  and  C_14 
REMARK    7  A    between atoms: N_20  and  C_19 
REMARK       I    between atoms: C_22  and  N_20 
ROOT
ATOM      1  C   LIG d   1       3.468  89.154 115.372  0.00  0.00     0.161 C 
ATOM      2  C   LIG d   1       4.843  88.867 115.335  0.00  0.00     0.016 C 
ATOM      3  C   LIG d   1       5.554  88.322 116.429  0.00  0.00     0.038 C 
ATOM      4  C   LIG d   1       4.903  87.884 117.592  0.00  0.00     0.028 C 
ATOM      5  C   LIG d   1       3.596  88.618 117.867  0.00  0.00    -0.047 C 
ATOM      6  C   LIG d   1       2.721  88.580 116.594  0.00  0.00     0.091 C 
ENDROOT
BRANCH   1   7
ATOM      7  O   LIG d   1       2.844  88.714 114.150  0.00  0.00    -0.368 OA
BRANCH   7   8
ATOM      8  C   LIG d   1       3.340  87.472 113.592  0.00  0.00     0.119 C 
BRANCH   8   9
ATOM      9  C   LIG d   1       3.503  87.679 112.074  0.00  0.00     0.028 C 
ATOM     10  C   LIG d   1       2.342  87.068 111.271  0.00  0.00     0.006 C 
ENDBRANCH   8   9
BRANCH   8  11
ATOM     11  C   LIG d   1       2.314  86.345 113.740  0.00  0.00     0.028 C 
ATOM     12  C   LIG d   1       2.716  85.309 114.803  0.00  0.00     0.006 C 
ENDBRANCH   8  11
ENDBRANCH   7   8
ENDBRANCH   1   7
BRANCH   6  13
ATOM     13  N   LIG d   1       1.458  89.348 116.750  0.00  0.00    -0.311 N 
ATOM     14  C   LIG d   1       0.267  88.886 116.373  0.00  0.00     0.210 C 
ATOM     15  C   LIG d   1      -0.903  89.847 116.605  0.00  0.00     0.109 C 
ATOM     16  O   LIG d   1       0.064  87.758 115.897  0.00  0.00    -0.276 OA
ATOM     17  H   LIG d   1       1.527  90.261 117.156  0.00  0.00     0.149 HD
ENDBRANCH   6  13
BRANCH   5  18
ATOM     18  N   LIG d   1       2.956  87.970 119.028  0.00  0.00     0.381 N 
ATOM     19  H   LIG d   1       3.228  87.008 119.071  0.00  0.00    -0.090 HD
ATOM     20  H   LIG d   1       1.959  88.011 118.915  0.00  0.00    -0.090 HD
ATOM     21  H   LIG d   1       3.222  88.435 119.868  0.00  0.00    -0.090 HD
ENDBRANCH   5  18
BRANCH   3  22
ATOM     22  C   LIG d   1       6.938  88.248 116.381  0.00  0.00     0.382 C 
ATOM     23  O   LIG d   1       7.633  89.139 116.926  0.00  0.00    -0.241 OA
ATOM     24  O   LIG d   1       7.500  87.325 115.761  0.00  0.00    -0.241 OA
ENDBRANCH   3  22
TORSDOF 7
ENDMDL
