MODEL 1
REMARK VINA RESULT:      -5.3      0.000      0.000
REMARK  7 active torsions:
REMARK  status: ('A' for Active; 'I' for Inactive)
REMARK    1  A    between atoms: C_2  and  C_3 
REMARK    2  A    between atoms: C_3  and  O_6 
REMARK    3  A    between atoms: C_3  and  C_4 
REMARK    4  A    between atoms: C_7  and  O_6 
REMARK    5  A    between atoms: C_9  and  C_10 
REMARK    6  A    between atoms: N_15  and  C_14 
REMARK    7  A    between atoms: N_20  and  C_19 
REMARK       I    between atoms: C_22  and  N_20 
ROOT
ATOM      1  C   LIG d   1      -2.556  77.922 116.243  0.00  0.00     0.161 C 
ATOM      2  C   LIG d   1      -2.933  78.814 115.224  0.00  0.00     0.016 C 
ATOM      3  C   LIG d   1      -2.389  78.779 113.920  0.00  0.00     0.038 C 
ATOM      4  C   LIG d   1      -1.537  77.748 113.498  0.00  0.00     0.028 C 
ATOM      5  C   LIG d   1      -0.739  77.119 114.636  0.00  0.00    -0.047 C 
ATOM      6  C   LIG d   1      -1.710  76.721 115.770  0.00  0.00     0.091 C 
ENDROOT
BRANCH   1   7
ATOM      7  O   LIG d   1      -3.726  77.464 116.949  0.00  0.00    -0.368 OA
BRANCH   7   8
ATOM      8  C   LIG d   1      -4.970  77.491 116.206  0.00  0.00     0.119 C 
BRANCH   8   9
ATOM      9  C   LIG d   1      -6.051  78.076 117.135  0.00  0.00     0.028 C 
ATOM     10  C   LIG d   1      -5.766  79.538 117.520  0.00  0.00     0.006 C 
ENDBRANCH   8   9
BRANCH   8  11
ATOM     11  C   LIG d   1      -5.448  76.076 115.868  0.00  0.00     0.028 C 
ATOM     12  C   LIG d   1      -5.093  75.654 114.433  0.00  0.00     0.006 C 
ENDBRANCH   8  11
ENDBRANCH   7   8
ENDBRANCH   1   7
BRANCH   6  13
ATOM     13  N   LIG d   1      -1.002  76.175 116.957  0.00  0.00    -0.311 N 
ATOM     14  C   LIG d   1      -1.213  74.951 117.438  0.00  0.00     0.210 C 
ATOM     15  C   LIG d   1      -0.392  74.595 118.682  0.00  0.00     0.109 C 
ATOM     16  O   LIG d   1      -1.977  74.115 116.933  0.00  0.00    -0.276 OA
ATOM     17  H   LIG d   1      -0.341  76.776 117.410  0.00  0.00     0.149 HD
ENDBRANCH   6  13
BRANCH   5  18
ATOM     18  N   LIG d   1       0.002  75.971 114.079  0.00  0.00     0.381 N 
ATOM     19  H   LIG d   1       0.396  76.220 113.194  0.00  0.00    -0.090 HD
ATOM     20  H   LIG d   1      -0.638  75.210 113.937  0.00  0.00    -0.090 HD
ATOM     21  H   LIG d   1       0.724  75.695 114.707  0.00  0.00    -0.090 HD
ENDBRANCH   5  18
BRANCH   3  22
ATOM     22  C   LIG d   1      -2.667  79.808 113.032  0.00  0.00     0.382 C 
ATOM     23  O   LIG d   1      -2.246  79.749 111.852  0.00  0.00    -0.241 OA
ATOM     24  O   LIG d   1      -3.296  80.815 113.409  0.00  0.00    -0.241 OA
ENDBRANCH   3  22
TORSDOF 7
ENDMDL
MODEL 2
REMARK VINA RESULT:      -5.3      1.854      5.104
REMARK  7 active torsions:
REMARK  status: ('A' for Active; 'I' for Inactive)
REMARK    1  A    between atoms: C_2  and  C_3 
REMARK    2  A    between atoms: C_3  and  O_6 
REMARK    3  A    between atoms: C_3  and  C_4 
REMARK    4  A    between atoms: C_7  and  O_6 
REMARK    5  A    between atoms: C_9  and  C_10 
REMARK    6  A    between atoms: N_15  and  C_14 
REMARK    7  A    between atoms: N_20  and  C_19 
REMARK       I    between atoms: C_22  and  N_20 
ROOT
ATOM      1  C   LIG d   1      -2.446  75.309 114.823  0.00  0.00     0.161 C 
ATOM      2  C   LIG d   1      -2.251  74.727 116.087  0.00  0.00     0.016 C 
ATOM      3  C   LIG d   1      -1.408  75.281 117.078  0.00  0.00     0.038 C 
ATOM      4  C   LIG d   1      -0.817  76.544 116.926  0.00  0.00     0.028 C 
ATOM      5  C   LIG d   1      -0.581  76.932 115.470  0.00  0.00    -0.047 C 
ATOM      6  C   LIG d   1      -1.897  76.744 114.681  0.00  0.00     0.091 C 
ENDROOT
BRANCH   1   7
ATOM      7  O   LIG d   1      -3.845  75.272 114.479  0.00  0.00    -0.368 OA
BRANCH   7   8
ATOM      8  C   LIG d   1      -4.776  75.310 115.588  0.00  0.00     0.119 C 
BRANCH   8   9
ATOM      9  C   LIG d   1      -5.999  74.458 115.196  0.00  0.00     0.028 C 
ATOM     10  C   LIG d   1      -7.151  74.584 116.207  0.00  0.00     0.006 C 
ENDBRANCH   8   9
BRANCH   8  11
ATOM     11  C   LIG d   1      -5.321  76.724 115.810  0.00  0.00     0.028 C 
ATOM     12  C   LIG d   1      -4.759  77.388 117.076  0.00  0.00     0.006 C 
ENDBRANCH   8  11
ENDBRANCH   7   8
ENDBRANCH   1   7
BRANCH   6  13
ATOM     13  N   LIG d   1      -1.733  77.021 113.230  0.00  0.00    -0.311 N 
ATOM     14  C   LIG d   1      -2.530  77.838 112.545  0.00  0.00     0.210 C 
ATOM     15  C   LIG d   1      -2.197  77.967 111.055  0.00  0.00     0.109 C 
ATOM     16  O   LIG d   1      -3.461  78.494 113.036  0.00  0.00    -0.276 OA
ATOM     17  H   LIG d   1      -0.982  76.555 112.759  0.00  0.00     0.149 HD
ENDBRANCH   6  13
BRANCH   5  18
ATOM     18  N   LIG d   1      -0.090  78.323 115.453  0.00  0.00     0.381 N 
ATOM     19  H   LIG d   1       0.760  78.376 114.928  0.00  0.00    -0.090 HD
ATOM     20  H   LIG d   1       0.104  78.611 116.396  0.00  0.00    -0.090 HD
ATOM     21  H   LIG d   1      -0.776  78.922 115.049  0.00  0.00    -0.090 HD
ENDBRANCH   5  18
BRANCH   3  22
ATOM     22  C   LIG d   1      -1.118  74.551 118.220  0.00  0.00     0.382 C 
ATOM     23  O   LIG d   1      -0.341  75.023 119.085  0.00  0.00    -0.241 OA
ATOM     24  O   LIG d   1      -1.588  73.408 118.376  0.00  0.00    -0.241 OA
ENDBRANCH   3  22
TORSDOF 7
ENDMDL
MODEL 3
REMARK VINA RESULT:      -5.0      9.486     11.354
REMARK  7 active torsions:
REMARK  status: ('A' for Active; 'I' for Inactive)
REMARK    1  A    between atoms: C_2  and  C_3 
REMARK    2  A    between atoms: C_3  and  O_6 
REMARK    3  A    between atoms: C_3  and  C_4 
REMARK    4  A    between atoms: C_7  and  O_6 
REMARK    5  A    between atoms: C_9  and  C_10 
REMARK    6  A    between atoms: N_15  and  C_14 
REMARK    7  A    between atoms: N_20  and  C_19 
REMARK       I    between atoms: C_22  and  N_20 
ROOT
ATOM      1  C   LIG d   1       2.486  86.522 114.508  0.00  0.00     0.161 C 
ATOM      2  C   LIG d   1       2.971  87.808 114.218  0.00  0.00     0.016 C 
ATOM      3  C   LIG d   1       4.086  88.384 114.869  0.00  0.00     0.038 C 
ATOM      4  C   LIG d   1       4.889  87.648 115.753  0.00  0.00     0.028 C 
ATOM      5  C   LIG d   1       4.143  86.518 116.453  0.00  0.00    -0.047 C 
ATOM      6  C   LIG d   1       3.416  85.663 115.390  0.00  0.00     0.091 C 
ENDROOT
BRANCH   1   7
ATOM      7  O   LIG d   1       2.177  85.829 113.282  0.00  0.00    -0.368 OA
BRANCH   7   8
ATOM      8  C   LIG d   1       2.605  86.476 112.059  0.00  0.00     0.119 C 
BRANCH   8   9
ATOM      9  C   LIG d   1       1.399  86.496 111.100  0.00  0.00     0.028 C 
ATOM     10  C   LIG d   1       0.057  86.585 111.846  0.00  0.00     0.006 C 
ENDBRANCH   8   9
BRANCH   8  11
ATOM     11  C   LIG d   1       3.680  85.655 111.341  0.00  0.00     0.028 C 
ATOM     12  C   LIG d   1       3.612  84.158 111.679  0.00  0.00     0.006 C 
ENDBRANCH   8  11
ENDBRANCH   7   8
ENDBRANCH   1   7
BRANCH   6  13
ATOM     13  N   LIG d   1       2.592  84.584 115.995  0.00  0.00    -0.311 N 
ATOM     14  C   LIG d   1       2.795  83.289 115.763  0.00  0.00     0.210 C 
ATOM     15  C   LIG d   1       1.820  82.344 116.472  0.00  0.00     0.109 C 
ATOM     16  O   LIG d   1       3.710  82.831 115.062  0.00  0.00    -0.276 OA
ATOM     17  H   LIG d   1       1.847  84.866 116.602  0.00  0.00     0.149 HD
ENDBRANCH   6  13
BRANCH   5  18
ATOM     18  N   LIG d   1       5.129  85.750 117.237  0.00  0.00     0.381 N 
ATOM     19  H   LIG d   1       4.871  85.756 118.204  0.00  0.00    -0.090 HD
ATOM     20  H   LIG d   1       6.028  86.190 117.148  0.00  0.00    -0.090 HD
ATOM     21  H   LIG d   1       5.175  84.813 116.903  0.00  0.00    -0.090 HD
ENDBRANCH   5  18
BRANCH   3  22
ATOM     22  C   LIG d   1       4.383  89.723 114.667  0.00  0.00     0.382 C 
ATOM     23  O   LIG d   1       4.445  90.183 113.502  0.00  0.00    -0.241 OA
ATOM     24  O   LIG d   1       4.635  90.467 115.634  0.00  0.00    -0.241 OA
ENDBRANCH   3  22
TORSDOF 7
ENDMDL
MODEL 4
REMARK VINA RESULT:      -4.9      2.502      4.894
REMARK  7 active torsions:
REMARK  status: ('A' for Active; 'I' for Inactive)
REMARK    1  A    between atoms: C_2  and  C_3 
REMARK    2  A    between atoms: C_3  and  O_6 
REMARK    3  A    between atoms: C_3  and  C_4 
REMARK    4  A    between atoms: C_7  and  O_6 
REMARK    5  A    between atoms: C_9  and  C_10 
REMARK    6  A    between atoms: N_15  and  C_14 
REMARK    7  A    between atoms: N_20  and  C_19 
REMARK       I    between atoms: C_22  and  N_20 
ROOT
ATOM      1  C   LIG d   1      -2.885  77.907 115.487  0.00  0.00     0.161 C 
ATOM      2  C   LIG d   1      -1.573  78.141 115.932  0.00  0.00     0.016 C 
ATOM      3  C   LIG d   1      -0.792  77.168 116.597  0.00  0.00     0.038 C 
ATOM      4  C   LIG d   1      -1.219  75.838 116.728  0.00  0.00     0.028 C 
ATOM      5  C   LIG d   1      -2.736  75.687 116.744  0.00  0.00    -0.047 C 
ATOM      6  C   LIG d   1      -3.326  76.429 115.523  0.00  0.00     0.091 C 
ENDROOT
BRANCH   1   7
ATOM      7  O   LIG d   1      -3.055  78.449 114.163  0.00  0.00    -0.368 OA
BRANCH   7   8
ATOM      8  C   LIG d   1      -1.861  78.523 113.345  0.00  0.00     0.119 C 
BRANCH   8   9
ATOM      9  C   LIG d   1      -1.934  79.831 112.535  0.00  0.00     0.028 C 
ATOM     10  C   LIG d   1      -0.549  80.463 112.314  0.00  0.00     0.006 C 
ENDBRANCH   8   9
BRANCH   8  11
ATOM     11  C   LIG d   1      -1.830  77.401 112.302  0.00  0.00     0.028 C 
ATOM     12  C   LIG d   1      -2.692  77.711 111.068  0.00  0.00     0.006 C 
ENDBRANCH   8  11
ENDBRANCH   7   8
ENDBRANCH   1   7
BRANCH   6  13
ATOM     13  N   LIG d   1      -4.812  76.403 115.507  0.00  0.00    -0.311 N 
ATOM     14  C   LIG d   1      -5.523  75.539 114.784  0.00  0.00     0.210 C 
ATOM     15  C   LIG d   1      -7.042  75.698 114.897  0.00  0.00     0.109 C 
ATOM     16  O   LIG d   1      -5.039  74.637 114.084  0.00  0.00    -0.276 OA
ATOM     17  H   LIG d   1      -5.286  77.081 116.071  0.00  0.00     0.149 HD
ENDBRANCH   6  13
BRANCH   5  18
ATOM     18  N   LIG d   1      -3.041  74.244 116.746  0.00  0.00     0.381 N 
ATOM     19  H   LIG d   1      -3.638  74.025 117.518  0.00  0.00    -0.090 HD
ATOM     20  H   LIG d   1      -2.183  73.731 116.855  0.00  0.00    -0.090 HD
ATOM     21  H   LIG d   1      -3.483  73.988 115.891  0.00  0.00    -0.090 HD
ENDBRANCH   5  18
BRANCH   3  22
ATOM     22  C   LIG d   1       0.415  77.532 117.174  0.00  0.00     0.382 C 
ATOM     23  O   LIG d   1       1.075  76.692 117.832  0.00  0.00    -0.241 OA
ATOM     24  O   LIG d   1       0.831  78.703 117.083  0.00  0.00    -0.241 OA
ENDBRANCH   3  22
TORSDOF 7
ENDMDL
MODEL 5
REMARK VINA RESULT:      -4.9     10.951     12.812
REMARK  7 active torsions:
REMARK  status: ('A' for Active; 'I' for Inactive)
REMARK    1  A    between atoms: C_2  and  C_3 
REMARK    2  A    between atoms: C_3  and  O_6 
REMARK    3  A    between atoms: C_3  and  C_4 
REMARK    4  A    between atoms: C_7  and  O_6 
REMARK    5  A    between atoms: C_9  and  C_10 
REMARK    6  A    between atoms: N_15  and  C_14 
REMARK    7  A    between atoms: N_20  and  C_19 
REMARK       I    between atoms: C_22  and  N_20 
ROOT
ATOM      1  C   LIG d   1       2.680  88.037 115.917  0.00  0.00     0.161 C 
ATOM      2  C   LIG d   1       2.999  88.799 117.053  0.00  0.00     0.016 C 
ATOM      3  C   LIG d   1       4.001  89.797 117.065  0.00  0.00     0.038 C 
ATOM      4  C   LIG d   1       4.653  90.207 115.893  0.00  0.00     0.028 C 
ATOM      5  C   LIG d   1       4.721  89.120 114.826  0.00  0.00    -0.047 C 
ATOM      6  C   LIG d   1       3.303  88.548 114.601  0.00  0.00     0.091 C 
ENDROOT
BRANCH   1   7
ATOM      7  O   LIG d   1       1.248  87.932 115.785  0.00  0.00    -0.368 OA
BRANCH   7   8
ATOM      8  C   LIG d   1       0.680  86.622 116.034  0.00  0.00     0.119 C 
BRANCH   8   9
ATOM      9  C   LIG d   1      -0.059  86.687 117.384  0.00  0.00     0.028 C 
ATOM     10  C   LIG d   1      -0.930  87.948 117.516  0.00  0.00     0.006 C 
ENDBRANCH   8   9
BRANCH   8  11
ATOM     11  C   LIG d   1       1.774  85.567 116.221  0.00  0.00     0.028 C 
ATOM     12  C   LIG d   1       1.709  84.448 115.170  0.00  0.00     0.006 C 
ENDBRANCH   8  11
ENDBRANCH   7   8
ENDBRANCH   1   7
BRANCH   6  13
ATOM     13  N   LIG d   1       3.294  87.420 113.632  0.00  0.00    -0.311 N 
ATOM     14  C   LIG d   1       2.505  87.381 112.560  0.00  0.00     0.210 C 
ATOM     15  C   LIG d   1       2.640  86.118 111.704  0.00  0.00     0.109 C 
ATOM     16  O   LIG d   1       1.730  88.287 112.219  0.00  0.00    -0.276 OA
ATOM     17  H   LIG d   1       3.916  86.657 113.815  0.00  0.00     0.149 HD
ENDBRANCH   6  13
BRANCH   5  18
ATOM     18  N   LIG d   1       5.301  89.724 113.611  0.00  0.00     0.381 N 
ATOM     19  H   LIG d   1       5.268  90.721 113.680  0.00  0.00    -0.090 HD
ATOM     20  H   LIG d   1       4.753  89.444 112.816  0.00  0.00    -0.090 HD
ATOM     21  H   LIG d   1       6.244  89.422 113.497  0.00  0.00    -0.090 HD
ENDBRANCH   5  18
BRANCH   3  22
ATOM     22  C   LIG d   1       4.388  90.367 118.268  0.00  0.00     0.382 C 
ATOM     23  O   LIG d   1       4.981  89.674 119.129  0.00  0.00    -0.241 OA
ATOM     24  O   LIG d   1       4.112  91.555 118.522  0.00  0.00    -0.241 OA
ENDBRANCH   3  22
TORSDOF 7
ENDMDL
MODEL 6
REMARK VINA RESULT:      -4.8      2.729      4.073
REMARK  7 active torsions:
REMARK  status: ('A' for Active; 'I' for Inactive)
REMARK    1  A    between atoms: C_2  and  C_3 
REMARK    2  A    between atoms: C_3  and  O_6 
REMARK    3  A    between atoms: C_3  and  C_4 
REMARK    4  A    between atoms: C_7  and  O_6 
REMARK    5  A    between atoms: C_9  and  C_10 
REMARK    6  A    between atoms: N_15  and  C_14 
REMARK    7  A    between atoms: N_20  and  C_19 
REMARK       I    between atoms: C_22  and  N_20 
ROOT
ATOM      1  C   LIG d   1      -4.909  76.836 117.347  0.00  0.00     0.161 C 
ATOM      2  C   LIG d   1      -5.775  77.883 117.703  0.00  0.00     0.016 C 
ATOM      3  C   LIG d   1      -5.464  79.249 117.513  0.00  0.00     0.038 C 
ATOM      4  C   LIG d   1      -4.320  79.659 116.812  0.00  0.00     0.028 C 
ATOM      5  C   LIG d   1      -3.175  78.654 116.882  0.00  0.00    -0.047 C 
ATOM      6  C   LIG d   1      -3.705  77.259 116.479  0.00  0.00     0.091 C 
ENDROOT
BRANCH   1   7
ATOM      7  O   LIG d   1      -5.652  75.787 116.695  0.00  0.00    -0.368 OA
BRANCH   7   8
ATOM      8  C   LIG d   1      -6.597  76.210 115.682  0.00  0.00     0.119 C 
BRANCH   8   9
ATOM      9  C   LIG d   1      -7.943  75.524 115.988  0.00  0.00     0.028 C 
ATOM     10  C   LIG d   1      -7.762  74.117 116.581  0.00  0.00     0.006 C 
ENDBRANCH   8   9
BRANCH   8  11
ATOM     11  C   LIG d   1      -6.191  75.704 114.295  0.00  0.00     0.028 C 
ATOM     12  C   LIG d   1      -7.094  76.247 113.175  0.00  0.00     0.006 C 
ENDBRANCH   8  11
ENDBRANCH   7   8
ENDBRANCH   1   7
BRANCH   6  13
ATOM     13  N   LIG d   1      -2.669  76.202 116.602  0.00  0.00    -0.311 N 
ATOM     14  C   LIG d   1      -2.264  75.449 115.579  0.00  0.00     0.210 C 
ATOM     15  C   LIG d   1      -1.200  74.404 115.927  0.00  0.00     0.109 C 
ATOM     16  O   LIG d   1      -2.663  75.570 114.411  0.00  0.00    -0.276 OA
ATOM     17  H   LIG d   1      -2.269  76.057 117.508  0.00  0.00     0.149 HD
ENDBRANCH   6  13
BRANCH   5  18
ATOM     18  N   LIG d   1      -2.100  79.142 115.997  0.00  0.00     0.381 N 
ATOM     19  H   LIG d   1      -1.594  79.875 116.452  0.00  0.00    -0.090 HD
ATOM     20  H   LIG d   1      -2.512  79.515 115.160  0.00  0.00    -0.090 HD
ATOM     21  H   LIG d   1      -1.482  78.395 115.767  0.00  0.00    -0.090 HD
ENDBRANCH   5  18
BRANCH   3  22
ATOM     22  C   LIG d   1      -6.283  80.223 118.064  0.00  0.00     0.382 C 
ATOM     23  O   LIG d   1      -7.423  80.429 117.584  0.00  0.00    -0.241 OA
ATOM     24  O   LIG d   1      -5.878  80.929 119.007  0.00  0.00    -0.241 OA
ENDBRANCH   3  22
TORSDOF 7
ENDMDL
MODEL 7
REMARK VINA RESULT:      -4.8     22.394     24.704
REMARK  7 active torsions:
REMARK  status: ('A' for Active; 'I' for Inactive)
REMARK    1  A    between atoms: C_2  and  C_3 
REMARK    2  A    between atoms: C_3  and  O_6 
REMARK    3  A    between atoms: C_3  and  C_4 
REMARK    4  A    between atoms: C_7  and  O_6 
REMARK    5  A    between atoms: C_9  and  C_10 
REMARK    6  A    between atoms: N_15  and  C_14 
REMARK    7  A    between atoms: N_20  and  C_19 
REMARK       I    between atoms: C_22  and  N_20 
ROOT
ATOM      1  C   LIG d   1     -25.937  85.651 113.874  0.00  0.00     0.161 C 
ATOM      2  C   LIG d   1     -24.785  86.454 113.841  0.00  0.00     0.016 C 
ATOM      3  C   LIG d   1     -23.532  85.997 113.374  0.00  0.00     0.038 C 
ATOM      4  C   LIG d   1     -23.380  84.743 112.763  0.00  0.00     0.028 C 
ATOM      5  C   LIG d   1     -24.400  83.712 113.235  0.00  0.00    -0.047 C 
ATOM      6  C   LIG d   1     -25.818  84.316 113.109  0.00  0.00     0.091 C 
ENDROOT
BRANCH   1   7
ATOM      7  O   LIG d   1     -27.071  86.402 113.396  0.00  0.00    -0.368 OA
BRANCH   7   8
ATOM      8  C   LIG d   1     -26.885  87.111 112.147  0.00  0.00     0.119 C 
BRANCH   8   9
ATOM      9  C   LIG d   1     -27.327  88.570 112.371  0.00  0.00     0.028 C 
ATOM     10  C   LIG d   1     -27.670  89.288 111.056  0.00  0.00     0.006 C 
ENDBRANCH   8   9
BRANCH   8  11
ATOM     11  C   LIG d   1     -27.813  86.569 111.055  0.00  0.00     0.028 C 
ATOM     12  C   LIG d   1     -29.022  85.809 111.624  0.00  0.00     0.006 C 
ENDBRANCH   8  11
ENDBRANCH   7   8
ENDBRANCH   1   7
BRANCH   6  13
ATOM     13  N   LIG d   1     -26.870  83.404 113.629  0.00  0.00    -0.311 N 
ATOM     14  C   LIG d   1     -27.574  82.581 112.854  0.00  0.00     0.210 C 
ATOM     15  C   LIG d   1     -28.624  81.741 113.589  0.00  0.00     0.109 C 
ATOM     16  O   LIG d   1     -27.408  82.443 111.633  0.00  0.00    -0.276 OA
ATOM     17  H   LIG d   1     -27.049  83.428 114.614  0.00  0.00     0.149 HD
ENDBRANCH   6  13
BRANCH   5  18
ATOM     18  N   LIG d   1     -24.215  82.497 112.420  0.00  0.00     0.381 N 
ATOM     19  H   LIG d   1     -24.990  81.879 112.553  0.00  0.00    -0.090 HD
ATOM     20  H   LIG d   1     -23.380  82.026 112.723  0.00  0.00    -0.090 HD
ATOM     21  H   LIG d   1     -24.137  82.741 111.457  0.00  0.00    -0.090 HD
ENDBRANCH   5  18
BRANCH   3  22
ATOM     22  C   LIG d   1     -22.404  86.784 113.552  0.00  0.00     0.382 C 
ATOM     23  O   LIG d   1     -22.477  87.843 114.219  0.00  0.00    -0.241 OA
ATOM     24  O   LIG d   1     -21.324  86.470 113.016  0.00  0.00    -0.241 OA
ENDBRANCH   3  22
TORSDOF 7
ENDMDL
MODEL 8
REMARK VINA RESULT:      -4.8      7.637      9.532
REMARK  7 active torsions:
REMARK  status: ('A' for Active; 'I' for Inactive)
REMARK    1  A    between atoms: C_2  and  C_3 
REMARK    2  A    between atoms: C_3  and  O_6 
REMARK    3  A    between atoms: C_3  and  C_4 
REMARK    4  A    between atoms: C_7  and  O_6 
REMARK    5  A    between atoms: C_9  and  C_10 
REMARK    6  A    between atoms: N_15  and  C_14 
REMARK    7  A    between atoms: N_20  and  C_19 
REMARK       I    between atoms: C_22  and  N_20 
ROOT
ATOM      1  C   LIG d   1       1.143  84.866 114.428  0.00  0.00     0.161 C 
ATOM      2  C   LIG d   1       1.505  86.192 114.137  0.00  0.00     0.016 C 
ATOM      3  C   LIG d   1       2.760  86.749 114.478  0.00  0.00     0.038 C 
ATOM      4  C   LIG d   1       3.800  85.967 115.000  0.00  0.00     0.028 C 
ATOM      5  C   LIG d   1       3.312  84.747 115.773  0.00  0.00    -0.047 C 
ATOM      6  C   LIG d   1       2.306  83.967 114.897  0.00  0.00     0.091 C 
ENDROOT
BRANCH   1   7
ATOM      7  O   LIG d   1       0.484  84.279 113.288  0.00  0.00    -0.368 OA
BRANCH   7   8
ATOM      8  C   LIG d   1       0.833  84.832 111.995  0.00  0.00     0.119 C 
BRANCH   8   9
ATOM      9  C   LIG d   1      -0.480  85.063 111.221  0.00  0.00     0.028 C 
ATOM     10  C   LIG d   1      -1.026  86.490 111.404  0.00  0.00     0.006 C 
ENDBRANCH   8   9
BRANCH   8  11
ATOM     11  C   LIG d   1       1.627  83.828 111.155  0.00  0.00     0.028 C 
ATOM     12  C   LIG d   1       3.119  84.183 111.055  0.00  0.00     0.006 C 
ENDBRANCH   8  11
ENDBRANCH   7   8
ENDBRANCH   1   7
BRANCH   6  13
ATOM     13  N   LIG d   1       1.715  82.804 115.610  0.00  0.00    -0.311 N 
ATOM     14  C   LIG d   1       2.230  81.576 115.563  0.00  0.00     0.210 C 
ATOM     15  C   LIG d   1       1.453  80.519 116.354  0.00  0.00     0.109 C 
ATOM     16  O   LIG d   1       3.274  81.270 114.968  0.00  0.00    -0.276 OA
ATOM     17  H   LIG d   1       0.884  82.970 116.143  0.00  0.00     0.149 HD
ENDBRANCH   6  13
BRANCH   5  18
ATOM     18  N   LIG d   1       4.497  83.949 116.142  0.00  0.00     0.381 N 
ATOM     19  H   LIG d   1       4.823  84.226 117.047  0.00  0.00    -0.090 HD
ATOM     20  H   LIG d   1       5.228  84.125 115.476  0.00  0.00    -0.090 HD
ATOM     21  H   LIG d   1       4.267  82.980 116.147  0.00  0.00    -0.090 HD
ENDBRANCH   5  18
BRANCH   3  22
ATOM     22  C   LIG d   1       2.969  88.112 114.332  0.00  0.00     0.382 C 
ATOM     23  O   LIG d   1       3.319  88.801 115.321  0.00  0.00    -0.241 OA
ATOM     24  O   LIG d   1       2.770  88.668 113.236  0.00  0.00    -0.241 OA
ENDBRANCH   3  22
TORSDOF 7
ENDMDL
MODEL 9
REMARK VINA RESULT:      -4.7      8.901     10.912
REMARK  7 active torsions:
REMARK  status: ('A' for Active; 'I' for Inactive)
REMARK    1  A    between atoms: C_2  and  C_3 
REMARK    2  A    between atoms: C_3  and  O_6 
REMARK    3  A    between atoms: C_3  and  C_4 
REMARK    4  A    between atoms: C_7  and  O_6 
REMARK    5  A    between atoms: C_9  and  C_10 
REMARK    6  A    between atoms: N_15  and  C_14 
REMARK    7  A    between atoms: N_20  and  C_19 
REMARK       I    between atoms: C_22  and  N_20 
ROOT
ATOM      1  C   LIG d   1       1.735  85.969 114.846  0.00  0.00     0.161 C 
ATOM      2  C   LIG d   1       2.576  87.047 115.169  0.00  0.00     0.016 C 
ATOM      3  C   LIG d   1       3.058  87.971 114.214  0.00  0.00     0.038 C 
ATOM      4  C   LIG d   1       2.606  87.970 112.886  0.00  0.00     0.028 C 
ATOM      5  C   LIG d   1       2.149  86.597 112.404  0.00  0.00    -0.047 C 
ATOM      6  C   LIG d   1       1.142  86.016 113.422  0.00  0.00     0.091 C 
ENDROOT
BRANCH   1   7
ATOM      7  O   LIG d   1       0.682  85.861 115.824  0.00  0.00    -0.368 OA
BRANCH   7   8
ATOM      8  C   LIG d   1       0.792  86.730 116.978  0.00  0.00     0.119 C 
BRANCH   8   9
ATOM      9  C   LIG d   1       0.900  85.832 118.225  0.00  0.00     0.028 C 
ATOM     10  C   LIG d   1      -0.432  85.144 118.570  0.00  0.00     0.006 C 
ENDBRANCH   8   9
BRANCH   8  11
ATOM     11  C   LIG d   1      -0.483  87.553 117.179  0.00  0.00     0.028 C 
ATOM     12  C   LIG d   1      -0.212  88.928 117.811  0.00  0.00     0.006 C 
ENDBRANCH   8  11
ENDBRANCH   7   8
ENDBRANCH   1   7
BRANCH   6  13
ATOM     13  N   LIG d   1       0.709  84.639 113.069  0.00  0.00    -0.311 N 
ATOM     14  C   LIG d   1      -0.332  84.377 112.282  0.00  0.00     0.210 C 
ATOM     15  C   LIG d   1      -0.618  82.888 112.062  0.00  0.00     0.109 C 
ATOM     16  O   LIG d   1      -1.027  85.236 111.718  0.00  0.00    -0.276 OA
ATOM     17  H   LIG d   1       1.236  83.882 113.458  0.00  0.00     0.149 HD
ENDBRANCH   6  13
BRANCH   5  18
ATOM     18  N   LIG d   1       1.576  86.766 111.055  0.00  0.00     0.381 N 
ATOM     19  H   LIG d   1       1.945  86.069 110.440  0.00  0.00    -0.090 HD
ATOM     20  H   LIG d   1       1.839  87.669 110.701  0.00  0.00    -0.090 HD
ATOM     21  H   LIG d   1       0.583  86.693 111.095  0.00  0.00    -0.090 HD
ENDBRANCH   5  18
BRANCH   3  22
ATOM     22  C   LIG d   1       4.034  88.888 114.576  0.00  0.00     0.382 C 
ATOM     23  O   LIG d   1       4.337  89.822 113.795  0.00  0.00    -0.241 OA
ATOM     24  O   LIG d   1       4.646  88.766 115.654  0.00  0.00    -0.241 OA
ENDBRANCH   3  22
TORSDOF 7
ENDMDL
