MODEL 1
REMARK VINA RESULT:      -5.8      0.000      0.000
REMARK  7 active torsions:
REMARK  status: ('A' for Active; 'I' for Inactive)
REMARK    1  A    between atoms: C_2  and  C_3 
REMARK    2  A    between atoms: C_3  and  O_6 
REMARK    3  A    between atoms: C_3  and  C_4 
REMARK    4  A    between atoms: C_7  and  O_6 
REMARK    5  A    between atoms: C_9  and  C_10 
REMARK    6  A    between atoms: N_15  and  C_14 
REMARK    7  A    between atoms: N_20  and  C_19 
REMARK       I    between atoms: C_22  and  N_20 
ROOT
ATOM      1  C   LIG d   1       2.880  89.159 115.439  0.00  0.00     0.161 C 
ATOM      2  C   LIG d   1       2.181  88.393 114.492  0.00  0.00     0.016 C 
ATOM      3  C   LIG d   1       2.682  88.101 113.203  0.00  0.00     0.038 C 
ATOM      4  C   LIG d   1       3.992  88.432 112.825  0.00  0.00     0.028 C 
ATOM      5  C   LIG d   1       4.549  89.643 113.566  0.00  0.00    -0.047 C 
ATOM      6  C   LIG d   1       4.357  89.434 115.085  0.00  0.00     0.091 C 
ENDROOT
BRANCH   1   7
ATOM      7  O   LIG d   1       2.783  88.539 116.737  0.00  0.00    -0.368 OA
BRANCH   7   8
ATOM      8  C   LIG d   1       1.869  89.161 117.673  0.00  0.00     0.119 C 
BRANCH   8   9
ATOM      9  C   LIG d   1       1.411  90.497 117.055  0.00  0.00     0.028 C 
ATOM     10  C   LIG d   1      -0.111  90.554 116.844  0.00  0.00     0.006 C 
ENDBRANCH   8   9
BRANCH   8  11
ATOM     11  C   LIG d   1       2.579  89.540 118.977  0.00  0.00     0.028 C 
ATOM     12  C   LIG d   1       2.618  91.058 119.215  0.00  0.00     0.006 C 
ENDBRANCH   8  11
ENDBRANCH   7   8
ENDBRANCH   1   7
BRANCH   6  13
ATOM     13  N   LIG d   1       4.798  90.610 115.879  0.00  0.00    -0.311 N 
ATOM     14  C   LIG d   1       5.590  90.519 116.946  0.00  0.00     0.210 C 
ATOM     15  C   LIG d   1       5.908  91.851 117.632  0.00  0.00     0.109 C 
ATOM     16  O   LIG d   1       6.086  89.464 117.371  0.00  0.00    -0.276 OA
ATOM     17  H   LIG d   1       4.468  91.509 115.586  0.00  0.00     0.149 HD
ENDBRANCH   6  13
BRANCH   5  18
ATOM     18  N   LIG d   1       5.964  89.791 113.177  0.00  0.00     0.381 N 
ATOM     19  H   LIG d   1       6.549  89.700 113.984  0.00  0.00    -0.090 HD
ATOM     20  H   LIG d   1       6.101  90.709 112.791  0.00  0.00    -0.090 HD
ATOM     21  H   LIG d   1       6.207  89.099 112.503  0.00  0.00    -0.090 HD
ENDBRANCH   5  18
BRANCH   3  22
ATOM     22  C   LIG d   1       1.856  87.507 112.262  0.00  0.00     0.382 C 
ATOM     23  O   LIG d   1       0.676  87.207 112.564  0.00  0.00    -0.241 OA
ATOM     24  O   LIG d   1       2.289  87.226 111.128  0.00  0.00    -0.241 OA
ENDBRANCH   3  22
TORSDOF 7
ENDMDL
MODEL 2
REMARK VINA RESULT:      -5.7      1.422      2.070
REMARK  7 active torsions:
REMARK  status: ('A' for Active; 'I' for Inactive)
REMARK    1  A    between atoms: C_2  and  C_3 
REMARK    2  A    between atoms: C_3  and  O_6 
REMARK    3  A    between atoms: C_3  and  C_4 
REMARK    4  A    between atoms: C_7  and  O_6 
REMARK    5  A    between atoms: C_9  and  C_10 
REMARK    6  A    between atoms: N_15  and  C_14 
REMARK    7  A    between atoms: N_20  and  C_19 
REMARK       I    between atoms: C_22  and  N_20 
ROOT
ATOM      1  C   LIG d   1       2.800  89.098 115.481  0.00  0.00     0.161 C 
ATOM      2  C   LIG d   1       2.131  88.346 114.500  0.00  0.00     0.016 C 
ATOM      3  C   LIG d   1       2.661  88.099 113.213  0.00  0.00     0.038 C 
ATOM      4  C   LIG d   1       3.972  88.461 112.869  0.00  0.00     0.028 C 
ATOM      5  C   LIG d   1       4.494  89.661 113.652  0.00  0.00    -0.047 C 
ATOM      6  C   LIG d   1       4.278  89.407 115.162  0.00  0.00     0.091 C 
ENDROOT
BRANCH   1   7
ATOM      7  O   LIG d   1       2.691  88.441 116.759  0.00  0.00    -0.368 OA
BRANCH   7   8
ATOM      8  C   LIG d   1       3.813  87.611 117.148  0.00  0.00     0.119 C 
BRANCH   8   9
ATOM      9  C   LIG d   1       3.364  86.142 117.031  0.00  0.00     0.028 C 
ATOM     10  C   LIG d   1       4.049  85.411 115.863  0.00  0.00     0.006 C 
ENDBRANCH   8   9
BRANCH   8  11
ATOM     11  C   LIG d   1       4.168  87.810 118.624  0.00  0.00     0.028 C 
ATOM     12  C   LIG d   1       3.594  89.112 119.205  0.00  0.00     0.006 C 
ENDBRANCH   8  11
ENDBRANCH   7   8
ENDBRANCH   1   7
BRANCH   6  13
ATOM     13  N   LIG d   1       4.685  90.568 115.996  0.00  0.00    -0.311 N 
ATOM     14  C   LIG d   1       5.836  90.624 116.663  0.00  0.00     0.210 C 
ATOM     15  C   LIG d   1       6.050  91.903 117.478  0.00  0.00     0.109 C 
ATOM     16  O   LIG d   1       6.715  89.750 116.631  0.00  0.00    -0.276 OA
ATOM     17  H   LIG d   1       4.044  91.335 116.053  0.00  0.00     0.149 HD
ENDBRANCH   6  13
BRANCH   5  18
ATOM     18  N   LIG d   1       5.914  89.843 113.294  0.00  0.00     0.381 N 
ATOM     19  H   LIG d   1       6.474  89.171 113.778  0.00  0.00    -0.090 HD
ATOM     20  H   LIG d   1       6.205  90.761 113.580  0.00  0.00    -0.090 HD
ATOM     21  H   LIG d   1       6.033  89.740 112.311  0.00  0.00    -0.090 HD
ENDBRANCH   5  18
BRANCH   3  22
ATOM     22  C   LIG d   1       1.862  87.516 112.241  0.00  0.00     0.382 C 
ATOM     23  O   LIG d   1       0.675  87.209 112.507  0.00  0.00    -0.241 OA
ATOM     24  O   LIG d   1       2.327  87.254 111.116  0.00  0.00    -0.241 OA
ENDBRANCH   3  22
TORSDOF 7
ENDMDL
MODEL 3
REMARK VINA RESULT:      -5.4     10.303     12.106
REMARK  7 active torsions:
REMARK  status: ('A' for Active; 'I' for Inactive)
REMARK    1  A    between atoms: C_2  and  C_3 
REMARK    2  A    between atoms: C_3  and  O_6 
REMARK    3  A    between atoms: C_3  and  C_4 
REMARK    4  A    between atoms: C_7  and  O_6 
REMARK    5  A    between atoms: C_9  and  C_10 
REMARK    6  A    between atoms: N_15  and  C_14 
REMARK    7  A    between atoms: N_20  and  C_19 
REMARK       I    between atoms: C_22  and  N_20 
ROOT
ATOM      1  C   LIG d   1      -2.754  79.954 114.862  0.00  0.00     0.161 C 
ATOM      2  C   LIG d   1      -2.270  81.082 114.178  0.00  0.00     0.016 C 
ATOM      3  C   LIG d   1      -1.609  81.011 112.930  0.00  0.00     0.038 C 
ATOM      4  C   LIG d   1      -1.521  79.813 112.205  0.00  0.00     0.028 C 
ATOM      5  C   LIG d   1      -1.548  78.569 113.085  0.00  0.00    -0.047 C 
ATOM      6  C   LIG d   1      -2.765  78.652 114.035  0.00  0.00     0.091 C 
ENDROOT
BRANCH   1   7
ATOM      7  O   LIG d   1      -4.069  80.227 115.385  0.00  0.00    -0.368 OA
BRANCH   7   8
ATOM      8  C   LIG d   1      -4.137  80.563 116.793  0.00  0.00     0.119 C 
BRANCH   8   9
ATOM      9  C   LIG d   1      -5.241  79.693 117.424  0.00  0.00     0.028 C 
ATOM     10  C   LIG d   1      -6.604  80.405 117.454  0.00  0.00     0.006 C 
ENDBRANCH   8   9
BRANCH   8  11
ATOM     11  C   LIG d   1      -4.594  82.010 116.999  0.00  0.00     0.028 C 
ATOM     12  C   LIG d   1      -3.832  82.721 118.129  0.00  0.00     0.006 C 
ENDBRANCH   8  11
ENDBRANCH   7   8
ENDBRANCH   1   7
BRANCH   6  13
ATOM     13  N   LIG d   1      -2.819  77.513 114.989  0.00  0.00    -0.311 N 
ATOM     14  C   LIG d   1      -3.496  76.391 114.753  0.00  0.00     0.210 C 
ATOM     15  C   LIG d   1      -3.436  75.352 115.877  0.00  0.00     0.109 C 
ATOM     16  O   LIG d   1      -4.115  76.144 113.707  0.00  0.00    -0.276 OA
ATOM     17  H   LIG d   1      -2.319  77.616 115.850  0.00  0.00     0.149 HD
ENDBRANCH   6  13
BRANCH   5  18
ATOM     18  N   LIG d   1      -1.589  77.393 112.195  0.00  0.00     0.381 N 
ATOM     19  H   LIG d   1      -0.977  77.537 111.417  0.00  0.00    -0.090 HD
ATOM     20  H   LIG d   1      -2.524  77.283 111.844  0.00  0.00    -0.090 HD
ATOM     21  H   LIG d   1      -1.315  76.576 112.696  0.00  0.00    -0.090 HD
ENDBRANCH   5  18
BRANCH   3  22
ATOM     22  C   LIG d   1      -0.993  82.140 112.413  0.00  0.00     0.382 C 
ATOM     23  O   LIG d   1      -1.479  82.716 111.410  0.00  0.00    -0.241 OA
ATOM     24  O   LIG d   1       0.067  82.565 112.911  0.00  0.00    -0.241 OA
ENDBRANCH   3  22
TORSDOF 7
ENDMDL
MODEL 4
REMARK VINA RESULT:      -4.9     14.141     15.737
REMARK  7 active torsions:
REMARK  status: ('A' for Active; 'I' for Inactive)
REMARK    1  A    between atoms: C_2  and  C_3 
REMARK    2  A    between atoms: C_3  and  O_6 
REMARK    3  A    between atoms: C_3  and  C_4 
REMARK    4  A    between atoms: C_7  and  O_6 
REMARK    5  A    between atoms: C_9  and  C_10 
REMARK    6  A    between atoms: N_15  and  C_14 
REMARK    7  A    between atoms: N_20  and  C_19 
REMARK       I    between atoms: C_22  and  N_20 
ROOT
ATOM      1  C   LIG d   1      -3.501  75.469 115.393  0.00  0.00     0.161 C 
ATOM      2  C   LIG d   1      -3.736  76.213 114.225  0.00  0.00     0.016 C 
ATOM      3  C   LIG d   1      -2.719  76.896 113.520  0.00  0.00     0.038 C 
ATOM      4  C   LIG d   1      -1.363  76.755 113.853  0.00  0.00     0.028 C 
ATOM      5  C   LIG d   1      -1.132  76.423 115.323  0.00  0.00    -0.047 C 
ATOM      6  C   LIG d   1      -2.013  75.212 115.708  0.00  0.00     0.091 C 
ENDROOT
BRANCH   1   7
ATOM      7  O   LIG d   1      -4.222  74.222 115.332  0.00  0.00    -0.368 OA
BRANCH   7   8
ATOM      8  C   LIG d   1      -5.458  74.162 116.086  0.00  0.00     0.119 C 
BRANCH   8   9
ATOM      9  C   LIG d   1      -5.518  75.419 116.976  0.00  0.00     0.028 C 
ATOM     10  C   LIG d   1      -5.378  75.086 118.471  0.00  0.00     0.006 C 
ENDBRANCH   8   9
BRANCH   8  11
ATOM     11  C   LIG d   1      -5.461  72.977 117.056  0.00  0.00     0.028 C 
ATOM     12  C   LIG d   1      -6.651  72.030 116.835  0.00  0.00     0.006 C 
ENDBRANCH   8  11
ENDBRANCH   7   8
ENDBRANCH   1   7
BRANCH   6  13
ATOM     13  N   LIG d   1      -1.910  74.874 117.152  0.00  0.00    -0.311 N 
ATOM     14  C   LIG d   1      -1.322  73.768 117.606  0.00  0.00     0.210 C 
ATOM     15  C   LIG d   1      -1.344  73.602 119.128  0.00  0.00     0.109 C 
ATOM     16  O   LIG d   1      -0.755  72.925 116.894  0.00  0.00    -0.276 OA
ATOM     17  H   LIG d   1      -2.316  75.518 117.802  0.00  0.00     0.149 HD
ENDBRANCH   6  13
BRANCH   5  18
ATOM     18  N   LIG d   1       0.310  76.168 115.501  0.00  0.00     0.381 N 
ATOM     19  H   LIG d   1       0.567  75.327 115.025  0.00  0.00    -0.090 HD
ATOM     20  H   LIG d   1       0.501  76.047 116.480  0.00  0.00    -0.090 HD
ATOM     21  H   LIG d   1       0.838  76.935 115.145  0.00  0.00    -0.090 HD
ENDBRANCH   5  18
BRANCH   3  22
ATOM     22  C   LIG d   1      -3.058  77.763 112.492  0.00  0.00     0.382 C 
ATOM     23  O   LIG d   1      -2.995  77.377 111.300  0.00  0.00    -0.241 OA
ATOM     24  O   LIG d   1      -3.383  78.940 112.740  0.00  0.00    -0.241 OA
ENDBRANCH   3  22
TORSDOF 7
ENDMDL
MODEL 5
REMARK VINA RESULT:      -4.8     15.931     17.649
REMARK  7 active torsions:
REMARK  status: ('A' for Active; 'I' for Inactive)
REMARK    1  A    between atoms: C_2  and  C_3 
REMARK    2  A    between atoms: C_3  and  O_6 
REMARK    3  A    between atoms: C_3  and  C_4 
REMARK    4  A    between atoms: C_7  and  O_6 
REMARK    5  A    between atoms: C_9  and  C_10 
REMARK    6  A    between atoms: N_15  and  C_14 
REMARK    7  A    between atoms: N_20  and  C_19 
REMARK       I    between atoms: C_22  and  N_20 
ROOT
ATOM      1  C   LIG d   1      -7.305  75.446 117.733  0.00  0.00     0.161 C 
ATOM      2  C   LIG d   1      -8.697  75.358 117.899  0.00  0.00     0.016 C 
ATOM      3  C   LIG d   1      -9.515  76.468 118.211  0.00  0.00     0.038 C 
ATOM      4  C   LIG d   1      -9.013  77.777 118.231  0.00  0.00     0.028 C 
ATOM      5  C   LIG d   1      -7.527  77.851 118.568  0.00  0.00    -0.047 C 
ATOM      6  C   LIG d   1      -6.754  76.884 117.641  0.00  0.00     0.091 C 
ENDROOT
BRANCH   1   7
ATOM      7  O   LIG d   1      -6.901  74.680 116.581  0.00  0.00    -0.368 OA
BRANCH   7   8
ATOM      8  C   LIG d   1      -5.766  73.799 116.768  0.00  0.00     0.119 C 
BRANCH   8   9
ATOM      9  C   LIG d   1      -4.713  74.168 115.705  0.00  0.00     0.028 C 
ATOM     10  C   LIG d   1      -5.302  75.021 114.568  0.00  0.00     0.006 C 
ENDBRANCH   8   9
BRANCH   8  11
ATOM     11  C   LIG d   1      -6.138  72.341 116.482  0.00  0.00     0.028 C 
ATOM     12  C   LIG d   1      -7.091  71.752 117.534  0.00  0.00     0.006 C 
ENDBRANCH   8  11
ENDBRANCH   7   8
ENDBRANCH   1   7
BRANCH   6  13
ATOM     13  N   LIG d   1      -5.304  76.832 117.960  0.00  0.00    -0.311 N 
ATOM     14  C   LIG d   1      -4.384  77.547 117.314  0.00  0.00     0.210 C 
ATOM     15  C   LIG d   1      -2.944  77.328 117.788  0.00  0.00     0.109 C 
ATOM     16  O   LIG d   1      -4.629  78.365 116.415  0.00  0.00    -0.276 OA
ATOM     17  H   LIG d   1      -5.021  76.216 118.698  0.00  0.00     0.149 HD
ENDBRANCH   6  13
BRANCH   5  18
ATOM     18  N   LIG d   1      -7.105  79.256 118.418  0.00  0.00     0.381 N 
ATOM     19  H   LIG d   1      -6.129  79.296 118.201  0.00  0.00    -0.090 HD
ATOM     20  H   LIG d   1      -7.254  79.735 119.289  0.00  0.00    -0.090 HD
ATOM     21  H   LIG d   1      -7.632  79.695 117.695  0.00  0.00    -0.090 HD
ENDBRANCH   5  18
BRANCH   3  22
ATOM     22  C   LIG d   1     -10.846  76.268 118.548  0.00  0.00     0.382 C 
ATOM     23  O   LIG d   1     -11.422  75.203 118.221  0.00  0.00    -0.241 OA
ATOM     24  O   LIG d   1     -11.489  77.158 119.135  0.00  0.00    -0.241 OA
ENDBRANCH   3  22
TORSDOF 7
ENDMDL
MODEL 6
REMARK VINA RESULT:      -4.8      3.359      5.942
REMARK  7 active torsions:
REMARK  status: ('A' for Active; 'I' for Inactive)
REMARK    1  A    between atoms: C_2  and  C_3 
REMARK    2  A    between atoms: C_3  and  O_6 
REMARK    3  A    between atoms: C_3  and  C_4 
REMARK    4  A    between atoms: C_7  and  O_6 
REMARK    5  A    between atoms: C_9  and  C_10 
REMARK    6  A    between atoms: N_15  and  C_14 
REMARK    7  A    between atoms: N_20  and  C_19 
REMARK       I    between atoms: C_22  and  N_20 
ROOT
ATOM      1  C   LIG d   1       3.273  87.256 115.499  0.00  0.00     0.161 C 
ATOM      2  C   LIG d   1       3.883  88.516 115.379  0.00  0.00     0.016 C 
ATOM      3  C   LIG d   1       5.048  88.887 116.089  0.00  0.00     0.038 C 
ATOM      4  C   LIG d   1       5.774  87.965 116.857  0.00  0.00     0.028 C 
ATOM      5  C   LIG d   1       4.918  86.829 117.407  0.00  0.00    -0.047 C 
ATOM      6  C   LIG d   1       4.113  86.200 116.247  0.00  0.00     0.091 C 
ENDROOT
BRANCH   1   7
ATOM      7  O   LIG d   1       2.900  86.767 114.195  0.00  0.00    -0.368 OA
BRANCH   7   8
ATOM      8  C   LIG d   1       3.163  87.657 113.082  0.00  0.00     0.119 C 
BRANCH   8   9
ATOM      9  C   LIG d   1       1.808  88.214 112.605  0.00  0.00     0.028 C 
ATOM     10  C   LIG d   1       0.867  87.111 112.092  0.00  0.00     0.006 C 
ENDBRANCH   8   9
BRANCH   8  11
ATOM     11  C   LIG d   1       3.733  86.895 111.882  0.00  0.00     0.028 C 
ATOM     12  C   LIG d   1       3.900  85.392 112.156  0.00  0.00     0.006 C 
ENDBRANCH   8  11
ENDBRANCH   7   8
ENDBRANCH   1   7
BRANCH   6  13
ATOM     13  N   LIG d   1       3.186  85.135 116.712  0.00  0.00    -0.311 N 
ATOM     14  C   LIG d   1       3.507  83.842 116.736  0.00  0.00     0.210 C 
ATOM     15  C   LIG d   1       2.398  82.910 117.233  0.00  0.00     0.109 C 
ATOM     16  O   LIG d   1       4.616  83.383 116.424  0.00  0.00    -0.276 OA
ATOM     17  H   LIG d   1       2.276  85.422 117.014  0.00  0.00     0.149 HD
ENDBRANCH   6  13
BRANCH   5  18
ATOM     18  N   LIG d   1       5.822  85.870 118.070  0.00  0.00     0.381 N 
ATOM     19  H   LIG d   1       6.614  85.691 117.485  0.00  0.00    -0.090 HD
ATOM     20  H   LIG d   1       5.332  85.005 118.212  0.00  0.00    -0.090 HD
ATOM     21  H   LIG d   1       6.125  86.236 118.946  0.00  0.00    -0.090 HD
ENDBRANCH   5  18
BRANCH   3  22
ATOM     22  C   LIG d   1       5.476  90.206 116.065  0.00  0.00     0.382 C 
ATOM     23  O   LIG d   1       6.641  90.493 116.431  0.00  0.00    -0.241 OA
ATOM     24  O   LIG d   1       4.698  91.117 115.724  0.00  0.00    -0.241 OA
ENDBRANCH   3  22
TORSDOF 7
ENDMDL
MODEL 7
REMARK VINA RESULT:      -4.7     13.618     15.311
REMARK  7 active torsions:
REMARK  status: ('A' for Active; 'I' for Inactive)
REMARK    1  A    between atoms: C_2  and  C_3 
REMARK    2  A    between atoms: C_3  and  O_6 
REMARK    3  A    between atoms: C_3  and  C_4 
REMARK    4  A    between atoms: C_7  and  O_6 
REMARK    5  A    between atoms: C_9  and  C_10 
REMARK    6  A    between atoms: N_15  and  C_14 
REMARK    7  A    between atoms: N_20  and  C_19 
REMARK       I    between atoms: C_22  and  N_20 
ROOT
ATOM      1  C   LIG d   1      -6.595  78.775 117.836  0.00  0.00     0.161 C 
ATOM      2  C   LIG d   1      -7.972  78.875 118.094  0.00  0.00     0.016 C 
ATOM      3  C   LIG d   1      -8.713  80.067 117.916  0.00  0.00     0.038 C 
ATOM      4  C   LIG d   1      -8.152  81.206 117.321  0.00  0.00     0.028 C 
ATOM      5  C   LIG d   1      -6.642  81.310 117.514  0.00  0.00    -0.047 C 
ATOM      6  C   LIG d   1      -5.989  79.977 117.082  0.00  0.00     0.091 C 
ENDROOT
BRANCH   1   7
ATOM      7  O   LIG d   1      -6.317  77.549 117.131  0.00  0.00    -0.368 OA
BRANCH   7   8
ATOM      8  C   LIG d   1      -6.873  76.342 117.708  0.00  0.00     0.119 C 
BRANCH   8   9
ATOM      9  C   LIG d   1      -5.695  75.478 118.197  0.00  0.00     0.028 C 
ATOM     10  C   LIG d   1      -5.463  74.245 117.307  0.00  0.00     0.006 C 
ENDBRANCH   8   9
BRANCH   8  11
ATOM     11  C   LIG d   1      -7.585  75.495 116.650  0.00  0.00     0.028 C 
ATOM     12  C   LIG d   1      -9.013  75.103 117.062  0.00  0.00     0.006 C 
ENDBRANCH   8  11
ENDBRANCH   7   8
ENDBRANCH   1   7
BRANCH   6  13
ATOM     13  N   LIG d   1      -4.522  79.963 117.317  0.00  0.00    -0.311 N 
ATOM     14  C   LIG d   1      -3.625  80.230 116.369  0.00  0.00     0.210 C 
ATOM     15  C   LIG d   1      -2.163  80.140 116.819  0.00  0.00     0.109 C 
ATOM     16  O   LIG d   1      -3.901  80.563 115.207  0.00  0.00    -0.276 OA
ATOM     17  H   LIG d   1      -4.210  79.732 118.240  0.00  0.00     0.149 HD
ENDBRANCH   6  13
BRANCH   5  18
ATOM     18  N   LIG d   1      -6.171  82.466 116.729  0.00  0.00     0.381 N 
ATOM     19  H   LIG d   1      -6.954  82.965 116.357  0.00  0.00    -0.090 HD
ATOM     20  H   LIG d   1      -5.616  82.133 115.961  0.00  0.00    -0.090 HD
ATOM     21  H   LIG d   1      -5.626  83.070 117.305  0.00  0.00    -0.090 HD
ENDBRANCH   5  18
BRANCH   3  22
ATOM     22  C   LIG d   1     -10.020  80.138 118.373  0.00  0.00     0.382 C 
ATOM     23  O   LIG d   1     -10.585  81.252 118.485  0.00  0.00    -0.241 OA
ATOM     24  O   LIG d   1     -10.626  79.105 118.717  0.00  0.00    -0.241 OA
ENDBRANCH   3  22
TORSDOF 7
ENDMDL
MODEL 8
REMARK VINA RESULT:      -4.7     29.697     31.719
REMARK  7 active torsions:
REMARK  status: ('A' for Active; 'I' for Inactive)
REMARK    1  A    between atoms: C_2  and  C_3 
REMARK    2  A    between atoms: C_3  and  O_6 
REMARK    3  A    between atoms: C_3  and  C_4 
REMARK    4  A    between atoms: C_7  and  O_6 
REMARK    5  A    between atoms: C_9  and  C_10 
REMARK    6  A    between atoms: N_15  and  C_14 
REMARK    7  A    between atoms: N_20  and  C_19 
REMARK       I    between atoms: C_22  and  N_20 
ROOT
ATOM      1  C   LIG d   1     -17.133  65.350 115.189  0.00  0.00     0.161 C 
ATOM      2  C   LIG d   1     -16.331  66.041 114.265  0.00  0.00     0.016 C 
ATOM      3  C   LIG d   1     -15.980  67.404 114.406  0.00  0.00     0.038 C 
ATOM      4  C   LIG d   1     -16.285  68.132 115.566  0.00  0.00     0.028 C 
ATOM      5  C   LIG d   1     -17.523  67.621 116.294  0.00  0.00    -0.047 C 
ATOM      6  C   LIG d   1     -17.382  66.097 116.515  0.00  0.00     0.091 C 
ENDROOT
BRANCH   1   7
ATOM      7  O   LIG d   1     -16.572  64.048 115.445  0.00  0.00    -0.368 OA
BRANCH   7   8
ATOM      8  C   LIG d   1     -17.345  62.916 114.974  0.00  0.00     0.119 C 
BRANCH   8   9
ATOM      9  C   LIG d   1     -18.583  63.473 114.245  0.00  0.00     0.028 C 
ATOM     10  C   LIG d   1     -19.672  62.406 114.040  0.00  0.00     0.006 C 
ENDBRANCH   8   9
BRANCH   8  11
ATOM     11  C   LIG d   1     -17.897  62.094 116.142  0.00  0.00     0.028 C 
ATOM     12  C   LIG d   1     -17.056  62.235 117.421  0.00  0.00     0.006 C 
ENDBRANCH   8  11
ENDBRANCH   7   8
ENDBRANCH   1   7
BRANCH   6  13
ATOM     13  N   LIG d   1     -18.589  65.502 117.147  0.00  0.00    -0.311 N 
ATOM     14  C   LIG d   1     -18.713  65.316 118.460  0.00  0.00     0.210 C 
ATOM     15  C   LIG d   1     -20.030  64.669 118.900  0.00  0.00     0.109 C 
ATOM     16  O   LIG d   1     -17.871  65.656 119.305  0.00  0.00    -0.276 OA
ATOM     17  H   LIG d   1     -19.334  65.227 116.537  0.00  0.00     0.149 HD
ENDBRANCH   6  13
BRANCH   5  18
ATOM     18  N   LIG d   1     -17.645  68.379 117.553  0.00  0.00     0.381 N 
ATOM     19  H   LIG d   1     -16.949  69.097 117.585  0.00  0.00    -0.090 HD
ATOM     20  H   LIG d   1     -17.489  67.755 118.325  0.00  0.00    -0.090 HD
ATOM     21  H   LIG d   1     -18.553  68.783 117.621  0.00  0.00    -0.090 HD
ENDBRANCH   5  18
BRANCH   3  22
ATOM     22  C   LIG d   1     -15.350  68.063 113.361  0.00  0.00     0.382 C 
ATOM     23  O   LIG d   1     -14.103  68.194 113.364  0.00  0.00    -0.241 OA
ATOM     24  O   LIG d   1     -16.018  68.566 112.438  0.00  0.00    -0.241 OA
ENDBRANCH   3  22
TORSDOF 7
ENDMDL
MODEL 9
REMARK VINA RESULT:      -4.7      3.063      5.919
REMARK  7 active torsions:
REMARK  status: ('A' for Active; 'I' for Inactive)
REMARK    1  A    between atoms: C_2  and  C_3 
REMARK    2  A    between atoms: C_3  and  O_6 
REMARK    3  A    between atoms: C_3  and  C_4 
REMARK    4  A    between atoms: C_7  and  O_6 
REMARK    5  A    between atoms: C_9  and  C_10 
REMARK    6  A    between atoms: N_15  and  C_14 
REMARK    7  A    between atoms: N_20  and  C_19 
REMARK       I    between atoms: C_22  and  N_20 
ROOT
ATOM      1  C   LIG d   1       2.941  87.925 115.075  0.00  0.00     0.161 C 
ATOM      2  C   LIG d   1       2.822  89.312 115.264  0.00  0.00     0.016 C 
ATOM      3  C   LIG d   1       3.133  89.961 116.481  0.00  0.00     0.038 C 
ATOM      4  C   LIG d   1       3.733  89.281 117.552  0.00  0.00     0.028 C 
ATOM      5  C   LIG d   1       3.403  87.793 117.585  0.00  0.00    -0.047 C 
ATOM      6  C   LIG d   1       3.699  87.182 116.196  0.00  0.00     0.091 C 
ENDROOT
BRANCH   1   7
ATOM      7  O   LIG d   1       3.549  87.656 113.796  0.00  0.00    -0.368 OA
BRANCH   7   8
ATOM      8  C   LIG d   1       2.754  86.887 112.861  0.00  0.00     0.119 C 
BRANCH   8   9
ATOM      9  C   LIG d   1       3.652  86.553 111.654  0.00  0.00     0.028 C 
ATOM     10  C   LIG d   1       3.654  85.052 111.321  0.00  0.00     0.006 C 
ENDBRANCH   8   9
BRANCH   8  11
ATOM     11  C   LIG d   1       1.602  87.720 112.292  0.00  0.00     0.028 C 
ATOM     12  C   LIG d   1       0.450  86.856 111.754  0.00  0.00     0.006 C 
ENDBRANCH   8  11
ENDBRANCH   7   8
ENDBRANCH   1   7
BRANCH   6  13
ATOM     13  N   LIG d   1       3.324  85.746 116.116  0.00  0.00    -0.311 N 
ATOM     14  C   LIG d   1       4.189  84.751 116.310  0.00  0.00     0.210 C 
ATOM     15  C   LIG d   1       3.600  83.345 116.162  0.00  0.00     0.109 C 
ATOM     16  O   LIG d   1       5.380  84.900 116.622  0.00  0.00    -0.276 OA
ATOM     17  H   LIG d   1       2.370  85.535 115.899  0.00  0.00     0.149 HD
ENDBRANCH   6  13
BRANCH   5  18
ATOM     18  N   LIG d   1       4.201  87.183 118.665  0.00  0.00     0.381 N 
ATOM     19  H   LIG d   1       4.217  86.189 118.555  0.00  0.00    -0.090 HD
ATOM     20  H   LIG d   1       3.770  87.396 119.548  0.00  0.00    -0.090 HD
ATOM     21  H   LIG d   1       5.131  87.542 118.647  0.00  0.00    -0.090 HD
ENDBRANCH   5  18
BRANCH   3  22
ATOM     22  C   LIG d   1       2.807  91.298 116.649  0.00  0.00     0.382 C 
ATOM     23  O   LIG d   1       3.702  92.175 116.583  0.00  0.00    -0.241 OA
ATOM     24  O   LIG d   1       1.637  91.635 116.911  0.00  0.00    -0.241 OA
ENDBRANCH   3  22
TORSDOF 7
ENDMDL
