MODEL 1
REMARK VINA RESULT:      -5.6      0.000      0.000
REMARK  7 active torsions:
REMARK  status: ('A' for Active; 'I' for Inactive)
REMARK    1  A    between atoms: C_2  and  C_3 
REMARK    2  A    between atoms: C_3  and  O_6 
REMARK    3  A    between atoms: C_3  and  C_4 
REMARK    4  A    between atoms: C_7  and  O_6 
REMARK    5  A    between atoms: C_9  and  C_10 
REMARK    6  A    between atoms: N_15  and  C_14 
REMARK    7  A    between atoms: N_20  and  C_19 
REMARK       I    between atoms: C_22  and  N_20 
ROOT
ATOM      1  C   LIG d   1      -3.592  76.518 114.879  0.00  0.00     0.161 C 
ATOM      2  C   LIG d   1      -3.588  77.574 113.953  0.00  0.00     0.016 C 
ATOM      3  C   LIG d   1      -2.438  78.339 113.649  0.00  0.00     0.038 C 
ATOM      4  C   LIG d   1      -1.170  77.999 114.143  0.00  0.00     0.028 C 
ATOM      5  C   LIG d   1      -1.218  77.253 115.472  0.00  0.00    -0.047 C 
ATOM      6  C   LIG d   1      -2.194  76.061 115.345  0.00  0.00     0.091 C 
ENDROOT
BRANCH   1   7
ATOM      7  O   LIG d   1      -4.332  75.403 114.345  0.00  0.00    -0.368 OA
BRANCH   7   8
ATOM      8  C   LIG d   1      -5.688  75.245 114.832  0.00  0.00     0.119 C 
BRANCH   8   9
ATOM      9  C   LIG d   1      -5.788  75.994 116.175  0.00  0.00     0.028 C 
ATOM     10  C   LIG d   1      -7.005  76.932 116.235  0.00  0.00     0.006 C 
ENDBRANCH   8   9
BRANCH   8  11
ATOM     11  C   LIG d   1      -5.996  73.781 115.159  0.00  0.00     0.028 C 
ATOM     12  C   LIG d   1      -6.197  73.537 116.663  0.00  0.00     0.006 C 
ENDBRANCH   8  11
ENDBRANCH   7   8
ENDBRANCH   1   7
BRANCH   6  13
ATOM     13  N   LIG d   1      -2.364  75.328 116.626  0.00  0.00    -0.311 N 
ATOM     14  C   LIG d   1      -1.731  74.191 116.910  0.00  0.00     0.210 C 
ATOM     15  C   LIG d   1      -2.064  73.589 118.279  0.00  0.00     0.109 C 
ATOM     16  O   LIG d   1      -0.901  73.640 116.171  0.00  0.00    -0.276 OA
ATOM     17  H   LIG d   1      -2.995  75.721 117.297  0.00  0.00     0.149 HD
ENDBRANCH   6  13
BRANCH   5  18
ATOM     18  N   LIG d   1       0.160  76.840 115.801  0.00  0.00     0.381 N 
ATOM     19  H   LIG d   1       0.704  77.642 116.048  0.00  0.00    -0.090 HD
ATOM     20  H   LIG d   1       0.574  76.416 114.990  0.00  0.00    -0.090 HD
ATOM     21  H   LIG d   1       0.150  76.191 116.557  0.00  0.00    -0.090 HD
ENDBRANCH   5  18
BRANCH   3  22
ATOM     22  C   LIG d   1      -2.558  79.482 112.873  0.00  0.00     0.382 C 
ATOM     23  O   LIG d   1      -3.213  80.464 113.301  0.00  0.00    -0.241 OA
ATOM     24  O   LIG d   1      -2.058  79.527 111.734  0.00  0.00    -0.241 OA
ENDBRANCH   3  22
TORSDOF 7
ENDMDL
MODEL 2
REMARK VINA RESULT:      -5.5      3.996      6.069
REMARK  7 active torsions:
REMARK  status: ('A' for Active; 'I' for Inactive)
REMARK    1  A    between atoms: C_2  and  C_3 
REMARK    2  A    between atoms: C_3  and  O_6 
REMARK    3  A    between atoms: C_3  and  C_4 
REMARK    4  A    between atoms: C_7  and  O_6 
REMARK    5  A    between atoms: C_9  and  C_10 
REMARK    6  A    between atoms: N_15  and  C_14 
REMARK    7  A    between atoms: N_20  and  C_19 
REMARK       I    between atoms: C_22  and  N_20 
ROOT
ATOM      1  C   LIG d   1      -7.571  75.143 117.876  0.00  0.00     0.161 C 
ATOM      2  C   LIG d   1      -8.776  75.857 117.985  0.00  0.00     0.016 C 
ATOM      3  C   LIG d   1      -8.849  77.269 117.959  0.00  0.00     0.038 C 
ATOM      4  C   LIG d   1      -7.730  78.064 117.668  0.00  0.00     0.028 C 
ATOM      5  C   LIG d   1      -6.407  77.411 118.052  0.00  0.00    -0.047 C 
ATOM      6  C   LIG d   1      -6.354  75.990 117.447  0.00  0.00     0.091 C 
ENDROOT
BRANCH   1   7
ATOM      7  O   LIG d   1      -7.744  74.026 116.982  0.00  0.00    -0.368 OA
BRANCH   7   8
ATOM      8  C   LIG d   1      -8.330  72.833 117.559  0.00  0.00     0.119 C 
BRANCH   8   9
ATOM      9  C   LIG d   1      -7.661  71.618 116.888  0.00  0.00     0.028 C 
ATOM     10  C   LIG d   1      -6.967  71.985 115.566  0.00  0.00     0.006 C 
ENDBRANCH   8   9
BRANCH   8  11
ATOM     11  C   LIG d   1      -9.817  72.720 117.213  0.00  0.00     0.028 C 
ATOM     12  C   LIG d   1     -10.321  71.267 117.217  0.00  0.00     0.006 C 
ENDBRANCH   8  11
ENDBRANCH   7   8
ENDBRANCH   1   7
BRANCH   6  13
ATOM     13  N   LIG d   1      -5.128  75.250 117.845  0.00  0.00    -0.311 N 
ATOM     14  C   LIG d   1      -4.286  74.702 116.970  0.00  0.00     0.210 C 
ATOM     15  C   LIG d   1      -3.095  73.967 117.592  0.00  0.00     0.109 C 
ATOM     16  O   LIG d   1      -4.395  74.783 115.737  0.00  0.00    -0.276 OA
ATOM     17  H   LIG d   1      -4.946  75.163 118.825  0.00  0.00     0.149 HD
ENDBRANCH   6  13
BRANCH   5  18
ATOM     18  N   LIG d   1      -5.321  78.286 117.569  0.00  0.00     0.381 N 
ATOM     19  H   LIG d   1      -5.003  77.968 116.675  0.00  0.00    -0.090 HD
ATOM     20  H   LIG d   1      -4.553  78.237 118.214  0.00  0.00    -0.090 HD
ATOM     21  H   LIG d   1      -5.646  79.225 117.499  0.00  0.00    -0.090 HD
ENDBRANCH   5  18
BRANCH   3  22
ATOM     22  C   LIG d   1     -10.044  77.901 118.265  0.00  0.00     0.382 C 
ATOM     23  O   LIG d   1     -11.046  77.222 118.596  0.00  0.00    -0.241 OA
ATOM     24  O   LIG d   1     -10.147  79.139 118.171  0.00  0.00    -0.241 OA
ENDBRANCH   3  22
TORSDOF 7
ENDMDL
MODEL 3
REMARK VINA RESULT:      -5.1      2.444      4.677
REMARK  7 active torsions:
REMARK  status: ('A' for Active; 'I' for Inactive)
REMARK    1  A    between atoms: C_2  and  C_3 
REMARK    2  A    between atoms: C_3  and  O_6 
REMARK    3  A    between atoms: C_3  and  C_4 
REMARK    4  A    between atoms: C_7  and  O_6 
REMARK    5  A    between atoms: C_9  and  C_10 
REMARK    6  A    between atoms: N_15  and  C_14 
REMARK    7  A    between atoms: N_20  and  C_19 
REMARK       I    between atoms: C_22  and  N_20 
ROOT
ATOM      1  C   LIG d   1      -3.692  75.080 115.706  0.00  0.00     0.161 C 
ATOM      2  C   LIG d   1      -3.028  76.313 115.591  0.00  0.00     0.016 C 
ATOM      3  C   LIG d   1      -3.684  77.562 115.687  0.00  0.00     0.038 C 
ATOM      4  C   LIG d   1      -5.033  77.664 116.059  0.00  0.00     0.028 C 
ATOM      5  C   LIG d   1      -5.858  76.436 115.690  0.00  0.00    -0.047 C 
ATOM      6  C   LIG d   1      -5.143  75.173 116.222  0.00  0.00     0.091 C 
ENDROOT
BRANCH   1   7
ATOM      7  O   LIG d   1      -2.922  74.187 116.534  0.00  0.00    -0.368 OA
BRANCH   7   8
ATOM      8  C   LIG d   1      -2.007  74.812 117.468  0.00  0.00     0.119 C 
BRANCH   8   9
ATOM      9  C   LIG d   1      -0.745  73.930 117.540  0.00  0.00     0.028 C 
ATOM     10  C   LIG d   1      -0.684  73.098 118.832  0.00  0.00     0.006 C 
ENDBRANCH   8   9
BRANCH   8  11
ATOM     11  C   LIG d   1      -2.579  74.818 118.888  0.00  0.00     0.028 C 
ATOM     12  C   LIG d   1      -3.127  76.192 119.305  0.00  0.00     0.006 C 
ENDBRANCH   8  11
ENDBRANCH   7   8
ENDBRANCH   1   7
BRANCH   6  13
ATOM     13  N   LIG d   1      -5.840  73.920 115.831  0.00  0.00    -0.311 N 
ATOM     14  C   LIG d   1      -6.773  73.336 116.581  0.00  0.00     0.210 C 
ATOM     15  C   LIG d   1      -7.351  72.040 116.001  0.00  0.00     0.109 C 
ATOM     16  O   LIG d   1      -7.201  73.784 117.655  0.00  0.00    -0.276 OA
ATOM     17  H   LIG d   1      -5.577  73.505 114.959  0.00  0.00     0.149 HD
ENDBRANCH   6  13
BRANCH   5  18
ATOM     18  N   LIG d   1      -7.207  76.619 116.256  0.00  0.00     0.381 N 
ATOM     19  H   LIG d   1      -7.887  76.200 115.654  0.00  0.00    -0.090 HD
ATOM     20  H   LIG d   1      -7.404  77.602 116.318  0.00  0.00    -0.090 HD
ATOM     21  H   LIG d   1      -7.256  76.205 117.162  0.00  0.00    -0.090 HD
ENDBRANCH   5  18
BRANCH   3  22
ATOM     22  C   LIG d   1      -2.998  78.725 115.372  0.00  0.00     0.382 C 
ATOM     23  O   LIG d   1      -1.934  79.008 115.973  0.00  0.00    -0.241 OA
ATOM     24  O   LIG d   1      -3.453  79.516 114.524  0.00  0.00    -0.241 OA
ENDBRANCH   3  22
TORSDOF 7
ENDMDL
MODEL 4
REMARK VINA RESULT:      -5.1     21.645     24.343
REMARK  7 active torsions:
REMARK  status: ('A' for Active; 'I' for Inactive)
REMARK    1  A    between atoms: C_2  and  C_3 
REMARK    2  A    between atoms: C_3  and  O_6 
REMARK    3  A    between atoms: C_3  and  C_4 
REMARK    4  A    between atoms: C_7  and  O_6 
REMARK    5  A    between atoms: C_9  and  C_10 
REMARK    6  A    between atoms: N_15  and  C_14 
REMARK    7  A    between atoms: N_20  and  C_19 
REMARK       I    between atoms: C_22  and  N_20 
ROOT
ATOM      1  C   LIG d   1     -25.644  85.478 113.417  0.00  0.00     0.161 C 
ATOM      2  C   LIG d   1     -24.596  86.390 113.623  0.00  0.00     0.016 C 
ATOM      3  C   LIG d   1     -23.231  86.023 113.607  0.00  0.00     0.038 C 
ATOM      4  C   LIG d   1     -22.813  84.738 113.232  0.00  0.00     0.028 C 
ATOM      5  C   LIG d   1     -23.853  83.658 113.509  0.00  0.00    -0.047 C 
ATOM      6  C   LIG d   1     -25.204  84.093 112.897  0.00  0.00     0.091 C 
ENDROOT
BRANCH   1   7
ATOM      7  O   LIG d   1     -26.628  86.054 112.536  0.00  0.00    -0.368 OA
BRANCH   7   8
ATOM      8  C   LIG d   1     -27.566  86.976 113.143  0.00  0.00     0.119 C 
BRANCH   8   9
ATOM      9  C   LIG d   1     -28.939  86.278 113.187  0.00  0.00     0.028 C 
ATOM     10  C   LIG d   1     -29.127  85.280 112.032  0.00  0.00     0.006 C 
ENDBRANCH   8   9
BRANCH   8  11
ATOM     11  C   LIG d   1     -27.770  88.219 112.272  0.00  0.00     0.028 C 
ATOM     12  C   LIG d   1     -26.832  88.254 111.055  0.00  0.00     0.006 C 
ENDBRANCH   8  11
ENDBRANCH   7   8
ENDBRANCH   1   7
BRANCH   6  13
ATOM     13  N   LIG d   1     -26.297  83.132 113.195  0.00  0.00    -0.311 N 
ATOM     14  C   LIG d   1     -26.863  82.356 112.272  0.00  0.00     0.210 C 
ATOM     15  C   LIG d   1     -27.987  81.452 112.788  0.00  0.00     0.109 C 
ATOM     16  O   LIG d   1     -26.519  82.307 111.082  0.00  0.00    -0.276 OA
ATOM     17  H   LIG d   1     -26.617  83.084 114.143  0.00  0.00     0.149 HD
ENDBRANCH   6  13
BRANCH   5  18
ATOM     18  N   LIG d   1     -23.344  82.393 112.946  0.00  0.00     0.381 N 
ATOM     19  H   LIG d   1     -23.422  81.663 113.626  0.00  0.00    -0.090 HD
ATOM     20  H   LIG d   1     -22.372  82.507 112.717  0.00  0.00    -0.090 HD
ATOM     21  H   LIG d   1     -23.859  82.152 112.128  0.00  0.00    -0.090 HD
ENDBRANCH   5  18
BRANCH   3  22
ATOM     22  C   LIG d   1     -22.269  86.938 114.008  0.00  0.00     0.382 C 
ATOM     23  O   LIG d   1     -22.596  87.925 114.710  0.00  0.00    -0.241 OA
ATOM     24  O   LIG d   1     -21.085  86.813 113.640  0.00  0.00    -0.241 OA
ENDBRANCH   3  22
TORSDOF 7
ENDMDL
MODEL 5
REMARK VINA RESULT:      -5.0     11.408     13.830
REMARK  7 active torsions:
REMARK  status: ('A' for Active; 'I' for Inactive)
REMARK    1  A    between atoms: C_2  and  C_3 
REMARK    2  A    between atoms: C_3  and  O_6 
REMARK    3  A    between atoms: C_3  and  C_4 
REMARK    4  A    between atoms: C_7  and  O_6 
REMARK    5  A    between atoms: C_9  and  C_10 
REMARK    6  A    between atoms: N_15  and  C_14 
REMARK    7  A    between atoms: N_20  and  C_19 
REMARK       I    between atoms: C_22  and  N_20 
ROOT
ATOM      1  C   LIG d   1       3.317  87.963 115.191  0.00  0.00     0.161 C 
ATOM      2  C   LIG d   1       3.411  89.162 115.916  0.00  0.00     0.016 C 
ATOM      3  C   LIG d   1       4.468  90.088 115.755  0.00  0.00     0.038 C 
ATOM      4  C   LIG d   1       5.428  89.947 114.742  0.00  0.00     0.028 C 
ATOM      5  C   LIG d   1       5.659  88.499 114.323  0.00  0.00    -0.047 C 
ATOM      6  C   LIG d   1       4.295  87.846 114.004  0.00  0.00     0.091 C 
ENDROOT
BRANCH   1   7
ATOM      7  O   LIG d   1       1.960  87.768 114.744  0.00  0.00    -0.368 OA
BRANCH   7   8
ATOM      8  C   LIG d   1       1.234  86.680 115.367  0.00  0.00     0.119 C 
BRANCH   8   9
ATOM      9  C   LIG d   1       0.311  86.066 114.296  0.00  0.00     0.028 C 
ATOM     10  C   LIG d   1       0.875  86.226 112.874  0.00  0.00     0.006 C 
ENDBRANCH   8   9
BRANCH   8  11
ATOM     11  C   LIG d   1       0.297  87.193 116.465  0.00  0.00     0.028 C 
ATOM     12  C   LIG d   1       0.703  86.713 117.867  0.00  0.00     0.006 C 
ENDBRANCH   8  11
ENDBRANCH   7   8
ENDBRANCH   1   7
BRANCH   6  13
ATOM     13  N   LIG d   1       4.422  86.404 113.666  0.00  0.00    -0.311 N 
ATOM     14  C   LIG d   1       4.582  85.954 112.423  0.00  0.00     0.210 C 
ATOM     15  C   LIG d   1       4.672  84.430 112.294  0.00  0.00     0.109 C 
ATOM     16  O   LIG d   1       4.690  86.673 111.418  0.00  0.00    -0.276 OA
ATOM     17  H   LIG d   1       4.377  85.752 114.425  0.00  0.00     0.149 HD
ENDBRANCH   6  13
BRANCH   5  18
ATOM     18  N   LIG d   1       6.579  88.510 113.170  0.00  0.00     0.381 N 
ATOM     19  H   LIG d   1       7.453  88.917 113.437  0.00  0.00    -0.090 HD
ATOM     20  H   LIG d   1       6.179  89.074 112.440  0.00  0.00    -0.090 HD
ATOM     21  H   LIG d   1       6.724  87.581 112.840  0.00  0.00    -0.090 HD
ENDBRANCH   5  18
BRANCH   3  22
ATOM     22  C   LIG d   1       4.593  91.148 116.639  0.00  0.00     0.382 C 
ATOM     23  O   LIG d   1       5.501  91.138 117.505  0.00  0.00    -0.241 OA
ATOM     24  O   LIG d   1       3.783  92.094 116.611  0.00  0.00    -0.241 OA
ENDBRANCH   3  22
TORSDOF 7
ENDMDL
MODEL 6
REMARK VINA RESULT:      -5.0     11.032     13.729
REMARK  7 active torsions:
REMARK  status: ('A' for Active; 'I' for Inactive)
REMARK    1  A    between atoms: C_2  and  C_3 
REMARK    2  A    between atoms: C_3  and  O_6 
REMARK    3  A    between atoms: C_3  and  C_4 
REMARK    4  A    between atoms: C_7  and  O_6 
REMARK    5  A    between atoms: C_9  and  C_10 
REMARK    6  A    between atoms: N_15  and  C_14 
REMARK    7  A    between atoms: N_20  and  C_19 
REMARK       I    between atoms: C_22  and  N_20 
ROOT
ATOM      1  C   LIG d   1       3.178  87.936 115.094  0.00  0.00     0.161 C 
ATOM      2  C   LIG d   1       3.129  89.060 115.935  0.00  0.00     0.016 C 
ATOM      3  C   LIG d   1       4.047  90.131 115.857  0.00  0.00     0.038 C 
ATOM      4  C   LIG d   1       4.994  90.223 114.826  0.00  0.00     0.028 C 
ATOM      5  C   LIG d   1       5.407  88.868 114.260  0.00  0.00    -0.047 C 
ATOM      6  C   LIG d   1       4.135  88.070 113.891  0.00  0.00     0.091 C 
ENDROOT
BRANCH   1   7
ATOM      7  O   LIG d   1       1.850  87.603 114.643  0.00  0.00    -0.368 OA
BRANCH   7   8
ATOM      8  C   LIG d   1       1.203  86.501 115.325  0.00  0.00     0.119 C 
BRANCH   8   9
ATOM      9  C   LIG d   1       0.406  87.090 116.505  0.00  0.00     0.028 C 
ATOM     10  C   LIG d   1       0.931  86.607 117.867  0.00  0.00     0.006 C 
ENDBRANCH   8   9
BRANCH   8  11
ATOM     11  C   LIG d   1       2.230  85.558 115.960  0.00  0.00     0.028 C 
ATOM     12  C   LIG d   1       2.274  84.181 115.280  0.00  0.00     0.006 C 
ENDBRANCH   8  11
ENDBRANCH   7   8
ENDBRANCH   1   7
BRANCH   6  13
ATOM     13  N   LIG d   1       4.447  86.700 113.408  0.00  0.00    -0.311 N 
ATOM     14  C   LIG d   1       3.928  86.178 112.298  0.00  0.00     0.210 C 
ATOM     15  C   LIG d   1       4.365  84.742 111.993  0.00  0.00     0.109 C 
ATOM     16  O   LIG d   1       3.172  86.779 111.521  0.00  0.00    -0.276 OA
ATOM     17  H   LIG d   1       5.076  86.153 113.963  0.00  0.00     0.149 HD
ENDBRANCH   6  13
BRANCH   5  18
ATOM     18  N   LIG d   1       6.289  89.118 113.105  0.00  0.00     0.381 N 
ATOM     19  H   LIG d   1       6.721  88.263 112.818  0.00  0.00    -0.090 HD
ATOM     20  H   LIG d   1       7.011  89.760 113.380  0.00  0.00    -0.090 HD
ATOM     21  H   LIG d   1       5.763  89.502 112.351  0.00  0.00    -0.090 HD
ENDBRANCH   5  18
BRANCH   3  22
ATOM     22  C   LIG d   1       4.051  91.107 116.843  0.00  0.00     0.382 C 
ATOM     23  O   LIG d   1       4.665  90.909 117.919  0.00  0.00    -0.241 OA
ATOM     24  O   LIG d   1       3.410  92.164 116.688  0.00  0.00    -0.241 OA
ENDBRANCH   3  22
TORSDOF 7
ENDMDL
MODEL 7
REMARK VINA RESULT:      -5.0      9.802     12.559
REMARK  7 active torsions:
REMARK  status: ('A' for Active; 'I' for Inactive)
REMARK    1  A    between atoms: C_2  and  C_3 
REMARK    2  A    between atoms: C_3  and  O_6 
REMARK    3  A    between atoms: C_3  and  C_4 
REMARK    4  A    between atoms: C_7  and  O_6 
REMARK    5  A    between atoms: C_9  and  C_10 
REMARK    6  A    between atoms: N_15  and  C_14 
REMARK    7  A    between atoms: N_20  and  C_19 
REMARK       I    between atoms: C_22  and  N_20 
ROOT
ATOM      1  C   LIG d   1       2.625  86.794 114.508  0.00  0.00     0.161 C 
ATOM      2  C   LIG d   1       3.053  88.097 114.202  0.00  0.00     0.016 C 
ATOM      3  C   LIG d   1       4.345  88.583 114.506  0.00  0.00     0.038 C 
ATOM      4  C   LIG d   1       5.354  87.745 115.004  0.00  0.00     0.028 C 
ATOM      5  C   LIG d   1       4.819  86.556 115.795  0.00  0.00    -0.047 C 
ATOM      6  C   LIG d   1       3.747  85.832 114.949  0.00  0.00     0.091 C 
ENDROOT
BRANCH   1   7
ATOM      7  O   LIG d   1       1.903  86.242 113.389  0.00  0.00    -0.368 OA
BRANCH   7   8
ATOM      8  C   LIG d   1       2.233  86.785 112.087  0.00  0.00     0.119 C 
BRANCH   8   9
ATOM      9  C   LIG d   1       0.913  86.963 111.311  0.00  0.00     0.028 C 
ATOM     10  C   LIG d   1      -0.269  86.256 111.995  0.00  0.00     0.006 C 
ENDBRANCH   8   9
BRANCH   8  11
ATOM     11  C   LIG d   1       3.057  85.792 111.262  0.00  0.00     0.028 C 
ATOM     12  C   LIG d   1       4.572  85.974 111.450  0.00  0.00     0.006 C 
ENDBRANCH   8  11
ENDBRANCH   7   8
ENDBRANCH   1   7
BRANCH   6  13
ATOM     13  N   LIG d   1       3.111  84.707 115.683  0.00  0.00    -0.311 N 
ATOM     14  C   LIG d   1       3.511  83.441 115.573  0.00  0.00     0.210 C 
ATOM     15  C   LIG d   1       2.706  82.434 116.401  0.00  0.00     0.109 C 
ATOM     16  O   LIG d   1       4.476  83.060 114.893  0.00  0.00    -0.276 OA
ATOM     17  H   LIG d   1       2.340  84.930 116.282  0.00  0.00     0.149 HD
ENDBRANCH   6  13
BRANCH   5  18
ATOM     18  N   LIG d   1       5.966  85.694 116.136  0.00  0.00     0.381 N 
ATOM     19  H   LIG d   1       6.221  85.140 115.343  0.00  0.00    -0.090 HD
ATOM     20  H   LIG d   1       5.698  85.075 116.880  0.00  0.00    -0.090 HD
ATOM     21  H   LIG d   1       6.740  86.254 116.422  0.00  0.00    -0.090 HD
ENDBRANCH   5  18
BRANCH   3  22
ATOM     22  C   LIG d   1       4.627  89.931 114.349  0.00  0.00     0.382 C 
ATOM     23  O   LIG d   1       4.955  90.623 115.343  0.00  0.00    -0.241 OA
ATOM     24  O   LIG d   1       4.514  90.475 113.234  0.00  0.00    -0.241 OA
ENDBRANCH   3  22
TORSDOF 7
ENDMDL
MODEL 8
REMARK VINA RESULT:      -4.8      8.485     11.454
REMARK  7 active torsions:
REMARK  status: ('A' for Active; 'I' for Inactive)
REMARK    1  A    between atoms: C_2  and  C_3 
REMARK    2  A    between atoms: C_3  and  O_6 
REMARK    3  A    between atoms: C_3  and  C_4 
REMARK    4  A    between atoms: C_7  and  O_6 
REMARK    5  A    between atoms: C_9  and  C_10 
REMARK    6  A    between atoms: N_15  and  C_14 
REMARK    7  A    between atoms: N_20  and  C_19 
REMARK       I    between atoms: C_22  and  N_20 
ROOT
ATOM      1  C   LIG d   1       3.998  84.711 112.652  0.00  0.00     0.161 C 
ATOM      2  C   LIG d   1       4.449  86.005 112.961  0.00  0.00     0.016 C 
ATOM      3  C   LIG d   1       3.610  87.142 112.960  0.00  0.00     0.038 C 
ATOM      4  C   LIG d   1       2.220  87.038 112.796  0.00  0.00     0.028 C 
ATOM      5  C   LIG d   1       1.796  85.820 111.983  0.00  0.00    -0.047 C 
ATOM      6  C   LIG d   1       2.464  84.560 112.580  0.00  0.00     0.091 C 
ENDROOT
BRANCH   1   7
ATOM      7  O   LIG d   1       4.551  83.764 113.588  0.00  0.00    -0.368 OA
BRANCH   7   8
ATOM      8  C   LIG d   1       4.009  83.806 114.931  0.00  0.00     0.119 C 
BRANCH   8   9
ATOM      9  C   LIG d   1       5.199  83.860 115.909  0.00  0.00     0.028 C 
ATOM     10  C   LIG d   1       5.552  85.298 116.325  0.00  0.00     0.006 C 
ENDBRANCH   8   9
BRANCH   8  11
ATOM     11  C   LIG d   1       3.263  82.512 115.272  0.00  0.00     0.028 C 
ATOM     12  C   LIG d   1       2.036  82.750 116.167  0.00  0.00     0.006 C 
ENDBRANCH   8  11
ENDBRANCH   7   8
ENDBRANCH   1   7
BRANCH   6  13
ATOM     13  N   LIG d   1       2.169  83.335 111.792  0.00  0.00    -0.311 N 
ATOM     14  C   LIG d   1       1.185  82.490 112.093  0.00  0.00     0.210 C 
ATOM     15  C   LIG d   1       1.066  81.278 111.162  0.00  0.00     0.109 C 
ATOM     16  O   LIG d   1       0.379  82.645 113.022  0.00  0.00    -0.276 OA
ATOM     17  H   LIG d   1       2.755  83.149 111.002  0.00  0.00     0.149 HD
ENDBRANCH   6  13
BRANCH   5  18
ATOM     18  N   LIG d   1       0.322  85.759 112.007  0.00  0.00     0.381 N 
ATOM     19  H   LIG d   1       0.023  85.052 112.648  0.00  0.00    -0.090 HD
ATOM     20  H   LIG d   1      -0.008  85.514 111.090  0.00  0.00    -0.090 HD
ATOM     21  H   LIG d   1      -0.051  86.642 112.277  0.00  0.00    -0.090 HD
ENDBRANCH   5  18
BRANCH   3  22
ATOM     22  C   LIG d   1       4.165  88.407 113.086  0.00  0.00     0.382 C 
ATOM     23  O   LIG d   1       5.406  88.559 112.983  0.00  0.00    -0.241 OA
ATOM     24  O   LIG d   1       3.446  89.390 113.344  0.00  0.00    -0.241 OA
ENDBRANCH   3  22
TORSDOF 7
ENDMDL
MODEL 9
REMARK VINA RESULT:      -4.8     10.996     13.422
REMARK  7 active torsions:
REMARK  status: ('A' for Active; 'I' for Inactive)
REMARK    1  A    between atoms: C_2  and  C_3 
REMARK    2  A    between atoms: C_3  and  O_6 
REMARK    3  A    between atoms: C_3  and  C_4 
REMARK    4  A    between atoms: C_7  and  O_6 
REMARK    5  A    between atoms: C_9  and  C_10 
REMARK    6  A    between atoms: N_15  and  C_14 
REMARK    7  A    between atoms: N_20  and  C_19 
REMARK       I    between atoms: C_22  and  N_20 
ROOT
ATOM      1  C   LIG d   1       3.405  87.644 115.057  0.00  0.00     0.161 C 
ATOM      2  C   LIG d   1       2.738  87.047 113.975  0.00  0.00     0.016 C 
ATOM      3  C   LIG d   1       3.326  86.867 112.701  0.00  0.00     0.038 C 
ATOM      4  C   LIG d   1       4.682  87.139 112.466  0.00  0.00     0.028 C 
ATOM      5  C   LIG d   1       5.254  88.211 113.387  0.00  0.00    -0.047 C 
ATOM      6  C   LIG d   1       4.921  87.845 114.851  0.00  0.00     0.091 C 
ENDROOT
BRANCH   1   7
ATOM      7  O   LIG d   1       3.159  86.889 116.260  0.00  0.00    -0.368 OA
BRANCH   7   8
ATOM      8  C   LIG d   1       2.786  85.501 116.076  0.00  0.00     0.119 C 
BRANCH   8   9
ATOM      9  C   LIG d   1       1.686  85.177 117.106  0.00  0.00     0.028 C 
ATOM     10  C   LIG d   1       2.084  84.030 118.049  0.00  0.00     0.006 C 
ENDBRANCH   8   9
BRANCH   8  11
ATOM     11  C   LIG d   1       3.947  84.562 116.415  0.00  0.00     0.028 C 
ATOM     12  C   LIG d   1       4.709  84.083 115.169  0.00  0.00     0.006 C 
ENDBRANCH   8  11
ENDBRANCH   7   8
ENDBRANCH   1   7
BRANCH   6  13
ATOM     13  N   LIG d   1       5.372  88.885 115.812  0.00  0.00    -0.311 N 
ATOM     14  C   LIG d   1       4.976  90.156 115.756  0.00  0.00     0.210 C 
ATOM     15  C   LIG d   1       5.576  91.068 116.830  0.00  0.00     0.109 C 
ATOM     16  O   LIG d   1       4.161  90.607 114.938  0.00  0.00    -0.276 OA
ATOM     17  H   LIG d   1       6.011  88.599 116.528  0.00  0.00     0.149 HD
ENDBRANCH   6  13
BRANCH   5  18
ATOM     18  N   LIG d   1       6.703  88.295 113.127  0.00  0.00     0.381 N 
ATOM     19  H   LIG d   1       7.016  87.458 112.675  0.00  0.00    -0.090 HD
ATOM     20  H   LIG d   1       7.187  88.379 114.003  0.00  0.00    -0.090 HD
ATOM     21  H   LIG d   1       6.902  89.085 112.552  0.00  0.00    -0.090 HD
ENDBRANCH   5  18
BRANCH   3  22
ATOM     22  C   LIG d   1       2.543  86.449 111.636  0.00  0.00     0.382 C 
ATOM     23  O   LIG d   1       2.627  85.268 111.222  0.00  0.00    -0.241 OA
ATOM     24  O   LIG d   1       1.786  87.250 111.055  0.00  0.00    -0.241 OA
ENDBRANCH   3  22
TORSDOF 7
ENDMDL
