MODEL 1
REMARK VINA RESULT:      -5.8      0.000      0.000
REMARK  7 active torsions:
REMARK  status: ('A' for Active; 'I' for Inactive)
REMARK    1  A    between atoms: C_2  and  C_3 
REMARK    2  A    between atoms: C_3  and  O_6 
REMARK    3  A    between atoms: C_3  and  C_4 
REMARK    4  A    between atoms: C_7  and  O_6 
REMARK    5  A    between atoms: C_9  and  C_10 
REMARK    6  A    between atoms: N_15  and  C_14 
REMARK    7  A    between atoms: N_20  and  C_19 
REMARK       I    between atoms: C_22  and  N_20 
ROOT
ATOM      1  C   LIG d   1      -3.176  76.116 114.880  0.00  0.00     0.161 C 
ATOM      2  C   LIG d   1      -3.250  77.075 113.856  0.00  0.00     0.016 C 
ATOM      3  C   LIG d   1      -2.142  77.838 113.423  0.00  0.00     0.038 C 
ATOM      4  C   LIG d   1      -0.842  77.586 113.885  0.00  0.00     0.028 C 
ATOM      5  C   LIG d   1      -0.804  76.975 115.282  0.00  0.00    -0.047 C 
ATOM      6  C   LIG d   1      -1.744  75.748 115.319  0.00  0.00     0.091 C 
ENDROOT
BRANCH   1   7
ATOM      7  O   LIG d   1      -3.902  74.932 114.494  0.00  0.00    -0.368 OA
BRANCH   7   8
ATOM      8  C   LIG d   1      -5.277  74.852 114.944  0.00  0.00     0.119 C 
BRANCH   8   9
ATOM      9  C   LIG d   1      -5.398  75.710 116.218  0.00  0.00     0.028 C 
ATOM     10  C   LIG d   1      -6.372  76.887 116.043  0.00  0.00     0.006 C 
ENDBRANCH   8   9
BRANCH   8  11
ATOM     11  C   LIG d   1      -5.640  73.429 115.377  0.00  0.00     0.028 C 
ATOM     12  C   LIG d   1      -6.770  73.392 116.418  0.00  0.00     0.006 C 
ENDBRANCH   8  11
ENDBRANCH   7   8
ENDBRANCH   1   7
BRANCH   6  13
ATOM     13  N   LIG d   1      -1.830  75.141 116.673  0.00  0.00    -0.311 N 
ATOM     14  C   LIG d   1      -1.089  74.104 117.060  0.00  0.00     0.210 C 
ATOM     15  C   LIG d   1      -1.350  73.621 118.490  0.00  0.00     0.109 C 
ATOM     16  O   LIG d   1      -0.218  73.559 116.366  0.00  0.00    -0.276 OA
ATOM     17  H   LIG d   1      -2.490  75.541 117.311  0.00  0.00     0.149 HD
ENDBRANCH   6  13
BRANCH   5  18
ATOM     18  N   LIG d   1       0.600  76.636 115.582  0.00  0.00     0.381 N 
ATOM     19  H   LIG d   1       0.788  75.693 115.305  0.00  0.00    -0.090 HD
ATOM     20  H   LIG d   1       0.748  76.709 116.574  0.00  0.00    -0.090 HD
ATOM     21  H   LIG d   1       1.212  77.259 115.102  0.00  0.00    -0.090 HD
ENDBRANCH   5  18
BRANCH   3  22
ATOM     22  C   LIG d   1      -2.335  78.895 112.547  0.00  0.00     0.382 C 
ATOM     23  O   LIG d   1      -2.740  80.002 112.978  0.00  0.00    -0.241 OA
ATOM     24  O   LIG d   1      -2.153  78.743 111.324  0.00  0.00    -0.241 OA
ENDBRANCH   3  22
TORSDOF 7
ENDMDL
MODEL 2
REMARK VINA RESULT:      -5.6     10.830     13.048
REMARK  7 active torsions:
REMARK  status: ('A' for Active; 'I' for Inactive)
REMARK    1  A    between atoms: C_2  and  C_3 
REMARK    2  A    between atoms: C_3  and  O_6 
REMARK    3  A    between atoms: C_3  and  C_4 
REMARK    4  A    between atoms: C_7  and  O_6 
REMARK    5  A    between atoms: C_9  and  C_10 
REMARK    6  A    between atoms: N_15  and  C_14 
REMARK    7  A    between atoms: N_20  and  C_19 
REMARK       I    between atoms: C_22  and  N_20 
ROOT
ATOM      1  C   LIG d   1       3.445  87.124 115.296  0.00  0.00     0.161 C 
ATOM      2  C   LIG d   1       2.649  86.845 114.172  0.00  0.00     0.016 C 
ATOM      3  C   LIG d   1       3.056  87.113 112.845  0.00  0.00     0.038 C 
ATOM      4  C   LIG d   1       4.356  87.542 112.540  0.00  0.00     0.028 C 
ATOM      5  C   LIG d   1       5.020  88.315 113.674  0.00  0.00    -0.047 C 
ATOM      6  C   LIG d   1       4.910  87.489 114.976  0.00  0.00     0.091 C 
ENDROOT
BRANCH   1   7
ATOM      7  O   LIG d   1       3.395  86.017 116.218  0.00  0.00    -0.368 OA
BRANCH   7   8
ATOM      8  C   LIG d   1       3.079  84.724 115.645  0.00  0.00     0.119 C 
BRANCH   8   9
ATOM      9  C   LIG d   1       2.080  84.030 116.591  0.00  0.00     0.028 C 
ATOM     10  C   LIG d   1       1.488  84.996 117.630  0.00  0.00     0.006 C 
ENDBRANCH   8   9
BRANCH   8  11
ATOM     11  C   LIG d   1       4.309  83.813 115.614  0.00  0.00     0.028 C 
ATOM     12  C   LIG d   1       5.368  84.206 116.657  0.00  0.00     0.006 C 
ENDBRANCH   8  11
ENDBRANCH   7   8
ENDBRANCH   1   7
BRANCH   6  13
ATOM     13  N   LIG d   1       5.461  88.210 116.153  0.00  0.00    -0.311 N 
ATOM     14  C   LIG d   1       6.690  88.011 116.626  0.00  0.00     0.210 C 
ATOM     15  C   LIG d   1       7.052  88.843 117.860  0.00  0.00     0.109 C 
ATOM     16  O   LIG d   1       7.527  87.247 116.120  0.00  0.00    -0.276 OA
ATOM     17  H   LIG d   1       4.860  88.871 116.605  0.00  0.00     0.149 HD
ENDBRANCH   6  13
BRANCH   5  18
ATOM     18  N   LIG d   1       6.415  88.581 113.275  0.00  0.00     0.381 N 
ATOM     19  H   LIG d   1       6.986  88.689 114.089  0.00  0.00    -0.090 HD
ATOM     20  H   LIG d   1       6.446  89.439 112.753  0.00  0.00    -0.090 HD
ATOM     21  H   LIG d   1       6.759  87.832 112.716  0.00  0.00    -0.090 HD
ENDBRANCH   5  18
BRANCH   3  22
ATOM     22  C   LIG d   1       2.142  86.990 111.809  0.00  0.00     0.382 C 
ATOM     23  O   LIG d   1       1.323  87.913 111.582  0.00  0.00    -0.241 OA
ATOM     24  O   LIG d   1       2.098  85.949 111.126  0.00  0.00    -0.241 OA
ENDBRANCH   3  22
TORSDOF 7
ENDMDL
MODEL 3
REMARK VINA RESULT:      -5.6      7.017      9.909
REMARK  7 active torsions:
REMARK  status: ('A' for Active; 'I' for Inactive)
REMARK    1  A    between atoms: C_2  and  C_3 
REMARK    2  A    between atoms: C_3  and  O_6 
REMARK    3  A    between atoms: C_3  and  C_4 
REMARK    4  A    between atoms: C_7  and  O_6 
REMARK    5  A    between atoms: C_9  and  C_10 
REMARK    6  A    between atoms: N_15  and  C_14 
REMARK    7  A    between atoms: N_20  and  C_19 
REMARK       I    between atoms: C_22  and  N_20 
ROOT
ATOM      1  C   LIG d   1       2.978  83.199 112.002  0.00  0.00     0.161 C 
ATOM      2  C   LIG d   1       3.425  84.528 112.079  0.00  0.00     0.016 C 
ATOM      3  C   LIG d   1       2.591  85.645 111.839  0.00  0.00     0.038 C 
ATOM      4  C   LIG d   1       1.207  85.510 111.653  0.00  0.00     0.028 C 
ATOM      5  C   LIG d   1       0.803  84.161 111.067  0.00  0.00    -0.047 C 
ATOM      6  C   LIG d   1       1.446  83.035 111.909  0.00  0.00     0.091 C 
ENDROOT
BRANCH   1   7
ATOM      7  O   LIG d   1       3.496  82.444 113.116  0.00  0.00    -0.368 OA
BRANCH   7   8
ATOM      8  C   LIG d   1       2.594  82.257 114.234  0.00  0.00     0.119 C 
BRANCH   8   9
ATOM      9  C   LIG d   1       3.141  83.085 115.413  0.00  0.00     0.028 C 
ATOM     10  C   LIG d   1       2.309  84.351 115.677  0.00  0.00     0.006 C 
ENDBRANCH   8   9
BRANCH   8  11
ATOM     11  C   LIG d   1       2.601  80.805 114.720  0.00  0.00     0.028 C 
ATOM     12  C   LIG d   1       3.130  80.660 116.155  0.00  0.00     0.006 C 
ENDBRANCH   8  11
ENDBRANCH   7   8
ENDBRANCH   1   7
BRANCH   6  13
ATOM     13  N   LIG d   1       1.171  81.684 111.355  0.00  0.00    -0.311 N 
ATOM     14  C   LIG d   1       0.177  80.907 111.779  0.00  0.00     0.210 C 
ATOM     15  C   LIG d   1       0.081  79.543 111.087  0.00  0.00     0.109 C 
ATOM     16  O   LIG d   1      -0.655  81.229 112.641  0.00  0.00    -0.276 OA
ATOM     17  H   LIG d   1       1.779  81.356 110.630  0.00  0.00     0.149 HD
ENDBRANCH   6  13
BRANCH   5  18
ATOM     18  N   LIG d   1      -0.671  84.103 111.055  0.00  0.00     0.381 N 
ATOM     19  H   LIG d   1      -0.997  83.615 111.865  0.00  0.00    -0.090 HD
ATOM     20  H   LIG d   1      -0.970  83.598 110.240  0.00  0.00    -0.090 HD
ATOM     21  H   LIG d   1      -1.048  85.025 111.040  0.00  0.00    -0.090 HD
ENDBRANCH   5  18
BRANCH   3  22
ATOM     22  C   LIG d   1       3.148  86.911 111.744  0.00  0.00     0.382 C 
ATOM     23  O   LIG d   1       2.404  87.918 111.655  0.00  0.00    -0.241 OA
ATOM     24  O   LIG d   1       4.384  87.056 111.702  0.00  0.00    -0.241 OA
ENDBRANCH   3  22
TORSDOF 7
ENDMDL
MODEL 4
REMARK VINA RESULT:      -5.5     10.927     13.291
REMARK  7 active torsions:
REMARK  status: ('A' for Active; 'I' for Inactive)
REMARK    1  A    between atoms: C_2  and  C_3 
REMARK    2  A    between atoms: C_3  and  O_6 
REMARK    3  A    between atoms: C_3  and  C_4 
REMARK    4  A    between atoms: C_7  and  O_6 
REMARK    5  A    between atoms: C_9  and  C_10 
REMARK    6  A    between atoms: N_15  and  C_14 
REMARK    7  A    between atoms: N_20  and  C_19 
REMARK       I    between atoms: C_22  and  N_20 
ROOT
ATOM      1  C   LIG d   1       3.397  87.256 115.317  0.00  0.00     0.161 C 
ATOM      2  C   LIG d   1       2.645  86.912 114.181  0.00  0.00     0.016 C 
ATOM      3  C   LIG d   1       3.104  87.101 112.858  0.00  0.00     0.038 C 
ATOM      4  C   LIG d   1       4.417  87.510 112.580  0.00  0.00     0.028 C 
ATOM      5  C   LIG d   1       5.039  88.348 113.692  0.00  0.00    -0.047 C 
ATOM      6  C   LIG d   1       4.874  87.600 115.035  0.00  0.00     0.091 C 
ENDROOT
BRANCH   1   7
ATOM      7  O   LIG d   1       3.306  86.205 116.300  0.00  0.00    -0.368 OA
BRANCH   7   8
ATOM      8  C   LIG d   1       2.563  86.521 117.503  0.00  0.00     0.119 C 
BRANCH   8   9
ATOM      9  C   LIG d   1       1.458  85.459 117.657  0.00  0.00     0.028 C 
ATOM     10  C   LIG d   1       1.836  84.119 117.003  0.00  0.00     0.006 C 
ENDBRANCH   8   9
BRANCH   8  11
ATOM     11  C   LIG d   1       1.827  87.857 117.370  0.00  0.00     0.028 C 
ATOM     12  C   LIG d   1       0.300  87.708 117.469  0.00  0.00     0.006 C 
ENDBRANCH   8  11
ENDBRANCH   7   8
ENDBRANCH   1   7
BRANCH   6  13
ATOM     13  N   LIG d   1       5.380  88.389 116.189  0.00  0.00    -0.311 N 
ATOM     14  C   LIG d   1       6.595  88.226 116.711  0.00  0.00     0.210 C 
ATOM     15  C   LIG d   1       6.909  89.127 117.910  0.00  0.00     0.109 C 
ATOM     16  O   LIG d   1       7.453  87.443 116.276  0.00  0.00    -0.276 OA
ATOM     17  H   LIG d   1       4.760  89.068 116.584  0.00  0.00     0.149 HD
ENDBRANCH   6  13
BRANCH   5  18
ATOM     18  N   LIG d   1       6.449  88.589 113.334  0.00  0.00     0.381 N 
ATOM     19  H   LIG d   1       6.574  89.547 113.075  0.00  0.00    -0.090 HD
ATOM     20  H   LIG d   1       6.686  88.015 112.543  0.00  0.00    -0.090 HD
ATOM     21  H   LIG d   1       7.040  88.365 114.104  0.00  0.00    -0.090 HD
ENDBRANCH   5  18
BRANCH   3  22
ATOM     22  C   LIG d   1       2.233  86.918 111.795  0.00  0.00     0.382 C 
ATOM     23  O   LIG d   1       1.833  87.906 111.135  0.00  0.00    -0.241 OA
ATOM     24  O   LIG d   1       1.806  85.781 111.516  0.00  0.00    -0.241 OA
ENDBRANCH   3  22
TORSDOF 7
ENDMDL
MODEL 5
REMARK VINA RESULT:      -5.5      3.357      5.289
REMARK  7 active torsions:
REMARK  status: ('A' for Active; 'I' for Inactive)
REMARK    1  A    between atoms: C_2  and  C_3 
REMARK    2  A    between atoms: C_3  and  O_6 
REMARK    3  A    between atoms: C_3  and  C_4 
REMARK    4  A    between atoms: C_7  and  O_6 
REMARK    5  A    between atoms: C_9  and  C_10 
REMARK    6  A    between atoms: N_15  and  C_14 
REMARK    7  A    between atoms: N_20  and  C_19 
REMARK       I    between atoms: C_22  and  N_20 
ROOT
ATOM      1  C   LIG d   1      -6.625  76.140 117.415  0.00  0.00     0.161 C 
ATOM      2  C   LIG d   1      -7.693  77.020 117.656  0.00  0.00     0.016 C 
ATOM      3  C   LIG d   1      -7.558  78.428 117.647  0.00  0.00     0.038 C 
ATOM      4  C   LIG d   1      -6.370  79.056 117.244  0.00  0.00     0.028 C 
ATOM      5  C   LIG d   1      -5.126  78.208 117.482  0.00  0.00    -0.047 C 
ATOM      6  C   LIG d   1      -5.347  76.808 116.865  0.00  0.00     0.091 C 
ENDROOT
BRANCH   1   7
ATOM      7  O   LIG d   1      -7.054  75.080 116.537  0.00  0.00    -0.368 OA
BRANCH   7   8
ATOM      8  C   LIG d   1      -7.346  73.809 117.168  0.00  0.00     0.119 C 
BRANCH   8   9
ATOM      9  C   LIG d   1      -6.686  72.707 116.316  0.00  0.00     0.028 C 
ATOM     10  C   LIG d   1      -5.706  73.277 115.277  0.00  0.00     0.006 C 
ENDBRANCH   8   9
BRANCH   8  11
ATOM     11  C   LIG d   1      -8.846  73.503 117.135  0.00  0.00     0.028 C 
ATOM     12  C   LIG d   1      -9.145  72.004 116.971  0.00  0.00     0.006 C 
ENDBRANCH   8  11
ENDBRANCH   7   8
ENDBRANCH   1   7
BRANCH   6  13
ATOM     13  N   LIG d   1      -4.210  75.887 117.126  0.00  0.00    -0.311 N 
ATOM     14  C   LIG d   1      -3.211  75.694 116.267  0.00  0.00     0.210 C 
ATOM     15  C   LIG d   1      -2.151  74.687 116.724  0.00  0.00     0.109 C 
ATOM     16  O   LIG d   1      -3.086  76.285 115.184  0.00  0.00    -0.276 OA
ATOM     17  H   LIG d   1      -4.216  75.390 117.995  0.00  0.00     0.149 HD
ENDBRANCH   6  13
BRANCH   5  18
ATOM     18  N   LIG d   1      -3.979  78.924 116.893  0.00  0.00     0.381 N 
ATOM     19  H   LIG d   1      -3.239  78.279 116.700  0.00  0.00    -0.090 HD
ATOM     20  H   LIG d   1      -3.642  79.601 117.556  0.00  0.00    -0.090 HD
ATOM     21  H   LIG d   1      -4.257  79.382 116.053  0.00  0.00    -0.090 HD
ENDBRANCH   5  18
BRANCH   3  22
ATOM     22  C   LIG d   1      -8.609  79.222 118.082  0.00  0.00     0.382 C 
ATOM     23  O   LIG d   1      -9.774  78.758 118.112  0.00  0.00    -0.241 OA
ATOM     24  O   LIG d   1      -8.413  80.409 118.402  0.00  0.00    -0.241 OA
ENDBRANCH   3  22
TORSDOF 7
ENDMDL
MODEL 6
REMARK VINA RESULT:      -5.3      2.365      3.267
REMARK  7 active torsions:
REMARK  status: ('A' for Active; 'I' for Inactive)
REMARK    1  A    between atoms: C_2  and  C_3 
REMARK    2  A    between atoms: C_3  and  O_6 
REMARK    3  A    between atoms: C_3  and  C_4 
REMARK    4  A    between atoms: C_7  and  O_6 
REMARK    5  A    between atoms: C_9  and  C_10 
REMARK    6  A    between atoms: N_15  and  C_14 
REMARK    7  A    between atoms: N_20  and  C_19 
REMARK       I    between atoms: C_22  and  N_20 
ROOT
ATOM      1  C   LIG d   1      -1.207  78.480 114.968  0.00  0.00     0.161 C 
ATOM      2  C   LIG d   1      -1.736  79.687 114.481  0.00  0.00     0.016 C 
ATOM      3  C   LIG d   1      -1.803  80.007 113.105  0.00  0.00     0.038 C 
ATOM      4  C   LIG d   1      -1.483  79.073 112.110  0.00  0.00     0.028 C 
ATOM      5  C   LIG d   1      -0.471  78.026 112.564  0.00  0.00    -0.047 C 
ATOM      6  C   LIG d   1      -0.956  77.403 113.893  0.00  0.00     0.091 C 
ENDROOT
BRANCH   1   7
ATOM      7  O   LIG d   1      -2.058  77.960 116.009  0.00  0.00    -0.368 OA
BRANCH   7   8
ATOM      8  C   LIG d   1      -3.483  78.119 115.807  0.00  0.00     0.119 C 
BRANCH   8   9
ATOM      9  C   LIG d   1      -4.053  78.817 117.058  0.00  0.00     0.028 C 
ATOM     10  C   LIG d   1      -3.030  78.895 118.203  0.00  0.00     0.006 C 
ENDBRANCH   8   9
BRANCH   8  11
ATOM     11  C   LIG d   1      -4.192  76.763 115.741  0.00  0.00     0.028 C 
ATOM     12  C   LIG d   1      -4.508  76.326 114.302  0.00  0.00     0.006 C 
ENDBRANCH   8  11
ENDBRANCH   7   8
ENDBRANCH   1   7
BRANCH   6  13
ATOM     13  N   LIG d   1       0.019  76.429 114.451  0.00  0.00    -0.311 N 
ATOM     14  C   LIG d   1      -0.319  75.209 114.864  0.00  0.00     0.210 C 
ATOM     15  C   LIG d   1       0.836  74.373 115.424  0.00  0.00     0.109 C 
ATOM     16  O   LIG d   1      -1.460  74.727 114.789  0.00  0.00    -0.276 OA
ATOM     17  H   LIG d   1       0.972  76.726 114.518  0.00  0.00     0.149 HD
ENDBRANCH   6  13
BRANCH   5  18
ATOM     18  N   LIG d   1      -0.333  77.038 111.478  0.00  0.00     0.381 N 
ATOM     19  H   LIG d   1       0.595  77.072 111.105  0.00  0.00    -0.090 HD
ATOM     20  H   LIG d   1      -0.977  77.271 110.743  0.00  0.00    -0.090 HD
ATOM     21  H   LIG d   1      -0.527  76.124 111.822  0.00  0.00    -0.090 HD
ENDBRANCH   5  18
BRANCH   3  22
ATOM     22  C   LIG d   1      -2.158  81.290 112.715  0.00  0.00     0.382 C 
ATOM     23  O   LIG d   1      -3.367  81.619 112.668  0.00  0.00    -0.241 OA
ATOM     24  O   LIG d   1      -1.285  82.108 112.367  0.00  0.00    -0.241 OA
ENDBRANCH   3  22
TORSDOF 7
ENDMDL
MODEL 7
REMARK VINA RESULT:      -5.2      1.549      4.948
REMARK  7 active torsions:
REMARK  status: ('A' for Active; 'I' for Inactive)
REMARK    1  A    between atoms: C_2  and  C_3 
REMARK    2  A    between atoms: C_3  and  O_6 
REMARK    3  A    between atoms: C_3  and  C_4 
REMARK    4  A    between atoms: C_7  and  O_6 
REMARK    5  A    between atoms: C_9  and  C_10 
REMARK    6  A    between atoms: N_15  and  C_14 
REMARK    7  A    between atoms: N_20  and  C_19 
REMARK       I    between atoms: C_22  and  N_20 
ROOT
ATOM      1  C   LIG d   1      -1.659  75.337 114.978  0.00  0.00     0.161 C 
ATOM      2  C   LIG d   1      -1.559  74.560 116.144  0.00  0.00     0.016 C 
ATOM      3  C   LIG d   1      -0.775  74.931 117.261  0.00  0.00     0.038 C 
ATOM      4  C   LIG d   1      -0.154  76.186 117.347  0.00  0.00     0.028 C 
ATOM      5  C   LIG d   1       0.186  76.788 115.987  0.00  0.00    -0.047 C 
ATOM      6  C   LIG d   1      -1.078  76.761 115.097  0.00  0.00     0.091 C 
ENDROOT
BRANCH   1   7
ATOM      7  O   LIG d   1      -3.033  75.391 114.544  0.00  0.00    -0.368 OA
BRANCH   7   8
ATOM      8  C   LIG d   1      -4.034  75.166 115.566  0.00  0.00     0.119 C 
BRANCH   8   9
ATOM      9  C   LIG d   1      -5.230  74.462 114.897  0.00  0.00     0.028 C 
ATOM     10  C   LIG d   1      -5.965  73.512 115.857  0.00  0.00     0.006 C 
ENDBRANCH   8   9
BRANCH   8  11
ATOM     11  C   LIG d   1      -4.590  76.489 116.102  0.00  0.00     0.028 C 
ATOM     12  C   LIG d   1      -4.182  76.760 117.559  0.00  0.00     0.006 C 
ENDBRANCH   8  11
ENDBRANCH   7   8
ENDBRANCH   1   7
BRANCH   6  13
ATOM     13  N   LIG d   1      -0.812  77.255 113.721  0.00  0.00    -0.311 N 
ATOM     14  C   LIG d   1      -1.602  78.119 113.087  0.00  0.00     0.210 C 
ATOM     15  C   LIG d   1      -1.156  78.482 111.667  0.00  0.00     0.109 C 
ATOM     16  O   LIG d   1      -2.613  78.645 113.577  0.00  0.00    -0.276 OA
ATOM     17  H   LIG d   1       0.005  76.904 113.260  0.00  0.00     0.149 HD
ENDBRANCH   6  13
BRANCH   5  18
ATOM     18  N   LIG d   1       0.700  78.151 116.220  0.00  0.00     0.381 N 
ATOM     19  H   LIG d   1       1.445  78.122 116.887  0.00  0.00    -0.090 HD
ATOM     20  H   LIG d   1      -0.039  78.718 116.596  0.00  0.00    -0.090 HD
ATOM     21  H   LIG d   1       1.027  78.542 115.364  0.00  0.00    -0.090 HD
ENDBRANCH   5  18
BRANCH   3  22
ATOM     22  C   LIG d   1      -0.574  74.024 118.290  0.00  0.00     0.382 C 
ATOM     23  O   LIG d   1       0.096  74.358 119.297  0.00  0.00    -0.241 OA
ATOM     24  O   LIG d   1      -1.016  72.863 118.205  0.00  0.00    -0.241 OA
ENDBRANCH   3  22
TORSDOF 7
ENDMDL
MODEL 8
REMARK VINA RESULT:      -5.1     22.239     24.755
REMARK  7 active torsions:
REMARK  status: ('A' for Active; 'I' for Inactive)
REMARK    1  A    between atoms: C_2  and  C_3 
REMARK    2  A    between atoms: C_3  and  O_6 
REMARK    3  A    between atoms: C_3  and  C_4 
REMARK    4  A    between atoms: C_7  and  O_6 
REMARK    5  A    between atoms: C_9  and  C_10 
REMARK    6  A    between atoms: N_15  and  C_14 
REMARK    7  A    between atoms: N_20  and  C_19 
REMARK       I    between atoms: C_22  and  N_20 
ROOT
ATOM      1  C   LIG d   1     -25.878  85.278 113.959  0.00  0.00     0.161 C 
ATOM      2  C   LIG d   1     -24.853  86.239 113.937  0.00  0.00     0.016 C 
ATOM      3  C   LIG d   1     -23.518  85.944 113.578  0.00  0.00     0.038 C 
ATOM      4  C   LIG d   1     -23.146  84.691 113.069  0.00  0.00     0.028 C 
ATOM      5  C   LIG d   1     -24.038  83.552 113.552  0.00  0.00    -0.047 C 
ATOM      6  C   LIG d   1     -25.515  83.931 113.300  0.00  0.00     0.091 C 
ENDROOT
BRANCH   1   7
ATOM      7  O   LIG d   1     -27.072  85.823 113.362  0.00  0.00    -0.368 OA
BRANCH   7   8
ATOM      8  C   LIG d   1     -26.888  86.561 112.130  0.00  0.00     0.119 C 
BRANCH   8   9
ATOM      9  C   LIG d   1     -27.238  88.034 112.416  0.00  0.00     0.028 C 
ATOM     10  C   LIG d   1     -26.917  88.956 111.227  0.00  0.00     0.006 C 
ENDBRANCH   8   9
BRANCH   8  11
ATOM     11  C   LIG d   1     -27.882  86.109 111.056  0.00  0.00     0.028 C 
ATOM     12  C   LIG d   1     -28.679  84.861 111.469  0.00  0.00     0.006 C 
ENDBRANCH   8  11
ENDBRANCH   7   8
ENDBRANCH   1   7
BRANCH   6  13
ATOM     13  N   LIG d   1     -26.459  82.907 113.820  0.00  0.00    -0.311 N 
ATOM     14  C   LIG d   1     -26.947  81.915 113.077  0.00  0.00     0.210 C 
ATOM     15  C   LIG d   1     -27.921  80.982 113.803  0.00  0.00     0.109 C 
ATOM     16  O   LIG d   1     -26.640  81.700 111.895  0.00  0.00    -0.276 OA
ATOM     17  H   LIG d   1     -26.737  82.988 114.778  0.00  0.00     0.149 HD
ENDBRANCH   6  13
BRANCH   5  18
ATOM     18  N   LIG d   1     -23.625  82.329 112.838  0.00  0.00     0.381 N 
ATOM     19  H   LIG d   1     -22.895  82.546 112.189  0.00  0.00    -0.090 HD
ATOM     20  H   LIG d   1     -24.410  81.973 112.322  0.00  0.00    -0.090 HD
ATOM     21  H   LIG d   1     -23.308  81.645 113.489  0.00  0.00    -0.090 HD
ENDBRANCH   5  18
BRANCH   3  22
ATOM     22  C   LIG d   1     -22.529  86.898 113.766  0.00  0.00     0.382 C 
ATOM     23  O   LIG d   1     -21.426  86.782 113.180  0.00  0.00    -0.241 OA
ATOM     24  O   LIG d   1     -22.710  87.850 114.550  0.00  0.00    -0.241 OA
ENDBRANCH   3  22
TORSDOF 7
ENDMDL
MODEL 9
REMARK VINA RESULT:      -4.9      2.593      4.991
REMARK  7 active torsions:
REMARK  status: ('A' for Active; 'I' for Inactive)
REMARK    1  A    between atoms: C_2  and  C_3 
REMARK    2  A    between atoms: C_3  and  O_6 
REMARK    3  A    between atoms: C_3  and  C_4 
REMARK    4  A    between atoms: C_7  and  O_6 
REMARK    5  A    between atoms: C_9  and  C_10 
REMARK    6  A    between atoms: N_15  and  C_14 
REMARK    7  A    between atoms: N_20  and  C_19 
REMARK       I    between atoms: C_22  and  N_20 
ROOT
ATOM      1  C   LIG d   1      -1.640  76.214 114.828  0.00  0.00     0.161 C 
ATOM      2  C   LIG d   1      -2.628  77.022 115.415  0.00  0.00     0.016 C 
ATOM      3  C   LIG d   1      -3.260  76.712 116.640  0.00  0.00     0.038 C 
ATOM      4  C   LIG d   1      -2.837  75.642 117.443  0.00  0.00     0.028 C 
ATOM      5  C   LIG d   1      -2.188  74.511 116.652  0.00  0.00    -0.047 C 
ATOM      6  C   LIG d   1      -1.086  75.102 115.743  0.00  0.00     0.091 C 
ENDROOT
BRANCH   1   7
ATOM      7  O   LIG d   1      -0.565  77.037 114.334  0.00  0.00    -0.368 OA
BRANCH   7   8
ATOM      8  C   LIG d   1      -0.906  78.409 114.017  0.00  0.00     0.119 C 
BRANCH   8   9
ATOM      9  C   LIG d   1      -0.889  78.547 112.482  0.00  0.00     0.028 C 
ATOM     10  C   LIG d   1      -2.289  78.398 111.863  0.00  0.00     0.006 C 
ENDBRANCH   8   9
BRANCH   8  11
ATOM     11  C   LIG d   1       0.163  79.381 114.524  0.00  0.00     0.028 C 
ATOM     12  C   LIG d   1       0.471  79.201 116.019  0.00  0.00     0.006 C 
ENDBRANCH   8  11
ENDBRANCH   7   8
ENDBRANCH   1   7
BRANCH   6  13
ATOM     13  N   LIG d   1      -0.458  74.074 114.873  0.00  0.00    -0.311 N 
ATOM     14  C   LIG d   1       0.851  73.826 114.858  0.00  0.00     0.210 C 
ATOM     15  C   LIG d   1       1.292  72.740 113.872  0.00  0.00     0.109 C 
ATOM     16  O   LIG d   1       1.684  74.381 115.591  0.00  0.00    -0.276 OA
ATOM     17  H   LIG d   1      -1.065  73.555 114.268  0.00  0.00     0.149 HD
ENDBRANCH   6  13
BRANCH   5  18
ATOM     18  N   LIG d   1      -1.672  73.527 117.623  0.00  0.00     0.381 N 
ATOM     19  H   LIG d   1      -2.434  73.042 118.052  0.00  0.00    -0.090 HD
ATOM     20  H   LIG d   1      -1.164  74.014 118.340  0.00  0.00    -0.090 HD
ATOM     21  H   LIG d   1      -1.072  72.878 117.163  0.00  0.00    -0.090 HD
ENDBRANCH   5  18
BRANCH   3  22
ATOM     22  C   LIG d   1      -4.356  77.453 117.055  0.00  0.00     0.382 C 
ATOM     23  O   LIG d   1      -4.786  77.334 118.228  0.00  0.00    -0.241 OA
ATOM     24  O   LIG d   1      -4.947  78.206 116.259  0.00  0.00    -0.241 OA
ENDBRANCH   3  22
TORSDOF 7
ENDMDL
