MODEL 1
REMARK VINA RESULT:      -5.8      0.000      0.000
REMARK  7 active torsions:
REMARK  status: ('A' for Active; 'I' for Inactive)
REMARK    1  A    between atoms: C_2  and  C_3 
REMARK    2  A    between atoms: C_3  and  O_6 
REMARK    3  A    between atoms: C_3  and  C_4 
REMARK    4  A    between atoms: C_7  and  O_6 
REMARK    5  A    between atoms: C_9  and  C_10 
REMARK    6  A    between atoms: N_15  and  C_14 
REMARK    7  A    between atoms: N_20  and  C_19 
REMARK       I    between atoms: C_22  and  N_20 
ROOT
ATOM      1  C   LIG d   1      -7.117  76.489 117.632  0.00  0.00     0.161 C 
ATOM      2  C   LIG d   1      -8.379  77.037 117.915  0.00  0.00     0.016 C 
ATOM      3  C   LIG d   1      -8.627  78.428 117.979  0.00  0.00     0.038 C 
ATOM      4  C   LIG d   1      -7.656  79.372 117.613  0.00  0.00     0.028 C 
ATOM      5  C   LIG d   1      -6.227  78.878 117.810  0.00  0.00    -0.047 C 
ATOM      6  C   LIG d   1      -6.072  77.503 117.121  0.00  0.00     0.091 C 
ENDROOT
BRANCH   1   7
ATOM      7  O   LIG d   1      -7.256  75.399 116.700  0.00  0.00    -0.368 OA
BRANCH   7   8
ATOM      8  C   LIG d   1      -7.149  74.066 117.258  0.00  0.00     0.119 C 
BRANCH   8   9
ATOM      9  C   LIG d   1      -6.362  73.204 116.251  0.00  0.00     0.028 C 
ATOM     10  C   LIG d   1      -5.430  74.045 115.362  0.00  0.00     0.006 C 
ENDBRANCH   8   9
BRANCH   8  11
ATOM     11  C   LIG d   1      -8.523  73.399 117.375  0.00  0.00     0.028 C 
ATOM     12  C   LIG d   1      -8.488  71.899 117.042  0.00  0.00     0.006 C 
ENDBRANCH   8  11
ENDBRANCH   7   8
ENDBRANCH   1   7
BRANCH   6  13
ATOM     13  N   LIG d   1      -4.727  76.909 117.337  0.00  0.00    -0.311 N 
ATOM     14  C   LIG d   1      -3.710  77.069 116.492  0.00  0.00     0.210 C 
ATOM     15  C   LIG d   1      -2.416  76.355 116.894  0.00  0.00     0.109 C 
ATOM     16  O   LIG d   1      -3.748  77.760 115.463  0.00  0.00    -0.276 OA
ATOM     17  H   LIG d   1      -4.599  76.358 118.164  0.00  0.00     0.149 HD
ENDBRANCH   6  13
BRANCH   5  18
ATOM     18  N   LIG d   1      -5.321  79.905 117.261  0.00  0.00     0.381 N 
ATOM     19  H   LIG d   1      -5.312  80.705 117.862  0.00  0.00    -0.090 HD
ATOM     20  H   LIG d   1      -5.662  80.191 116.360  0.00  0.00    -0.090 HD
ATOM     21  H   LIG d   1      -4.400  79.535 117.174  0.00  0.00    -0.090 HD
ENDBRANCH   5  18
BRANCH   3  22
ATOM     22  C   LIG d   1      -9.847  78.887 118.451  0.00  0.00     0.382 C 
ATOM     23  O   LIG d   1     -10.654  78.088 118.984  0.00  0.00    -0.241 OA
ATOM     24  O   LIG d   1     -10.169  80.082 118.311  0.00  0.00    -0.241 OA
ENDBRANCH   3  22
TORSDOF 7
ENDMDL
MODEL 2
REMARK VINA RESULT:      -5.5      1.849      4.454
REMARK  7 active torsions:
REMARK  status: ('A' for Active; 'I' for Inactive)
REMARK    1  A    between atoms: C_2  and  C_3 
REMARK    2  A    between atoms: C_3  and  O_6 
REMARK    3  A    between atoms: C_3  and  C_4 
REMARK    4  A    between atoms: C_7  and  O_6 
REMARK    5  A    between atoms: C_9  and  C_10 
REMARK    6  A    between atoms: N_15  and  C_14 
REMARK    7  A    between atoms: N_20  and  C_19 
REMARK       I    between atoms: C_22  and  N_20 
ROOT
ATOM      1  C   LIG d   1      -7.737  76.182 116.510  0.00  0.00     0.161 C 
ATOM      2  C   LIG d   1      -6.789  75.803 115.546  0.00  0.00     0.016 C 
ATOM      3  C   LIG d   1      -5.442  76.234 115.567  0.00  0.00     0.038 C 
ATOM      4  C   LIG d   1      -4.913  76.958 116.646  0.00  0.00     0.028 C 
ATOM      5  C   LIG d   1      -5.954  77.788 117.388  0.00  0.00    -0.047 C 
ATOM      6  C   LIG d   1      -7.151  76.880 117.755  0.00  0.00     0.091 C 
ENDROOT
BRANCH   1   7
ATOM      7  O   LIG d   1      -8.522  75.037 116.901  0.00  0.00    -0.368 OA
BRANCH   7   8
ATOM      8  C   LIG d   1      -7.815  73.995 117.617  0.00  0.00     0.119 C 
BRANCH   8   9
ATOM      9  C   LIG d   1      -7.805  72.742 116.720  0.00  0.00     0.028 C 
ATOM     10  C   LIG d   1      -6.387  72.356 116.267  0.00  0.00     0.006 C 
ENDBRANCH   8   9
BRANCH   8  11
ATOM     11  C   LIG d   1      -8.569  73.581 118.884  0.00  0.00     0.028 C 
ATOM     12  C   LIG d   1      -8.701  72.056 119.027  0.00  0.00     0.006 C 
ENDBRANCH   8  11
ENDBRANCH   7   8
ENDBRANCH   1   7
BRANCH   6  13
ATOM     13  N   LIG d   1      -8.253  77.632 118.410  0.00  0.00    -0.311 N 
ATOM     14  C   LIG d   1      -8.532  78.906 118.141  0.00  0.00     0.210 C 
ATOM     15  C   LIG d   1      -9.696  79.497 118.943  0.00  0.00     0.109 C 
ATOM     16  O   LIG d   1      -7.947  79.595 117.291  0.00  0.00    -0.276 OA
ATOM     17  H   LIG d   1      -8.799  77.141 119.090  0.00  0.00     0.149 HD
ENDBRANCH   6  13
BRANCH   5  18
ATOM     18  N   LIG d   1      -5.295  78.379 118.568  0.00  0.00     0.381 N 
ATOM     19  H   LIG d   1      -5.703  79.269 118.774  0.00  0.00    -0.090 HD
ATOM     20  H   LIG d   1      -4.322  78.519 118.360  0.00  0.00    -0.090 HD
ATOM     21  H   LIG d   1      -5.390  77.772 119.352  0.00  0.00    -0.090 HD
ENDBRANCH   5  18
BRANCH   3  22
ATOM     22  C   LIG d   1      -4.621  75.975 114.481  0.00  0.00     0.382 C 
ATOM     23  O   LIG d   1      -4.528  74.809 114.029  0.00  0.00    -0.241 OA
ATOM     24  O   LIG d   1      -3.937  76.886 113.975  0.00  0.00    -0.241 OA
ENDBRANCH   3  22
TORSDOF 7
ENDMDL
MODEL 3
REMARK VINA RESULT:      -5.4     17.729     20.117
REMARK  7 active torsions:
REMARK  status: ('A' for Active; 'I' for Inactive)
REMARK    1  A    between atoms: C_2  and  C_3 
REMARK    2  A    between atoms: C_3  and  O_6 
REMARK    3  A    between atoms: C_3  and  C_4 
REMARK    4  A    between atoms: C_7  and  O_6 
REMARK    5  A    between atoms: C_9  and  C_10 
REMARK    6  A    between atoms: N_15  and  C_14 
REMARK    7  A    between atoms: N_20  and  C_19 
REMARK       I    between atoms: C_22  and  N_20 
ROOT
ATOM      1  C   LIG d   1      -0.109  57.611 118.574  0.00  0.00     0.161 C 
ATOM      2  C   LIG d   1      -1.512  57.530 118.592  0.00  0.00     0.016 C 
ATOM      3  C   LIG d   1      -2.357  58.663 118.552  0.00  0.00     0.038 C 
ATOM      4  C   LIG d   1      -1.854  59.955 118.337  0.00  0.00     0.028 C 
ATOM      5  C   LIG d   1      -0.419  60.135 118.820  0.00  0.00    -0.047 C 
ATOM      6  C   LIG d   1       0.454  59.005 118.229  0.00  0.00     0.091 C 
ENDROOT
BRANCH   1   7
ATOM      7  O   LIG d   1       0.426  56.617 117.678  0.00  0.00    -0.368 OA
BRANCH   7   8
ATOM      8  C   LIG d   1       0.945  55.414 118.295  0.00  0.00     0.119 C 
BRANCH   8   9
ATOM      9  C   LIG d   1       2.428  55.291 117.896  0.00  0.00     0.028 C 
ATOM     10  C   LIG d   1       3.376  55.789 118.999  0.00  0.00     0.006 C 
ENDBRANCH   8   9
BRANCH   8  11
ATOM     11  C   LIG d   1       0.267  54.161 117.731  0.00  0.00     0.028 C 
ATOM     12  C   LIG d   1      -0.600  53.434 118.771  0.00  0.00     0.006 C 
ENDBRANCH   8  11
ENDBRANCH   7   8
ENDBRANCH   1   7
BRANCH   6  13
ATOM     13  N   LIG d   1       1.857  59.057 118.718  0.00  0.00    -0.311 N 
ATOM     14  C   LIG d   1       2.842  59.662 118.057  0.00  0.00     0.210 C 
ATOM     15  C   LIG d   1       4.216  59.581 118.729  0.00  0.00     0.109 C 
ATOM     16  O   LIG d   1       2.702  60.286 116.994  0.00  0.00    -0.276 OA
ATOM     17  H   LIG d   1       2.053  58.603 119.589  0.00  0.00     0.149 HD
ENDBRANCH   6  13
BRANCH   5  18
ATOM     18  N   LIG d   1       0.023  61.481 118.410  0.00  0.00     0.381 N 
ATOM     19  H   LIG d   1      -0.489  61.776 117.603  0.00  0.00    -0.090 HD
ATOM     20  H   LIG d   1       0.998  61.444 118.169  0.00  0.00    -0.090 HD
ATOM     21  H   LIG d   1      -0.117  62.128 119.156  0.00  0.00    -0.090 HD
ENDBRANCH   5  18
BRANCH   3  22
ATOM     22  C   LIG d   1      -3.718  58.513 118.767  0.00  0.00     0.382 C 
ATOM     23  O   LIG d   1      -4.158  57.460 119.289  0.00  0.00    -0.241 OA
ATOM     24  O   LIG d   1      -4.516  59.398 118.404  0.00  0.00    -0.241 OA
ENDBRANCH   3  22
TORSDOF 7
ENDMDL
MODEL 4
REMARK VINA RESULT:      -5.3     10.769     13.348
REMARK  7 active torsions:
REMARK  status: ('A' for Active; 'I' for Inactive)
REMARK    1  A    between atoms: C_2  and  C_3 
REMARK    2  A    between atoms: C_3  and  O_6 
REMARK    3  A    between atoms: C_3  and  C_4 
REMARK    4  A    between atoms: C_7  and  O_6 
REMARK    5  A    between atoms: C_9  and  C_10 
REMARK    6  A    between atoms: N_15  and  C_14 
REMARK    7  A    between atoms: N_20  and  C_19 
REMARK       I    between atoms: C_22  and  N_20 
ROOT
ATOM      1  C   LIG d   1       1.602  84.771 114.145  0.00  0.00     0.161 C 
ATOM      2  C   LIG d   1       1.772  85.947 113.396  0.00  0.00     0.016 C 
ATOM      3  C   LIG d   1       2.855  86.837 113.579  0.00  0.00     0.038 C 
ATOM      4  C   LIG d   1       3.930  86.531 114.427  0.00  0.00     0.028 C 
ATOM      5  C   LIG d   1       3.552  85.599 115.573  0.00  0.00    -0.047 C 
ATOM      6  C   LIG d   1       2.822  84.364 114.996  0.00  0.00     0.091 C 
ENDROOT
BRANCH   1   7
ATOM      7  O   LIG d   1       1.215  83.689 113.274  0.00  0.00    -0.368 OA
BRANCH   7   8
ATOM      8  C   LIG d   1       1.247  83.972 111.853  0.00  0.00     0.119 C 
BRANCH   8   9
ATOM      9  C   LIG d   1      -0.132  83.597 111.276  0.00  0.00     0.028 C 
ATOM     10  C   LIG d   1      -0.814  82.470 112.070  0.00  0.00     0.006 C 
ENDBRANCH   8   9
BRANCH   8  11
ATOM     11  C   LIG d   1       2.249  83.069 111.128  0.00  0.00     0.028 C 
ATOM     12  C   LIG d   1       3.705  83.522 111.317  0.00  0.00     0.006 C 
ENDBRANCH   8  11
ENDBRANCH   7   8
ENDBRANCH   1   7
BRANCH   6  13
ATOM     13  N   LIG d   1       2.343  83.442 116.058  0.00  0.00    -0.311 N 
ATOM     14  C   LIG d   1       3.045  82.398 116.494  0.00  0.00     0.210 C 
ATOM     15  C   LIG d   1       2.358  81.564 117.580  0.00  0.00     0.109 C 
ATOM     16  O   LIG d   1       4.186  82.101 116.108  0.00  0.00    -0.276 OA
ATOM     17  H   LIG d   1       1.440  83.626 116.449  0.00  0.00     0.149 HD
ENDBRANCH   6  13
BRANCH   5  18
ATOM     18  N   LIG d   1       4.791  85.254 116.295  0.00  0.00     0.381 N 
ATOM     19  H   LIG d   1       5.162  84.396 115.939  0.00  0.00    -0.090 HD
ATOM     20  H   LIG d   1       4.575  85.124 117.268  0.00  0.00    -0.090 HD
ATOM     21  H   LIG d   1       5.461  85.983 116.190  0.00  0.00    -0.090 HD
ENDBRANCH   5  18
BRANCH   3  22
ATOM     22  C   LIG d   1       2.850  88.067 112.940  0.00  0.00     0.382 C 
ATOM     23  O   LIG d   1       3.834  88.838 113.055  0.00  0.00    -0.241 OA
ATOM     24  O   LIG d   1       1.857  88.435 112.285  0.00  0.00    -0.241 OA
ENDBRANCH   3  22
TORSDOF 7
ENDMDL
MODEL 5
REMARK VINA RESULT:      -5.0     18.635     21.097
REMARK  7 active torsions:
REMARK  status: ('A' for Active; 'I' for Inactive)
REMARK    1  A    between atoms: C_2  and  C_3 
REMARK    2  A    between atoms: C_3  and  O_6 
REMARK    3  A    between atoms: C_3  and  C_4 
REMARK    4  A    between atoms: C_7  and  O_6 
REMARK    5  A    between atoms: C_9  and  C_10 
REMARK    6  A    between atoms: N_15  and  C_14 
REMARK    7  A    between atoms: N_20  and  C_19 
REMARK       I    between atoms: C_22  and  N_20 
ROOT
ATOM      1  C   LIG d   1     -25.597  84.915 114.236  0.00  0.00     0.161 C 
ATOM      2  C   LIG d   1     -24.676  85.974 114.193  0.00  0.00     0.016 C 
ATOM      3  C   LIG d   1     -23.390  85.865 113.616  0.00  0.00     0.038 C 
ATOM      4  C   LIG d   1     -22.992  84.724 112.902  0.00  0.00     0.028 C 
ATOM      5  C   LIG d   1     -23.697  83.450 113.355  0.00  0.00    -0.047 C 
ATOM      6  C   LIG d   1     -25.223  83.698 113.364  0.00  0.00     0.091 C 
ENDROOT
BRANCH   1   7
ATOM      7  O   LIG d   1     -26.911  85.395 113.888  0.00  0.00    -0.368 OA
BRANCH   7   8
ATOM      8  C   LIG d   1     -27.190  85.520 112.472  0.00  0.00     0.119 C 
BRANCH   8   9
ATOM      9  C   LIG d   1     -27.421  87.015 112.176  0.00  0.00     0.028 C 
ATOM     10  C   LIG d   1     -26.431  87.568 111.137  0.00  0.00     0.006 C 
ENDBRANCH   8   9
BRANCH   8  11
ATOM     11  C   LIG d   1     -28.502  84.825 112.099  0.00  0.00     0.028 C 
ATOM     12  C   LIG d   1     -29.186  84.157 113.302  0.00  0.00     0.006 C 
ENDBRANCH   8  11
ENDBRANCH   7   8
ENDBRANCH   1   7
BRANCH   6  13
ATOM     13  N   LIG d   1     -25.984  82.528 113.876  0.00  0.00    -0.311 N 
ATOM     14  C   LIG d   1     -26.490  81.581 113.088  0.00  0.00     0.210 C 
ATOM     15  C   LIG d   1     -27.256  80.473 113.818  0.00  0.00     0.109 C 
ATOM     16  O   LIG d   1     -26.349  81.536 111.856  0.00  0.00    -0.276 OA
ATOM     17  H   LIG d   1     -26.118  82.469 114.866  0.00  0.00     0.149 HD
ENDBRANCH   6  13
BRANCH   5  18
ATOM     18  N   LIG d   1     -23.293  82.367 112.439  0.00  0.00     0.381 N 
ATOM     19  H   LIG d   1     -22.940  82.758 111.588  0.00  0.00    -0.090 HD
ATOM     20  H   LIG d   1     -24.099  81.809 112.219  0.00  0.00    -0.090 HD
ATOM     21  H   LIG d   1     -22.594  81.801 112.868  0.00  0.00    -0.090 HD
ENDBRANCH   5  18
BRANCH   3  22
ATOM     22  C   LIG d   1     -22.471  86.890 113.784  0.00  0.00     0.382 C 
ATOM     23  O   LIG d   1     -21.394  86.878 113.141  0.00  0.00    -0.241 OA
ATOM     24  O   LIG d   1     -22.687  87.803 114.603  0.00  0.00    -0.241 OA
ENDBRANCH   3  22
TORSDOF 7
ENDMDL
MODEL 6
REMARK VINA RESULT:      -5.0      2.050      5.209
REMARK  7 active torsions:
REMARK  status: ('A' for Active; 'I' for Inactive)
REMARK    1  A    between atoms: C_2  and  C_3 
REMARK    2  A    between atoms: C_3  and  O_6 
REMARK    3  A    between atoms: C_3  and  C_4 
REMARK    4  A    between atoms: C_7  and  O_6 
REMARK    5  A    between atoms: C_9  and  C_10 
REMARK    6  A    between atoms: N_15  and  C_14 
REMARK    7  A    between atoms: N_20  and  C_19 
REMARK       I    between atoms: C_22  and  N_20 
ROOT
ATOM      1  C   LIG d   1      -6.004  77.191 117.240  0.00  0.00     0.161 C 
ATOM      2  C   LIG d   1      -6.303  75.840 117.000  0.00  0.00     0.016 C 
ATOM      3  C   LIG d   1      -7.572  75.267 117.249  0.00  0.00     0.038 C 
ATOM      4  C   LIG d   1      -8.678  76.048 117.617  0.00  0.00     0.028 C 
ATOM      5  C   LIG d   1      -8.298  77.326 118.357  0.00  0.00    -0.047 C 
ATOM      6  C   LIG d   1      -7.228  78.082 117.536  0.00  0.00     0.091 C 
ENDROOT
BRANCH   1   7
ATOM      7  O   LIG d   1      -5.248  77.728 116.136  0.00  0.00    -0.368 OA
BRANCH   7   8
ATOM      8  C   LIG d   1      -3.807  77.713 116.283  0.00  0.00     0.119 C 
BRANCH   8   9
ATOM      9  C   LIG d   1      -3.347  79.170 116.484  0.00  0.00     0.028 C 
ATOM     10  C   LIG d   1      -3.166  79.529 117.969  0.00  0.00     0.006 C 
ENDBRANCH   8   9
BRANCH   8  11
ATOM     11  C   LIG d   1      -3.120  77.245 114.997  0.00  0.00     0.028 C 
ATOM     12  C   LIG d   1      -1.675  76.777 115.229  0.00  0.00     0.006 C 
ENDBRANCH   8  11
ENDBRANCH   7   8
ENDBRANCH   1   7
BRANCH   6  13
ATOM     13  N   LIG d   1      -6.739  79.302 118.229  0.00  0.00    -0.311 N 
ATOM     14  C   LIG d   1      -7.127  80.535 117.905  0.00  0.00     0.210 C 
ATOM     15  C   LIG d   1      -6.486  81.653 118.733  0.00  0.00     0.109 C 
ATOM     16  O   LIG d   1      -7.965  80.806 117.032  0.00  0.00    -0.276 OA
ATOM     17  H   LIG d   1      -6.080  79.172 118.971  0.00  0.00     0.149 HD
ENDBRANCH   6  13
BRANCH   5  18
ATOM     18  N   LIG d   1      -9.532  78.109 118.557  0.00  0.00     0.381 N 
ATOM     19  H   LIG d   1     -10.070  78.115 117.713  0.00  0.00    -0.090 HD
ATOM     20  H   LIG d   1      -9.284  79.057 118.780  0.00  0.00    -0.090 HD
ATOM     21  H   LIG d   1     -10.069  77.716 119.299  0.00  0.00    -0.090 HD
ENDBRANCH   5  18
BRANCH   3  22
ATOM     22  C   LIG d   1      -7.733  73.893 117.170  0.00  0.00     0.382 C 
ATOM     23  O   LIG d   1      -8.687  73.338 117.767  0.00  0.00    -0.241 OA
ATOM     24  O   LIG d   1      -6.912  73.195 116.545  0.00  0.00    -0.241 OA
ENDBRANCH   3  22
TORSDOF 7
ENDMDL
MODEL 7
REMARK VINA RESULT:      -5.0     18.644     21.593
REMARK  7 active torsions:
REMARK  status: ('A' for Active; 'I' for Inactive)
REMARK    1  A    between atoms: C_2  and  C_3 
REMARK    2  A    between atoms: C_3  and  O_6 
REMARK    3  A    between atoms: C_3  and  C_4 
REMARK    4  A    between atoms: C_7  and  O_6 
REMARK    5  A    between atoms: C_9  and  C_10 
REMARK    6  A    between atoms: N_15  and  C_14 
REMARK    7  A    between atoms: N_20  and  C_19 
REMARK       I    between atoms: C_22  and  N_20 
ROOT
ATOM      1  C   LIG d   1     -25.831  85.079 113.356  0.00  0.00     0.161 C 
ATOM      2  C   LIG d   1     -24.850  86.075 113.493  0.00  0.00     0.016 C 
ATOM      3  C   LIG d   1     -23.467  85.834 113.318  0.00  0.00     0.038 C 
ATOM      4  C   LIG d   1     -22.983  84.607 112.841  0.00  0.00     0.028 C 
ATOM      5  C   LIG d   1     -23.890  83.427 113.175  0.00  0.00    -0.047 C 
ATOM      6  C   LIG d   1     -25.332  83.761 112.728  0.00  0.00     0.091 C 
ENDROOT
BRANCH   1   7
ATOM      7  O   LIG d   1     -26.951  85.596 112.610  0.00  0.00    -0.368 OA
BRANCH   7   8
ATOM      8  C   LIG d   1     -27.355  86.952 112.924  0.00  0.00     0.119 C 
BRANCH   8   9
ATOM      9  C   LIG d   1     -28.700  86.873 113.671  0.00  0.00     0.028 C 
ATOM     10  C   LIG d   1     -28.669  87.617 115.017  0.00  0.00     0.006 C 
ENDBRANCH   8   9
BRANCH   8  11
ATOM     11  C   LIG d   1     -27.643  87.756 111.654  0.00  0.00     0.028 C 
ATOM     12  C   LIG d   1     -26.615  88.872 111.408  0.00  0.00     0.006 C 
ENDBRANCH   8  11
ENDBRANCH   7   8
ENDBRANCH   1   7
BRANCH   6  13
ATOM     13  N   LIG d   1     -26.300  82.694 113.093  0.00  0.00    -0.311 N 
ATOM     14  C   LIG d   1     -26.740  81.777 112.233  0.00  0.00     0.210 C 
ATOM     15  C   LIG d   1     -27.750  80.780 112.810  0.00  0.00     0.109 C 
ATOM     16  O   LIG d   1     -26.366  81.676 111.055  0.00  0.00    -0.276 OA
ATOM     17  H   LIG d   1     -26.632  82.683 114.038  0.00  0.00     0.149 HD
ENDBRANCH   6  13
BRANCH   5  18
ATOM     18  N   LIG d   1     -23.337  82.236 112.503  0.00  0.00     0.381 N 
ATOM     19  H   LIG d   1     -23.936  81.965 111.748  0.00  0.00    -0.090 HD
ATOM     20  H   LIG d   1     -23.299  81.479 113.162  0.00  0.00    -0.090 HD
ATOM     21  H   LIG d   1     -22.424  82.432 112.157  0.00  0.00    -0.090 HD
ENDBRANCH   5  18
BRANCH   3  22
ATOM     22  C   LIG d   1     -22.550  86.817 113.658  0.00  0.00     0.382 C 
ATOM     23  O   LIG d   1     -22.887  87.750 114.426  0.00  0.00    -0.241 OA
ATOM     24  O   LIG d   1     -21.404  86.806 113.172  0.00  0.00    -0.241 OA
ENDBRANCH   3  22
TORSDOF 7
ENDMDL
MODEL 8
REMARK VINA RESULT:      -5.0     17.658     19.928
REMARK  7 active torsions:
REMARK  status: ('A' for Active; 'I' for Inactive)
REMARK    1  A    between atoms: C_2  and  C_3 
REMARK    2  A    between atoms: C_3  and  O_6 
REMARK    3  A    between atoms: C_3  and  C_4 
REMARK    4  A    between atoms: C_7  and  O_6 
REMARK    5  A    between atoms: C_9  and  C_10 
REMARK    6  A    between atoms: N_15  and  C_14 
REMARK    7  A    between atoms: N_20  and  C_19 
REMARK       I    between atoms: C_22  and  N_20 
ROOT
ATOM      1  C   LIG d   1       0.247  58.264 119.268  0.00  0.00     0.161 C 
ATOM      2  C   LIG d   1      -1.138  58.292 119.036  0.00  0.00     0.016 C 
ATOM      3  C   LIG d   1      -1.763  59.216 118.167  0.00  0.00     0.038 C 
ATOM      4  C   LIG d   1      -1.023  60.082 117.350  0.00  0.00     0.028 C 
ATOM      5  C   LIG d   1       0.346  60.434 117.923  0.00  0.00    -0.047 C 
ATOM      6  C   LIG d   1       1.082  59.128 118.301  0.00  0.00     0.091 C 
ENDROOT
BRANCH   1   7
ATOM      7  O   LIG d   1       0.717  56.901 119.255  0.00  0.00    -0.368 OA
BRANCH   7   8
ATOM      8  C   LIG d   1       1.218  56.412 117.987  0.00  0.00     0.119 C 
BRANCH   8   9
ATOM      9  C   LIG d   1       0.085  55.607 117.321  0.00  0.00     0.028 C 
ATOM     10  C   LIG d   1       0.530  54.192 116.916  0.00  0.00     0.006 C 
ENDBRANCH   8   9
BRANCH   8  11
ATOM     11  C   LIG d   1       2.361  55.412 118.188  0.00  0.00     0.028 C 
ATOM     12  C   LIG d   1       3.519  55.991 119.016  0.00  0.00     0.006 C 
ENDBRANCH   8  11
ENDBRANCH   7   8
ENDBRANCH   1   7
BRANCH   6  13
ATOM     13  N   LIG d   1       2.396  59.385 118.947  0.00  0.00    -0.311 N 
ATOM     14  C   LIG d   1       3.506  59.661 118.266  0.00  0.00     0.210 C 
ATOM     15  C   LIG d   1       4.756  59.873 119.126  0.00  0.00     0.109 C 
ATOM     16  O   LIG d   1       3.568  59.783 117.034  0.00  0.00    -0.276 OA
ATOM     17  H   LIG d   1       2.429  59.337 119.947  0.00  0.00     0.149 HD
ENDBRANCH   6  13
BRANCH   5  18
ATOM     18  N   LIG d   1       1.063  61.229 116.909  0.00  0.00     0.381 N 
ATOM     19  H   LIG d   1       1.306  60.648 116.132  0.00  0.00    -0.090 HD
ATOM     20  H   LIG d   1       1.911  61.584 117.314  0.00  0.00    -0.090 HD
ATOM     21  H   LIG d   1       0.492  61.985 116.601  0.00  0.00    -0.090 HD
ENDBRANCH   5  18
BRANCH   3  22
ATOM     22  C   LIG d   1      -3.147  59.306 118.139  0.00  0.00     0.382 C 
ATOM     23  O   LIG d   1      -3.698  60.365 117.755  0.00  0.00    -0.241 OA
ATOM     24  O   LIG d   1      -3.849  58.357 118.536  0.00  0.00    -0.241 OA
ENDBRANCH   3  22
TORSDOF 7
ENDMDL
MODEL 9
REMARK VINA RESULT:      -4.6     17.307     18.718
REMARK  7 active torsions:
REMARK  status: ('A' for Active; 'I' for Inactive)
REMARK    1  A    between atoms: C_2  and  C_3 
REMARK    2  A    between atoms: C_3  and  O_6 
REMARK    3  A    between atoms: C_3  and  C_4 
REMARK    4  A    between atoms: C_7  and  O_6 
REMARK    5  A    between atoms: C_9  and  C_10 
REMARK    6  A    between atoms: N_15  and  C_14 
REMARK    7  A    between atoms: N_20  and  C_19 
REMARK       I    between atoms: C_22  and  N_20 
ROOT
ATOM      1  C   LIG d   1     -23.650  83.082 115.681  0.00  0.00     0.161 C 
ATOM      2  C   LIG d   1     -24.107  81.767 115.489  0.00  0.00     0.016 C 
ATOM      3  C   LIG d   1     -24.433  81.234 114.221  0.00  0.00     0.038 C 
ATOM      4  C   LIG d   1     -24.179  81.937 113.034  0.00  0.00     0.028 C 
ATOM      5  C   LIG d   1     -24.193  83.451 113.212  0.00  0.00    -0.047 C 
ATOM      6  C   LIG d   1     -23.261  83.827 114.387  0.00  0.00     0.091 C 
ENDROOT
BRANCH   1   7
ATOM      7  O   LIG d   1     -22.549  83.086 116.611  0.00  0.00    -0.368 OA
BRANCH   7   8
ATOM      8  C   LIG d   1     -22.720  83.899 117.798  0.00  0.00     0.119 C 
BRANCH   8   9
ATOM      9  C   LIG d   1     -22.347  83.029 119.014  0.00  0.00     0.028 C 
ATOM     10  C   LIG d   1     -23.290  81.827 119.187  0.00  0.00     0.006 C 
ENDBRANCH   8   9
BRANCH   8  11
ATOM     11  C   LIG d   1     -24.189  84.279 118.006  0.00  0.00     0.028 C 
ATOM     12  C   LIG d   1     -24.402  85.796 118.121  0.00  0.00     0.006 C 
ENDBRANCH   8  11
ENDBRANCH   7   8
ENDBRANCH   1   7
BRANCH   6  13
ATOM     13  N   LIG d   1     -23.281  85.283 114.683  0.00  0.00    -0.311 N 
ATOM     14  C   LIG d   1     -22.537  86.174 114.031  0.00  0.00     0.210 C 
ATOM     15  C   LIG d   1     -22.695  87.621 114.508  0.00  0.00     0.109 C 
ATOM     16  O   LIG d   1     -21.785  85.908 113.081  0.00  0.00    -0.276 OA
ATOM     17  H   LIG d   1     -23.887  85.591 115.419  0.00  0.00     0.149 HD
ENDBRANCH   6  13
BRANCH   5  18
ATOM     18  N   LIG d   1     -23.779  84.054 111.931  0.00  0.00     0.381 N 
ATOM     19  H   LIG d   1     -23.419  84.974 112.090  0.00  0.00    -0.090 HD
ATOM     20  H   LIG d   1     -24.582  84.129 111.332  0.00  0.00    -0.090 HD
ATOM     21  H   LIG d   1     -23.083  83.489 111.496  0.00  0.00    -0.090 HD
ENDBRANCH   5  18
BRANCH   3  22
ATOM     22  C   LIG d   1     -25.057  79.999 114.135  0.00  0.00     0.382 C 
ATOM     23  O   LIG d   1     -24.582  79.012 114.747  0.00  0.00    -0.241 OA
ATOM     24  O   LIG d   1     -26.064  79.849 113.416  0.00  0.00    -0.241 OA
ENDBRANCH   3  22
TORSDOF 7
ENDMDL
