MODEL 1
REMARK VINA RESULT:      -5.0      0.000      0.000
REMARK  7 active torsions:
REMARK  status: ('A' for Active; 'I' for Inactive)
REMARK    1  A    between atoms: C_2  and  C_3 
REMARK    2  A    between atoms: C_3  and  O_6 
REMARK    3  A    between atoms: C_3  and  C_4 
REMARK    4  A    between atoms: C_7  and  O_6 
REMARK    5  A    between atoms: C_9  and  C_10 
REMARK    6  A    between atoms: N_15  and  C_14 
REMARK    7  A    between atoms: N_20  and  C_19 
REMARK       I    between atoms: C_22  and  N_20 
ROOT
ATOM      1  C   LIG d   1       3.571  85.022 112.988  0.00  0.00     0.161 C 
ATOM      2  C   LIG d   1       4.355  86.166 113.212  0.00  0.00     0.016 C 
ATOM      3  C   LIG d   1       3.992  87.457 112.764  0.00  0.00     0.038 C 
ATOM      4  C   LIG d   1       2.740  87.718 112.189  0.00  0.00     0.028 C 
ATOM      5  C   LIG d   1       2.131  86.508 111.489  0.00  0.00    -0.047 C 
ATOM      6  C   LIG d   1       2.149  85.305 112.459  0.00  0.00     0.091 C 
ENDROOT
BRANCH   1   7
ATOM      7  O   LIG d   1       3.511  84.228 114.189  0.00  0.00    -0.368 OA
BRANCH   7   8
ATOM      8  C   LIG d   1       3.596  84.956 115.439  0.00  0.00     0.119 C 
BRANCH   8   9
ATOM      9  C   LIG d   1       4.414  84.094 116.421  0.00  0.00     0.028 C 
ATOM     10  C   LIG d   1       4.251  82.588 116.156  0.00  0.00     0.006 C 
ENDBRANCH   8   9
BRANCH   8  11
ATOM     11  C   LIG d   1       2.218  85.113 116.088  0.00  0.00     0.028 C 
ATOM     12  C   LIG d   1       1.756  86.577 116.158  0.00  0.00     0.006 C 
ENDBRANCH   8  11
ENDBRANCH   7   8
ENDBRANCH   1   7
BRANCH   6  13
ATOM     13  N   LIG d   1       1.649  84.058 111.825  0.00  0.00    -0.311 N 
ATOM     14  C   LIG d   1       0.363  83.710 111.806  0.00  0.00     0.210 C 
ATOM     15  C   LIG d   1       0.064  82.374 111.118  0.00  0.00     0.109 C 
ATOM     16  O   LIG d   1      -0.562  84.397 112.265  0.00  0.00    -0.276 OA
ATOM     17  H   LIG d   1       2.328  83.457 111.401  0.00  0.00     0.149 HD
ENDBRANCH   6  13
BRANCH   5  18
ATOM     18  N   LIG d   1       0.771  86.881 111.056  0.00  0.00     0.381 N 
ATOM     19  H   LIG d   1       0.504  86.329 110.265  0.00  0.00    -0.090 HD
ATOM     20  H   LIG d   1       0.771  87.847 110.781  0.00  0.00    -0.090 HD
ATOM     21  H   LIG d   1       0.125  86.740 111.801  0.00  0.00    -0.090 HD
ENDBRANCH   5  18
BRANCH   3  22
ATOM     22  C   LIG d   1       4.905  88.497 112.855  0.00  0.00     0.382 C 
ATOM     23  O   LIG d   1       6.076  88.342 112.432  0.00  0.00    -0.241 OA
ATOM     24  O   LIG d   1       4.585  89.573 113.394  0.00  0.00    -0.241 OA
ENDBRANCH   3  22
TORSDOF 7
ENDMDL
MODEL 2
REMARK VINA RESULT:      -4.9      1.311      1.961
REMARK  7 active torsions:
REMARK  status: ('A' for Active; 'I' for Inactive)
REMARK    1  A    between atoms: C_2  and  C_3 
REMARK    2  A    between atoms: C_3  and  O_6 
REMARK    3  A    between atoms: C_3  and  C_4 
REMARK    4  A    between atoms: C_7  and  O_6 
REMARK    5  A    between atoms: C_9  and  C_10 
REMARK    6  A    between atoms: N_15  and  C_14 
REMARK    7  A    between atoms: N_20  and  C_19 
REMARK       I    between atoms: C_22  and  N_20 
ROOT
ATOM      1  C   LIG d   1       4.450  84.848 112.870  0.00  0.00     0.161 C 
ATOM      2  C   LIG d   1       4.874  86.165 113.111  0.00  0.00     0.016 C 
ATOM      3  C   LIG d   1       4.140  87.305 112.710  0.00  0.00     0.038 C 
ATOM      4  C   LIG d   1       2.849  87.203 112.170  0.00  0.00     0.028 C 
ATOM      5  C   LIG d   1       2.598  85.884 111.447  0.00  0.00    -0.047 C 
ATOM      6  C   LIG d   1       2.993  84.717 112.381  0.00  0.00     0.091 C 
ENDROOT
BRANCH   1   7
ATOM      7  O   LIG d   1       4.658  84.044 114.048  0.00  0.00    -0.368 OA
BRANCH   7   8
ATOM      8  C   LIG d   1       3.572  84.027 115.008  0.00  0.00     0.119 C 
BRANCH   8   9
ATOM      9  C   LIG d   1       4.058  84.767 116.269  0.00  0.00     0.028 C 
ATOM     10  C   LIG d   1       5.557  84.550 116.535  0.00  0.00     0.006 C 
ENDBRANCH   8   9
BRANCH   8  11
ATOM     11  C   LIG d   1       3.258  82.601 115.470  0.00  0.00     0.028 C 
ATOM     12  C   LIG d   1       4.044  81.536 114.689  0.00  0.00     0.006 C 
ENDBRANCH   8  11
ENDBRANCH   7   8
ENDBRANCH   1   7
BRANCH   6  13
ATOM     13  N   LIG d   1       2.857  83.392 111.721  0.00  0.00    -0.311 N 
ATOM     14  C   LIG d   1       1.795  82.602 111.874  0.00  0.00     0.210 C 
ATOM     15  C   LIG d   1       1.866  81.270 111.121  0.00  0.00     0.109 C 
ATOM     16  O   LIG d   1       0.787  82.892 112.536  0.00  0.00    -0.276 OA
ATOM     17  H   LIG d   1       3.615  83.091 111.141  0.00  0.00     0.149 HD
ENDBRANCH   6  13
BRANCH   5  18
ATOM     18  N   LIG d   1       1.176  85.854 111.055  0.00  0.00     0.381 N 
ATOM     19  H   LIG d   1       1.099  85.887 110.058  0.00  0.00    -0.090 HD
ATOM     20  H   LIG d   1       0.718  86.665 111.433  0.00  0.00    -0.090 HD
ATOM     21  H   LIG d   1       0.743  85.027 111.402  0.00  0.00    -0.090 HD
ENDBRANCH   5  18
BRANCH   3  22
ATOM     22  C   LIG d   1       4.714  88.563 112.811  0.00  0.00     0.382 C 
ATOM     23  O   LIG d   1       4.012  89.547 113.147  0.00  0.00    -0.241 OA
ATOM     24  O   LIG d   1       5.915  88.734 112.529  0.00  0.00    -0.241 OA
ENDBRANCH   3  22
TORSDOF 7
ENDMDL
MODEL 3
REMARK VINA RESULT:      -4.9      2.303      5.073
REMARK  7 active torsions:
REMARK  status: ('A' for Active; 'I' for Inactive)
REMARK    1  A    between atoms: C_2  and  C_3 
REMARK    2  A    between atoms: C_3  and  O_6 
REMARK    3  A    between atoms: C_3  and  C_4 
REMARK    4  A    between atoms: C_7  and  O_6 
REMARK    5  A    between atoms: C_9  and  C_10 
REMARK    6  A    between atoms: N_15  and  C_14 
REMARK    7  A    between atoms: N_20  and  C_19 
REMARK       I    between atoms: C_22  and  N_20 
ROOT
ATOM      1  C   LIG d   1       2.758  85.184 114.208  0.00  0.00     0.161 C 
ATOM      2  C   LIG d   1       1.545  84.951 113.540  0.00  0.00     0.016 C 
ATOM      3  C   LIG d   1       0.954  85.879 112.652  0.00  0.00     0.038 C 
ATOM      4  C   LIG d   1       1.618  87.048 112.253  0.00  0.00     0.028 C 
ATOM      5  C   LIG d   1       2.614  87.563 113.287  0.00  0.00    -0.047 C 
ATOM      6  C   LIG d   1       3.552  86.406 113.699  0.00  0.00     0.091 C 
ENDROOT
BRANCH   1   7
ATOM      7  O   LIG d   1       3.578  83.999 114.160  0.00  0.00    -0.368 OA
BRANCH   7   8
ATOM      8  C   LIG d   1       3.295  83.071 113.083  0.00  0.00     0.119 C 
BRANCH   8   9
ATOM      9  C   LIG d   1       3.431  81.646 113.653  0.00  0.00     0.028 C 
ATOM     10  C   LIG d   1       4.007  81.636 115.079  0.00  0.00     0.006 C 
ENDBRANCH   8   9
BRANCH   8  11
ATOM     11  C   LIG d   1       4.346  83.167 111.974  0.00  0.00     0.028 C 
ATOM     12  C   LIG d   1       4.360  81.934 111.058  0.00  0.00     0.006 C 
ENDBRANCH   8  11
ENDBRANCH   7   8
ENDBRANCH   1   7
BRANCH   6  13
ATOM     13  N   LIG d   1       4.504  86.801 114.770  0.00  0.00    -0.311 N 
ATOM     14  C   LIG d   1       5.661  87.417 114.532  0.00  0.00     0.210 C 
ATOM     15  C   LIG d   1       6.501  87.717 115.776  0.00  0.00     0.109 C 
ATOM     16  O   LIG d   1       6.055  87.771 113.411  0.00  0.00    -0.276 OA
ATOM     17  H   LIG d   1       4.248  86.580 115.712  0.00  0.00     0.149 HD
ENDBRANCH   6  13
BRANCH   5  18
ATOM     18  N   LIG d   1       3.332  88.703 112.685  0.00  0.00     0.381 N 
ATOM     19  H   LIG d   1       3.385  88.584 111.693  0.00  0.00    -0.090 HD
ATOM     20  H   LIG d   1       4.268  88.727 113.051  0.00  0.00    -0.090 HD
ATOM     21  H   LIG d   1       2.861  89.554 112.900  0.00  0.00    -0.090 HD
ENDBRANCH   5  18
BRANCH   3  22
ATOM     22  C   LIG d   1      -0.333  85.660 112.185  0.00  0.00     0.382 C 
ATOM     23  O   LIG d   1      -0.738  84.489 111.990  0.00  0.00    -0.241 OA
ATOM     24  O   LIG d   1      -1.079  86.621 111.915  0.00  0.00    -0.241 OA
ENDBRANCH   3  22
TORSDOF 7
ENDMDL
MODEL 4
REMARK VINA RESULT:      -4.9      2.221      4.541
REMARK  7 active torsions:
REMARK  status: ('A' for Active; 'I' for Inactive)
REMARK    1  A    between atoms: C_2  and  C_3 
REMARK    2  A    between atoms: C_3  and  O_6 
REMARK    3  A    between atoms: C_3  and  C_4 
REMARK    4  A    between atoms: C_7  and  O_6 
REMARK    5  A    between atoms: C_9  and  C_10 
REMARK    6  A    between atoms: N_15  and  C_14 
REMARK    7  A    between atoms: N_20  and  C_19 
REMARK       I    between atoms: C_22  and  N_20 
ROOT
ATOM      1  C   LIG d   1       1.924  85.461 114.061  0.00  0.00     0.161 C 
ATOM      2  C   LIG d   1       2.465  86.556 113.367  0.00  0.00     0.016 C 
ATOM      3  C   LIG d   1       3.827  86.927 113.439  0.00  0.00     0.038 C 
ATOM      4  C   LIG d   1       4.779  86.132 114.095  0.00  0.00     0.028 C 
ATOM      5  C   LIG d   1       4.191  85.295 115.227  0.00  0.00    -0.047 C 
ATOM      6  C   LIG d   1       2.968  84.517 114.693  0.00  0.00     0.091 C 
ENDROOT
BRANCH   1   7
ATOM      7  O   LIG d   1       1.039  84.723 113.195  0.00  0.00    -0.368 OA
BRANCH   7   8
ATOM      8  C   LIG d   1       1.223  84.927 111.772  0.00  0.00     0.119 C 
BRANCH   8   9
ATOM      9  C   LIG d   1      -0.164  85.210 111.163  0.00  0.00     0.028 C 
ATOM     10  C   LIG d   1      -0.643  86.646 111.435  0.00  0.00     0.006 C 
ENDBRANCH   8   9
BRANCH   8  11
ATOM     11  C   LIG d   1       1.716  83.650 111.085  0.00  0.00     0.028 C 
ATOM     12  C   LIG d   1       3.248  83.543 111.056  0.00  0.00     0.006 C 
ENDBRANCH   8  11
ENDBRANCH   7   8
ENDBRANCH   1   7
BRANCH   6  13
ATOM     13  N   LIG d   1       2.283  83.738 115.757  0.00  0.00    -0.311 N 
ATOM     14  C   LIG d   1       2.552  82.460 116.019  0.00  0.00     0.210 C 
ATOM     15  C   LIG d   1       1.717  81.840 117.144  0.00  0.00     0.109 C 
ATOM     16  O   LIG d   1       3.425  81.789 115.447  0.00  0.00    -0.276 OA
ATOM     17  H   LIG d   1       1.582  84.213 116.291  0.00  0.00     0.149 HD
ENDBRANCH   6  13
BRANCH   5  18
ATOM     18  N   LIG d   1       5.262  84.415 115.732  0.00  0.00     0.381 N 
ATOM     19  H   LIG d   1       5.174  83.506 115.323  0.00  0.00    -0.090 HD
ATOM     20  H   LIG d   1       5.164  84.323 116.728  0.00  0.00    -0.090 HD
ATOM     21  H   LIG d   1       6.153  84.801 115.512  0.00  0.00    -0.090 HD
ENDBRANCH   5  18
BRANCH   3  22
ATOM     22  C   LIG d   1       4.243  88.127 112.883  0.00  0.00     0.382 C 
ATOM     23  O   LIG d   1       5.465  88.341 112.696  0.00  0.00    -0.241 OA
ATOM     24  O   LIG d   1       3.416  89.016 112.607  0.00  0.00    -0.241 OA
ENDBRANCH   3  22
TORSDOF 7
ENDMDL
MODEL 5
REMARK VINA RESULT:      -4.9     10.461     13.226
REMARK  7 active torsions:
REMARK  status: ('A' for Active; 'I' for Inactive)
REMARK    1  A    between atoms: C_2  and  C_3 
REMARK    2  A    between atoms: C_3  and  O_6 
REMARK    3  A    between atoms: C_3  and  C_4 
REMARK    4  A    between atoms: C_7  and  O_6 
REMARK    5  A    between atoms: C_9  and  C_10 
REMARK    6  A    between atoms: N_15  and  C_14 
REMARK    7  A    between atoms: N_20  and  C_19 
REMARK       I    between atoms: C_22  and  N_20 
ROOT
ATOM      1  C   LIG d   1      11.857  78.297 114.703  0.00  0.00     0.161 C 
ATOM      2  C   LIG d   1      10.540  78.662 115.030  0.00  0.00     0.016 C 
ATOM      3  C   LIG d   1       9.569  77.742 115.487  0.00  0.00     0.038 C 
ATOM      4  C   LIG d   1       9.894  76.412 115.794  0.00  0.00     0.028 C 
ATOM      5  C   LIG d   1      11.083  75.880 115.002  0.00  0.00    -0.047 C 
ATOM      6  C   LIG d   1      12.260  76.873 115.138  0.00  0.00     0.091 C 
ENDROOT
BRANCH   1   7
ATOM      7  O   LIG d   1      12.780  79.265 115.240  0.00  0.00    -0.368 OA
BRANCH   7   8
ATOM      8  C   LIG d   1      13.103  80.384 114.378  0.00  0.00     0.119 C 
BRANCH   8   9
ATOM      9  C   LIG d   1      13.005  79.890 112.922  0.00  0.00     0.028 C 
ATOM     10  C   LIG d   1      11.996  80.703 112.094  0.00  0.00     0.006 C 
ENDBRANCH   8   9
BRANCH   8  11
ATOM     11  C   LIG d   1      14.559  80.824 114.560  0.00  0.00     0.028 C 
ATOM     12  C   LIG d   1      15.565  79.789 114.033  0.00  0.00     0.006 C 
ENDBRANCH   8  11
ENDBRANCH   7   8
ENDBRANCH   1   7
BRANCH   6  13
ATOM     13  N   LIG d   1      13.437  76.470 114.324  0.00  0.00    -0.311 N 
ATOM     14  C   LIG d   1      14.643  76.242 114.842  0.00  0.00     0.210 C 
ATOM     15  C   LIG d   1      15.722  75.857 113.824  0.00  0.00     0.109 C 
ATOM     16  O   LIG d   1      14.914  76.289 116.051  0.00  0.00    -0.276 OA
ATOM     17  H   LIG d   1      13.299  76.378 113.337  0.00  0.00     0.149 HD
ENDBRANCH   6  13
BRANCH   5  18
ATOM     18  N   LIG d   1      11.398  74.535 115.519  0.00  0.00     0.381 N 
ATOM     19  H   LIG d   1      12.179  74.155 115.023  0.00  0.00    -0.090 HD
ATOM     20  H   LIG d   1      10.606  73.935 115.369  0.00  0.00    -0.090 HD
ATOM     21  H   LIG d   1      11.606  74.584 116.492  0.00  0.00    -0.090 HD
ENDBRANCH   5  18
BRANCH   3  22
ATOM     22  C   LIG d   1       8.246  78.140 115.603  0.00  0.00     0.382 C 
ATOM     23  O   LIG d   1       7.371  77.632 114.861  0.00  0.00    -0.241 OA
ATOM     24  O   LIG d   1       7.923  79.033 116.410  0.00  0.00    -0.241 OA
ENDBRANCH   3  22
TORSDOF 7
ENDMDL
MODEL 6
REMARK VINA RESULT:      -4.8     10.046     12.343
REMARK  7 active torsions:
REMARK  status: ('A' for Active; 'I' for Inactive)
REMARK    1  A    between atoms: C_2  and  C_3 
REMARK    2  A    between atoms: C_3  and  O_6 
REMARK    3  A    between atoms: C_3  and  C_4 
REMARK    4  A    between atoms: C_7  and  O_6 
REMARK    5  A    between atoms: C_9  and  C_10 
REMARK    6  A    between atoms: N_15  and  C_14 
REMARK    7  A    between atoms: N_20  and  C_19 
REMARK       I    between atoms: C_22  and  N_20 
ROOT
ATOM      1  C   LIG d   1      10.960  77.808 115.427  0.00  0.00     0.161 C 
ATOM      2  C   LIG d   1      11.254  79.000 114.744  0.00  0.00     0.016 C 
ATOM      3  C   LIG d   1      12.437  79.196 113.995  0.00  0.00     0.038 C 
ATOM      4  C   LIG d   1      13.343  78.153 113.753  0.00  0.00     0.028 C 
ATOM      5  C   LIG d   1      13.339  77.083 114.839  0.00  0.00    -0.047 C 
ATOM      6  C   LIG d   1      11.884  76.621 115.083  0.00  0.00     0.091 C 
ENDROOT
BRANCH   1   7
ATOM      7  O   LIG d   1       9.581  77.448 115.211  0.00  0.00    -0.368 OA
BRANCH   7   8
ATOM      8  C   LIG d   1       8.618  78.045 116.115  0.00  0.00     0.119 C 
BRANCH   8   9
ATOM      9  C   LIG d   1       8.417  77.067 117.289  0.00  0.00     0.028 C 
ATOM     10  C   LIG d   1       9.108  77.546 118.577  0.00  0.00     0.006 C 
ENDBRANCH   8   9
BRANCH   8  11
ATOM     11  C   LIG d   1       7.242  78.175 115.456  0.00  0.00     0.028 C 
ATOM     12  C   LIG d   1       6.099  78.282 116.478  0.00  0.00     0.006 C 
ENDBRANCH   8  11
ENDBRANCH   7   8
ENDBRANCH   1   7
BRANCH   6  13
ATOM     13  N   LIG d   1      11.780  75.635 116.190  0.00  0.00    -0.311 N 
ATOM     14  C   LIG d   1      11.864  74.318 116.009  0.00  0.00     0.210 C 
ATOM     15  C   LIG d   1      11.711  73.479 117.282  0.00  0.00     0.109 C 
ATOM     16  O   LIG d   1      12.082  73.766 114.920  0.00  0.00    -0.276 OA
ATOM     17  H   LIG d   1      11.634  75.997 117.112  0.00  0.00     0.149 HD
ENDBRANCH   6  13
BRANCH   5  18
ATOM     18  N   LIG d   1      14.225  75.992 114.393  0.00  0.00     0.381 N 
ATOM     19  H   LIG d   1      13.856  75.573 113.563  0.00  0.00    -0.090 HD
ATOM     20  H   LIG d   1      14.263  75.289 115.111  0.00  0.00    -0.090 HD
ATOM     21  H   LIG d   1      15.140  76.346 114.216  0.00  0.00    -0.090 HD
ENDBRANCH   5  18
BRANCH   3  22
ATOM     22  C   LIG d   1      12.743  80.460 113.513  0.00  0.00     0.382 C 
ATOM     23  O   LIG d   1      13.827  81.007 113.830  0.00  0.00    -0.241 OA
ATOM     24  O   LIG d   1      11.930  81.078 112.800  0.00  0.00    -0.241 OA
ENDBRANCH   3  22
TORSDOF 7
ENDMDL
MODEL 7
REMARK VINA RESULT:      -4.8      2.417      4.794
REMARK  7 active torsions:
REMARK  status: ('A' for Active; 'I' for Inactive)
REMARK    1  A    between atoms: C_2  and  C_3 
REMARK    2  A    between atoms: C_3  and  O_6 
REMARK    3  A    between atoms: C_3  and  C_4 
REMARK    4  A    between atoms: C_7  and  O_6 
REMARK    5  A    between atoms: C_9  and  C_10 
REMARK    6  A    between atoms: N_15  and  C_14 
REMARK    7  A    between atoms: N_20  and  C_19 
REMARK       I    between atoms: C_22  and  N_20 
ROOT
ATOM      1  C   LIG d   1       2.019  84.467 113.972  0.00  0.00     0.161 C 
ATOM      2  C   LIG d   1       2.064  85.530 113.054  0.00  0.00     0.016 C 
ATOM      3  C   LIG d   1       3.093  86.500 113.038  0.00  0.00     0.038 C 
ATOM      4  C   LIG d   1       4.233  86.386 113.848  0.00  0.00     0.028 C 
ATOM      5  C   LIG d   1       3.985  85.609 115.137  0.00  0.00    -0.047 C 
ATOM      6  C   LIG d   1       3.311  84.262 114.790  0.00  0.00     0.091 C 
ENDROOT
BRANCH   1   7
ATOM      7  O   LIG d   1       1.659  83.249 113.291  0.00  0.00    -0.368 OA
BRANCH   7   8
ATOM      8  C   LIG d   1       2.026  83.169 111.891  0.00  0.00     0.119 C 
BRANCH   8   9
ATOM      9  C   LIG d   1       0.840  82.537 111.137  0.00  0.00     0.028 C 
ATOM     10  C   LIG d   1      -0.388  83.462 111.093  0.00  0.00     0.006 C 
ENDBRANCH   8   9
BRANCH   8  11
ATOM     11  C   LIG d   1       3.200  82.209 111.677  0.00  0.00     0.028 C 
ATOM     12  C   LIG d   1       4.484  82.928 111.234  0.00  0.00     0.006 C 
ENDBRANCH   8  11
ENDBRANCH   7   8
ENDBRANCH   1   7
BRANCH   6  13
ATOM     13  N   LIG d   1       2.957  83.477 116.001  0.00  0.00    -0.311 N 
ATOM     14  C   LIG d   1       3.718  82.497 116.487  0.00  0.00     0.210 C 
ATOM     15  C   LIG d   1       3.159  81.802 117.732  0.00  0.00     0.109 C 
ATOM     16  O   LIG d   1       4.818  82.160 116.024  0.00  0.00    -0.276 OA
ATOM     17  H   LIG d   1       2.096  83.706 116.457  0.00  0.00     0.149 HD
ENDBRANCH   6  13
BRANCH   5  18
ATOM     18  N   LIG d   1       5.284  85.448 115.816  0.00  0.00     0.381 N 
ATOM     19  H   LIG d   1       5.921  84.960 115.218  0.00  0.00    -0.090 HD
ATOM     20  H   LIG d   1       5.150  84.900 116.648  0.00  0.00    -0.090 HD
ATOM     21  H   LIG d   1       5.658  86.340 116.054  0.00  0.00    -0.090 HD
ENDBRANCH   5  18
BRANCH   3  22
ATOM     22  C   LIG d   1       2.966  87.622 112.233  0.00  0.00     0.382 C 
ATOM     23  O   LIG d   1       3.240  88.757 112.692  0.00  0.00    -0.241 OA
ATOM     24  O   LIG d   1       2.540  87.518 111.067  0.00  0.00    -0.241 OA
ENDBRANCH   3  22
TORSDOF 7
ENDMDL
MODEL 8
REMARK VINA RESULT:      -4.8     11.942     15.140
REMARK  7 active torsions:
REMARK  status: ('A' for Active; 'I' for Inactive)
REMARK    1  A    between atoms: C_2  and  C_3 
REMARK    2  A    between atoms: C_3  and  O_6 
REMARK    3  A    between atoms: C_3  and  C_4 
REMARK    4  A    between atoms: C_7  and  O_6 
REMARK    5  A    between atoms: C_9  and  C_10 
REMARK    6  A    between atoms: N_15  and  C_14 
REMARK    7  A    between atoms: N_20  and  C_19 
REMARK       I    between atoms: C_22  and  N_20 
ROOT
ATOM      1  C   LIG d   1      -8.266  77.824 117.927  0.00  0.00     0.161 C 
ATOM      2  C   LIG d   1      -9.472  77.129 118.113  0.00  0.00     0.016 C 
ATOM      3  C   LIG d   1      -9.712  75.834 117.597  0.00  0.00     0.038 C 
ATOM      4  C   LIG d   1      -8.700  75.081 116.984  0.00  0.00     0.028 C 
ATOM      5  C   LIG d   1      -7.620  75.936 116.330  0.00  0.00    -0.047 C 
ATOM      6  C   LIG d   1      -7.111  76.974 117.357  0.00  0.00     0.091 C 
ENDROOT
BRANCH   1   7
ATOM      7  O   LIG d   1      -7.866  78.448 119.163  0.00  0.00    -0.368 OA
BRANCH   7   8
ATOM      8  C   LIG d   1      -7.944  79.894 119.201  0.00  0.00     0.119 C 
BRANCH   8   9
ATOM      9  C   LIG d   1      -8.602  80.357 117.887  0.00  0.00     0.028 C 
ATOM     10  C   LIG d   1     -10.000  80.958 118.111  0.00  0.00     0.006 C 
ENDBRANCH   8   9
BRANCH   8  11
ATOM     11  C   LIG d   1      -6.549  80.527 119.201  0.00  0.00     0.028 C 
ATOM     12  C   LIG d   1      -6.247  81.303 117.909  0.00  0.00     0.006 C 
ENDBRANCH   8  11
ENDBRANCH   7   8
ENDBRANCH   1   7
BRANCH   6  13
ATOM     13  N   LIG d   1      -6.112  77.907 116.772  0.00  0.00    -0.311 N 
ATOM     14  C   LIG d   1      -4.796  77.732 116.879  0.00  0.00     0.210 C 
ATOM     15  C   LIG d   1      -3.944  78.822 116.221  0.00  0.00     0.109 C 
ATOM     16  O   LIG d   1      -4.254  76.762 117.429  0.00  0.00    -0.276 OA
ATOM     17  H   LIG d   1      -6.466  78.705 116.282  0.00  0.00     0.149 HD
ENDBRANCH   6  13
BRANCH   5  18
ATOM     18  N   LIG d   1      -6.561  75.028 115.852  0.00  0.00     0.381 N 
ATOM     19  H   LIG d   1      -6.538  75.031 114.852  0.00  0.00    -0.090 HD
ATOM     20  H   LIG d   1      -6.769  74.095 116.161  0.00  0.00    -0.090 HD
ATOM     21  H   LIG d   1      -5.677  75.315 116.212  0.00  0.00    -0.090 HD
ENDBRANCH   5  18
BRANCH   3  22
ATOM     22  C   LIG d   1     -10.989  75.296 117.657  0.00  0.00     0.382 C 
ATOM     23  O   LIG d   1     -11.947  75.999 118.058  0.00  0.00    -0.241 OA
ATOM     24  O   LIG d   1     -11.186  74.104 117.356  0.00  0.00    -0.241 OA
ENDBRANCH   3  22
TORSDOF 7
ENDMDL
MODEL 9
REMARK VINA RESULT:      -4.7     10.315     12.017
REMARK  7 active torsions:
REMARK  status: ('A' for Active; 'I' for Inactive)
REMARK    1  A    between atoms: C_2  and  C_3 
REMARK    2  A    between atoms: C_3  and  O_6 
REMARK    3  A    between atoms: C_3  and  C_4 
REMARK    4  A    between atoms: C_7  and  O_6 
REMARK    5  A    between atoms: C_9  and  C_10 
REMARK    6  A    between atoms: N_15  and  C_14 
REMARK    7  A    between atoms: N_20  and  C_19 
REMARK       I    between atoms: C_22  and  N_20 
ROOT
ATOM      1  C   LIG d   1      -5.294  92.894 117.675  0.00  0.00     0.161 C 
ATOM      2  C   LIG d   1      -5.798  94.090 118.211  0.00  0.00     0.016 C 
ATOM      3  C   LIG d   1      -6.914  94.773 117.675  0.00  0.00     0.038 C 
ATOM      4  C   LIG d   1      -7.699  94.223 116.651  0.00  0.00     0.028 C 
ATOM      5  C   LIG d   1      -6.931  93.264 115.748  0.00  0.00    -0.047 C 
ATOM      6  C   LIG d   1      -6.204  92.220 116.627  0.00  0.00     0.091 C 
ENDROOT
BRANCH   1   7
ATOM      7  O   LIG d   1      -4.988  91.972 118.740  0.00  0.00    -0.368 OA
BRANCH   7   8
ATOM      8  C   LIG d   1      -3.594  91.879 119.122  0.00  0.00     0.119 C 
BRANCH   8   9
ATOM      9  C   LIG d   1      -2.765  92.570 118.022  0.00  0.00     0.028 C 
ATOM     10  C   LIG d   1      -1.674  93.487 118.598  0.00  0.00     0.006 C 
ENDBRANCH   8   9
BRANCH   8  11
ATOM     11  C   LIG d   1      -3.116  90.424 119.136  0.00  0.00     0.028 C 
ATOM     12  C   LIG d   1      -2.703  89.919 117.745  0.00  0.00     0.006 C 
ENDBRANCH   8  11
ENDBRANCH   7   8
ENDBRANCH   1   7
BRANCH   6  13
ATOM     13  N   LIG d   1      -5.361  91.294 115.827  0.00  0.00    -0.311 N 
ATOM     14  C   LIG d   1      -5.826  90.181 115.263  0.00  0.00     0.210 C 
ATOM     15  C   LIG d   1      -4.784  89.359 114.498  0.00  0.00     0.109 C 
ATOM     16  O   LIG d   1      -7.010  89.813 115.295  0.00  0.00    -0.276 OA
ATOM     17  H   LIG d   1      -4.394  91.532 115.723  0.00  0.00     0.149 HD
ENDBRANCH   6  13
BRANCH   5  18
ATOM     18  N   LIG d   1      -7.899  92.659 114.814  0.00  0.00     0.381 N 
ATOM     19  H   LIG d   1      -8.315  91.851 115.233  0.00  0.00    -0.090 HD
ATOM     20  H   LIG d   1      -7.413  92.369 113.984  0.00  0.00    -0.090 HD
ATOM     21  H   LIG d   1      -8.606  93.321 114.579  0.00  0.00    -0.090 HD
ENDBRANCH   5  18
BRANCH   3  22
ATOM     22  C   LIG d   1      -7.231  96.041 118.138  0.00  0.00     0.382 C 
ATOM     23  O   LIG d   1      -7.739  96.184 119.276  0.00  0.00    -0.241 OA
ATOM     24  O   LIG d   1      -7.055  97.040 117.415  0.00  0.00    -0.241 OA
ENDBRANCH   3  22
TORSDOF 7
ENDMDL
