MODEL 1
REMARK VINA RESULT:      -5.9      0.000      0.000
REMARK  7 active torsions:
REMARK  status: ('A' for Active; 'I' for Inactive)
REMARK    1  A    between atoms: C_2  and  C_3 
REMARK    2  A    between atoms: C_3  and  O_6 
REMARK    3  A    between atoms: C_3  and  C_4 
REMARK    4  A    between atoms: C_7  and  O_6 
REMARK    5  A    between atoms: C_9  and  C_10 
REMARK    6  A    between atoms: N_15  and  C_14 
REMARK    7  A    between atoms: N_20  and  C_19 
REMARK       I    between atoms: C_22  and  N_20 
ROOT
ATOM      1  C   LIG d   1      -7.289  75.846 117.824  0.00  0.00     0.161 C 
ATOM      2  C   LIG d   1      -8.353  76.746 117.997  0.00  0.00     0.016 C 
ATOM      3  C   LIG d   1      -8.189  78.150 118.020  0.00  0.00     0.038 C 
ATOM      4  C   LIG d   1      -6.961  78.758 117.718  0.00  0.00     0.028 C 
ATOM      5  C   LIG d   1      -5.756  77.879 118.036  0.00  0.00    -0.047 C 
ATOM      6  C   LIG d   1      -5.960  76.493 117.383  0.00  0.00     0.091 C 
ENDROOT
BRANCH   1   7
ATOM      7  O   LIG d   1      -7.672  74.808 116.900  0.00  0.00    -0.368 OA
BRANCH   7   8
ATOM      8  C   LIG d   1      -8.117  73.561 117.490  0.00  0.00     0.119 C 
BRANCH   8   9
ATOM      9  C   LIG d   1      -7.025  72.507 117.222  0.00  0.00     0.028 C 
ATOM     10  C   LIG d   1      -7.597  71.084 117.115  0.00  0.00     0.006 C 
ENDBRANCH   8   9
BRANCH   8  11
ATOM     11  C   LIG d   1      -9.372  73.031 116.792  0.00  0.00     0.028 C 
ATOM     12  C   LIG d   1     -10.316  74.153 116.330  0.00  0.00     0.006 C 
ENDBRANCH   8  11
ENDBRANCH   7   8
ENDBRANCH   1   7
BRANCH   6  13
ATOM     13  N   LIG d   1      -4.865  75.544 117.714  0.00  0.00    -0.311 N 
ATOM     14  C   LIG d   1      -4.215  74.826 116.800  0.00  0.00     0.210 C 
ATOM     15  C   LIG d   1      -3.135  73.894 117.358  0.00  0.00     0.109 C 
ATOM     16  O   LIG d   1      -4.408  74.897 115.577  0.00  0.00    -0.276 OA
ATOM     17  H   LIG d   1      -4.623  75.447 118.681  0.00  0.00     0.149 HD
ENDBRANCH   6  13
BRANCH   5  18
ATOM     18  N   LIG d   1      -4.553  78.578 117.546  0.00  0.00     0.381 N 
ATOM     19  H   LIG d   1      -4.676  79.567 117.636  0.00  0.00    -0.090 HD
ATOM     20  H   LIG d   1      -4.426  78.363 116.573  0.00  0.00    -0.090 HD
ATOM     21  H   LIG d   1      -3.754  78.287 118.065  0.00  0.00    -0.090 HD
ENDBRANCH   5  18
BRANCH   3  22
ATOM     22  C   LIG d   1      -9.253  78.961 118.387  0.00  0.00     0.382 C 
ATOM     23  O   LIG d   1     -10.414  78.488 118.434  0.00  0.00    -0.241 OA
ATOM     24  O   LIG d   1      -9.072  80.169 118.628  0.00  0.00    -0.241 OA
ENDBRANCH   3  22
TORSDOF 7
ENDMDL
MODEL 2
REMARK VINA RESULT:      -5.4      2.682      5.293
REMARK  7 active torsions:
REMARK  status: ('A' for Active; 'I' for Inactive)
REMARK    1  A    between atoms: C_2  and  C_3 
REMARK    2  A    between atoms: C_3  and  O_6 
REMARK    3  A    between atoms: C_3  and  C_4 
REMARK    4  A    between atoms: C_7  and  O_6 
REMARK    5  A    between atoms: C_9  and  C_10 
REMARK    6  A    between atoms: N_15  and  C_14 
REMARK    7  A    between atoms: N_20  and  C_19 
REMARK       I    between atoms: C_22  and  N_20 
ROOT
ATOM      1  C   LIG d   1      -5.123  74.385 117.133  0.00  0.00     0.161 C 
ATOM      2  C   LIG d   1      -6.018  73.305 117.047  0.00  0.00     0.016 C 
ATOM      3  C   LIG d   1      -7.423  73.451 117.112  0.00  0.00     0.038 C 
ATOM      4  C   LIG d   1      -8.037  74.712 117.116  0.00  0.00     0.028 C 
ATOM      5  C   LIG d   1      -7.163  75.811 117.712  0.00  0.00    -0.047 C 
ATOM      6  C   LIG d   1      -5.779  75.778 117.026  0.00  0.00     0.091 C 
ENDROOT
BRANCH   1   7
ATOM      7  O   LIG d   1      -4.087  74.241 116.141  0.00  0.00    -0.368 OA
BRANCH   7   8
ATOM      8  C   LIG d   1      -2.811  73.750 116.620  0.00  0.00     0.119 C 
BRANCH   8   9
ATOM      9  C   LIG d   1      -2.708  74.108 118.115  0.00  0.00     0.028 C 
ATOM     10  C   LIG d   1      -1.700  73.220 118.864  0.00  0.00     0.006 C 
ENDBRANCH   8   9
BRANCH   8  11
ATOM     11  C   LIG d   1      -1.645  74.481 115.947  0.00  0.00     0.028 C 
ATOM     12  C   LIG d   1      -0.645  73.522 115.282  0.00  0.00     0.006 C 
ENDBRANCH   8  11
ENDBRANCH   7   8
ENDBRANCH   1   7
BRANCH   6  13
ATOM     13  N   LIG d   1      -4.834  76.766 117.609  0.00  0.00    -0.311 N 
ATOM     14  C   LIG d   1      -4.103  77.603 116.874  0.00  0.00     0.210 C 
ATOM     15  C   LIG d   1      -3.178  78.525 117.674  0.00  0.00     0.109 C 
ATOM     16  O   LIG d   1      -4.156  77.690 115.638  0.00  0.00    -0.276 OA
ATOM     17  H   LIG d   1      -4.751  76.784 118.606  0.00  0.00     0.149 HD
ENDBRANCH   6  13
BRANCH   5  18
ATOM     18  N   LIG d   1      -7.870  77.092 117.527  0.00  0.00     0.381 N 
ATOM     19  H   LIG d   1      -7.219  77.802 117.257  0.00  0.00    -0.090 HD
ATOM     20  H   LIG d   1      -8.287  77.362 118.401  0.00  0.00    -0.090 HD
ATOM     21  H   LIG d   1      -8.575  76.995 116.830  0.00  0.00    -0.090 HD
ENDBRANCH   5  18
BRANCH   3  22
ATOM     22  C   LIG d   1      -8.227  72.326 117.214  0.00  0.00     0.382 C 
ATOM     23  O   LIG d   1      -9.340  72.401 117.788  0.00  0.00    -0.241 OA
ATOM     24  O   LIG d   1      -7.834  71.227 116.779  0.00  0.00    -0.241 OA
ENDBRANCH   3  22
TORSDOF 7
ENDMDL
MODEL 3
REMARK VINA RESULT:      -5.2     14.455     16.576
REMARK  7 active torsions:
REMARK  status: ('A' for Active; 'I' for Inactive)
REMARK    1  A    between atoms: C_2  and  C_3 
REMARK    2  A    between atoms: C_3  and  O_6 
REMARK    3  A    between atoms: C_3  and  C_4 
REMARK    4  A    between atoms: C_7  and  O_6 
REMARK    5  A    between atoms: C_9  and  C_10 
REMARK    6  A    between atoms: N_15  and  C_14 
REMARK    7  A    between atoms: N_20  and  C_19 
REMARK       I    between atoms: C_22  and  N_20 
ROOT
ATOM      1  C   LIG d   1       3.496  87.851 115.219  0.00  0.00     0.161 C 
ATOM      2  C   LIG d   1       3.805  88.609 116.361  0.00  0.00     0.016 C 
ATOM      3  C   LIG d   1       4.819  89.594 116.389  0.00  0.00     0.038 C 
ATOM      4  C   LIG d   1       5.495  89.997 115.228  0.00  0.00     0.028 C 
ATOM      5  C   LIG d   1       5.568  88.909 114.162  0.00  0.00    -0.047 C 
ATOM      6  C   LIG d   1       4.146  88.354 113.913  0.00  0.00     0.091 C 
ENDROOT
BRANCH   1   7
ATOM      7  O   LIG d   1       2.065  87.763 115.064  0.00  0.00    -0.368 OA
BRANCH   7   8
ATOM      8  C   LIG d   1       1.447  86.542 115.540  0.00  0.00     0.119 C 
BRANCH   8   9
ATOM      9  C   LIG d   1       0.852  85.818 114.317  0.00  0.00     0.028 C 
ATOM     10  C   LIG d   1       1.499  84.443 114.078  0.00  0.00     0.006 C 
ENDBRANCH   8   9
BRANCH   8  11
ATOM     11  C   LIG d   1       0.254  86.841 116.454  0.00  0.00     0.028 C 
ATOM     12  C   LIG d   1       0.485  86.383 117.903  0.00  0.00     0.006 C 
ENDBRANCH   8  11
ENDBRANCH   7   8
ENDBRANCH   1   7
BRANCH   6  13
ATOM     13  N   LIG d   1       4.140  87.227 112.945  0.00  0.00    -0.311 N 
ATOM     14  C   LIG d   1       3.290  87.143 111.923  0.00  0.00     0.210 C 
ATOM     15  C   LIG d   1       3.440  85.889 111.057  0.00  0.00     0.109 C 
ATOM     16  O   LIG d   1       2.447  88.005 111.632  0.00  0.00    -0.276 OA
ATOM     17  H   LIG d   1       4.811  86.498 113.088  0.00  0.00     0.149 HD
ENDBRANCH   6  13
BRANCH   5  18
ATOM     18  N   LIG d   1       6.174  89.505 112.957  0.00  0.00     0.381 N 
ATOM     19  H   LIG d   1       6.564  88.785 112.382  0.00  0.00    -0.090 HD
ATOM     20  H   LIG d   1       6.916  90.122 113.238  0.00  0.00    -0.090 HD
ATOM     21  H   LIG d   1       5.487  90.013 112.445  0.00  0.00    -0.090 HD
ENDBRANCH   5  18
BRANCH   3  22
ATOM     22  C   LIG d   1       5.193  90.160 117.599  0.00  0.00     0.382 C 
ATOM     23  O   LIG d   1       4.574  89.863 118.648  0.00  0.00    -0.241 OA
ATOM     24  O   LIG d   1       6.114  90.998 117.646  0.00  0.00    -0.241 OA
ENDBRANCH   3  22
TORSDOF 7
ENDMDL
MODEL 4
REMARK VINA RESULT:      -4.9      2.244      5.050
REMARK  7 active torsions:
REMARK  status: ('A' for Active; 'I' for Inactive)
REMARK    1  A    between atoms: C_2  and  C_3 
REMARK    2  A    between atoms: C_3  and  O_6 
REMARK    3  A    between atoms: C_3  and  C_4 
REMARK    4  A    between atoms: C_7  and  O_6 
REMARK    5  A    between atoms: C_9  and  C_10 
REMARK    6  A    between atoms: N_15  and  C_14 
REMARK    7  A    between atoms: N_20  and  C_19 
REMARK       I    between atoms: C_22  and  N_20 
ROOT
ATOM      1  C   LIG d   1      -6.337  76.605 116.173  0.00  0.00     0.161 C 
ATOM      2  C   LIG d   1      -7.361  75.824 116.734  0.00  0.00     0.016 C 
ATOM      3  C   LIG d   1      -7.163  74.507 117.210  0.00  0.00     0.038 C 
ATOM      4  C   LIG d   1      -5.886  73.934 117.295  0.00  0.00     0.028 C 
ATOM      5  C   LIG d   1      -4.901  74.494 116.274  0.00  0.00    -0.047 C 
ATOM      6  C   LIG d   1      -4.915  76.038 116.359  0.00  0.00     0.091 C 
ENDROOT
BRANCH   1   7
ATOM      7  O   LIG d   1      -6.411  77.950 116.687  0.00  0.00    -0.368 OA
BRANCH   7   8
ATOM      8  C   LIG d   1      -6.819  78.082 118.071  0.00  0.00     0.119 C 
BRANCH   8   9
ATOM      9  C   LIG d   1      -7.846  79.229 118.144  0.00  0.00     0.028 C 
ATOM     10  C   LIG d   1      -9.296  78.718 118.162  0.00  0.00     0.006 C 
ENDBRANCH   8   9
BRANCH   8  11
ATOM     11  C   LIG d   1      -5.651  78.527 118.956  0.00  0.00     0.028 C 
ATOM     12  C   LIG d   1      -5.571  80.054 119.115  0.00  0.00     0.006 C 
ENDBRANCH   8  11
ENDBRANCH   7   8
ENDBRANCH   1   7
BRANCH   6  13
ATOM     13  N   LIG d   1      -4.041  76.669 115.337  0.00  0.00    -0.311 N 
ATOM     14  C   LIG d   1      -3.113  77.580 115.626  0.00  0.00     0.210 C 
ATOM     15  C   LIG d   1      -2.336  78.118 114.421  0.00  0.00     0.109 C 
ATOM     16  O   LIG d   1      -2.837  77.969 116.771  0.00  0.00    -0.276 OA
ATOM     17  H   LIG d   1      -4.175  76.388 114.385  0.00  0.00     0.149 HD
ENDBRANCH   6  13
BRANCH   5  18
ATOM     18  N   LIG d   1      -3.578  73.911 116.565  0.00  0.00     0.381 N 
ATOM     19  H   LIG d   1      -3.603  72.922 116.413  0.00  0.00    -0.090 HD
ATOM     20  H   LIG d   1      -3.355  74.076 117.531  0.00  0.00    -0.090 HD
ATOM     21  H   LIG d   1      -2.886  74.326 115.981  0.00  0.00    -0.090 HD
ENDBRANCH   5  18
BRANCH   3  22
ATOM     22  C   LIG d   1      -8.258  73.735 117.569  0.00  0.00     0.382 C 
ATOM     23  O   LIG d   1      -9.321  73.808 116.908  0.00  0.00    -0.241 OA
ATOM     24  O   LIG d   1      -8.209  72.999 118.573  0.00  0.00    -0.241 OA
ENDBRANCH   3  22
TORSDOF 7
ENDMDL
MODEL 5
REMARK VINA RESULT:      -4.9     16.162     18.960
REMARK  7 active torsions:
REMARK  status: ('A' for Active; 'I' for Inactive)
REMARK    1  A    between atoms: C_2  and  C_3 
REMARK    2  A    between atoms: C_3  and  O_6 
REMARK    3  A    between atoms: C_3  and  C_4 
REMARK    4  A    between atoms: C_7  and  O_6 
REMARK    5  A    between atoms: C_9  and  C_10 
REMARK    6  A    between atoms: N_15  and  C_14 
REMARK    7  A    between atoms: N_20  and  C_19 
REMARK       I    between atoms: C_22  and  N_20 
ROOT
ATOM      1  C   LIG d   1      10.922  78.626 114.701  0.00  0.00     0.161 C 
ATOM      2  C   LIG d   1      10.451  77.338 114.395  0.00  0.00     0.016 C 
ATOM      3  C   LIG d   1       9.387  76.714 115.086  0.00  0.00     0.038 C 
ATOM      4  C   LIG d   1       8.617  77.400 116.037  0.00  0.00     0.028 C 
ATOM      5  C   LIG d   1       9.375  78.525 116.733  0.00  0.00    -0.047 C 
ATOM      6  C   LIG d   1      10.022  79.432 115.661  0.00  0.00     0.091 C 
ENDROOT
BRANCH   1   7
ATOM      7  O   LIG d   1      11.146  79.366 113.485  0.00  0.00    -0.368 OA
BRANCH   7   8
ATOM      8  C   LIG d   1      12.513  79.775 113.231  0.00  0.00     0.119 C 
BRANCH   8   9
ATOM      9  C   LIG d   1      12.476  81.236 112.745  0.00  0.00     0.028 C 
ATOM     10  C   LIG d   1      11.188  81.566 111.972  0.00  0.00     0.006 C 
ENDBRANCH   8   9
BRANCH   8  11
ATOM     11  C   LIG d   1      13.127  78.978 112.075  0.00  0.00     0.028 C 
ATOM     12  C   LIG d   1      13.726  77.638 112.527  0.00  0.00     0.006 C 
ENDBRANCH   8  11
ENDBRANCH   7   8
ENDBRANCH   1   7
BRANCH   6  13
ATOM     13  N   LIG d   1      10.853  80.511 116.257  0.00  0.00    -0.311 N 
ATOM     14  C   LIG d   1      10.705  81.800 115.959  0.00  0.00     0.210 C 
ATOM     15  C   LIG d   1      11.678  82.745 116.671  0.00  0.00     0.109 C 
ATOM     16  O   LIG d   1       9.838  82.255 115.197  0.00  0.00    -0.276 OA
ATOM     17  H   LIG d   1      11.560  80.234 116.910  0.00  0.00     0.149 HD
ENDBRANCH   6  13
BRANCH   5  18
ATOM     18  N   LIG d   1       8.417  79.242 117.595  0.00  0.00     0.381 N 
ATOM     19  H   LIG d   1       7.839  79.837 117.037  0.00  0.00    -0.090 HD
ATOM     20  H   LIG d   1       8.928  79.816 118.243  0.00  0.00    -0.090 HD
ATOM     21  H   LIG d   1       7.852  78.590 118.093  0.00  0.00    -0.090 HD
ENDBRANCH   5  18
BRANCH   3  22
ATOM     22  C   LIG d   1       9.110  75.375 114.856  0.00  0.00     0.382 C 
ATOM     23  O   LIG d   1       8.059  75.047 114.254  0.00  0.00    -0.241 OA
ATOM     24  O   LIG d   1       9.875  74.489 115.281  0.00  0.00    -0.241 OA
ENDBRANCH   3  22
TORSDOF 7
ENDMDL
MODEL 6
REMARK VINA RESULT:      -4.8     13.025     15.131
REMARK  7 active torsions:
REMARK  status: ('A' for Active; 'I' for Inactive)
REMARK    1  A    between atoms: C_2  and  C_3 
REMARK    2  A    between atoms: C_3  and  O_6 
REMARK    3  A    between atoms: C_3  and  C_4 
REMARK    4  A    between atoms: C_7  and  O_6 
REMARK    5  A    between atoms: C_9  and  C_10 
REMARK    6  A    between atoms: N_15  and  C_14 
REMARK    7  A    between atoms: N_20  and  C_19 
REMARK       I    between atoms: C_22  and  N_20 
ROOT
ATOM      1  C   LIG d   1       2.953  86.055 113.592  0.00  0.00     0.161 C 
ATOM      2  C   LIG d   1       3.483  87.260 113.102  0.00  0.00     0.016 C 
ATOM      3  C   LIG d   1       4.460  88.017 113.788  0.00  0.00     0.038 C 
ATOM      4  C   LIG d   1       5.087  87.539 114.949  0.00  0.00     0.028 C 
ATOM      5  C   LIG d   1       4.224  86.569 115.748  0.00  0.00    -0.047 C 
ATOM      6  C   LIG d   1       3.705  85.462 114.802  0.00  0.00     0.091 C 
ENDROOT
BRANCH   1   7
ATOM      7  O   LIG d   1       2.874  85.087 112.527  0.00  0.00    -0.368 OA
BRANCH   7   8
ATOM      8  C   LIG d   1       1.586  84.959 111.876  0.00  0.00     0.119 C 
BRANCH   8   9
ATOM      9  C   LIG d   1       0.507  85.359 112.900  0.00  0.00     0.028 C 
ATOM     10  C   LIG d   1      -0.714  86.019 112.239  0.00  0.00     0.006 C 
ENDBRANCH   8   9
BRANCH   8  11
ATOM     11  C   LIG d   1       1.285  83.500 111.518  0.00  0.00     0.028 C 
ATOM     12  C   LIG d   1       1.649  82.523 112.646  0.00  0.00     0.006 C 
ENDBRANCH   8  11
ENDBRANCH   7   8
ENDBRANCH   1   7
BRANCH   6  13
ATOM     13  N   LIG d   1       2.784  84.517 115.485  0.00  0.00    -0.311 N 
ATOM     14  C   LIG d   1       3.173  83.345 115.982  0.00  0.00     0.210 C 
ATOM     15  C   LIG d   1       2.059  82.515 116.629  0.00  0.00     0.109 C 
ATOM     16  O   LIG d   1       4.340  82.927 115.977  0.00  0.00    -0.276 OA
ATOM     17  H   LIG d   1       1.824  84.791 115.561  0.00  0.00     0.149 HD
ENDBRANCH   6  13
BRANCH   5  18
ATOM     18  N   LIG d   1       5.049  86.045 116.853  0.00  0.00     0.381 N 
ATOM     19  H   LIG d   1       4.458  85.707 117.586  0.00  0.00    -0.090 HD
ATOM     20  H   LIG d   1       5.612  86.791 117.220  0.00  0.00    -0.090 HD
ATOM     21  H   LIG d   1       5.634  85.309 116.523  0.00  0.00    -0.090 HD
ENDBRANCH   5  18
BRANCH   3  22
ATOM     22  C   LIG d   1       4.789  89.285 113.336  0.00  0.00     0.382 C 
ATOM     23  O   LIG d   1       4.016  90.249 113.552  0.00  0.00    -0.241 OA
ATOM     24  O   LIG d   1       5.830  89.470 112.676  0.00  0.00    -0.241 OA
ENDBRANCH   3  22
TORSDOF 7
ENDMDL
MODEL 7
REMARK VINA RESULT:      -4.8     12.007     14.086
REMARK  7 active torsions:
REMARK  status: ('A' for Active; 'I' for Inactive)
REMARK    1  A    between atoms: C_2  and  C_3 
REMARK    2  A    between atoms: C_3  and  O_6 
REMARK    3  A    between atoms: C_3  and  C_4 
REMARK    4  A    between atoms: C_7  and  O_6 
REMARK    5  A    between atoms: C_9  and  C_10 
REMARK    6  A    between atoms: N_15  and  C_14 
REMARK    7  A    between atoms: N_20  and  C_19 
REMARK       I    between atoms: C_22  and  N_20 
ROOT
ATOM      1  C   LIG d   1       1.766  85.086 114.200  0.00  0.00     0.161 C 
ATOM      2  C   LIG d   1       1.021  84.048 113.614  0.00  0.00     0.016 C 
ATOM      3  C   LIG d   1       0.547  84.086 112.283  0.00  0.00     0.038 C 
ATOM      4  C   LIG d   1       0.917  85.105 111.393  0.00  0.00     0.028 C 
ATOM      5  C   LIG d   1       1.248  86.423 112.085  0.00  0.00    -0.047 C 
ATOM      6  C   LIG d   1       2.274  86.155 113.210  0.00  0.00     0.091 C 
ENDROOT
BRANCH   1   7
ATOM      7  O   LIG d   1       2.866  84.534 114.950  0.00  0.00    -0.368 OA
BRANCH   7   8
ATOM      8  C   LIG d   1       2.734  84.567 116.392  0.00  0.00     0.119 C 
BRANCH   8   9
ATOM      9  C   LIG d   1       2.234  83.180 116.843  0.00  0.00     0.028 C 
ATOM     10  C   LIG d   1       2.966  82.032 116.127  0.00  0.00     0.006 C 
ENDBRANCH   8   9
BRANCH   8  11
ATOM     11  C   LIG d   1       1.646  85.552 116.830  0.00  0.00     0.028 C 
ATOM     12  C   LIG d   1       0.898  85.091 118.091  0.00  0.00     0.006 C 
ENDBRANCH   8  11
ENDBRANCH   7   8
ENDBRANCH   1   7
BRANCH   6  13
ATOM     13  N   LIG d   1       2.589  87.378 113.993  0.00  0.00    -0.311 N 
ATOM     14  C   LIG d   1       3.563  88.226 113.666  0.00  0.00     0.210 C 
ATOM     15  C   LIG d   1       3.733  89.414 114.619  0.00  0.00     0.109 C 
ATOM     16  O   LIG d   1       4.281  88.125 112.660  0.00  0.00    -0.276 OA
ATOM     17  H   LIG d   1       2.035  87.554 114.807  0.00  0.00     0.149 HD
ENDBRANCH   6  13
BRANCH   5  18
ATOM     18  N   LIG d   1       1.749  87.353 111.055  0.00  0.00     0.381 N 
ATOM     19  H   LIG d   1       2.688  87.623 111.271  0.00  0.00    -0.090 HD
ATOM     20  H   LIG d   1       1.176  88.178 111.056  0.00  0.00    -0.090 HD
ATOM     21  H   LIG d   1       1.719  86.919 110.159  0.00  0.00    -0.090 HD
ENDBRANCH   5  18
BRANCH   3  22
ATOM     22  C   LIG d   1      -0.341  83.116 111.842  0.00  0.00     0.382 C 
ATOM     23  O   LIG d   1      -1.268  83.426 111.055  0.00  0.00    -0.241 OA
ATOM     24  O   LIG d   1      -0.253  81.945 112.255  0.00  0.00    -0.241 OA
ENDBRANCH   3  22
TORSDOF 7
ENDMDL
MODEL 8
REMARK VINA RESULT:      -4.8     16.681     19.652
REMARK  7 active torsions:
REMARK  status: ('A' for Active; 'I' for Inactive)
REMARK    1  A    between atoms: C_2  and  C_3 
REMARK    2  A    between atoms: C_3  and  O_6 
REMARK    3  A    between atoms: C_3  and  C_4 
REMARK    4  A    between atoms: C_7  and  O_6 
REMARK    5  A    between atoms: C_9  and  C_10 
REMARK    6  A    between atoms: N_15  and  C_14 
REMARK    7  A    between atoms: N_20  and  C_19 
REMARK       I    between atoms: C_22  and  N_20 
ROOT
ATOM      1  C   LIG d   1      11.195  78.563 114.250  0.00  0.00     0.161 C 
ATOM      2  C   LIG d   1      10.033  77.904 114.686  0.00  0.00     0.016 C 
ATOM      3  C   LIG d   1       9.963  76.508 114.898  0.00  0.00     0.038 C 
ATOM      4  C   LIG d   1      11.101  75.691 114.834  0.00  0.00     0.028 C 
ATOM      5  C   LIG d   1      12.184  76.232 113.907  0.00  0.00    -0.047 C 
ATOM      6  C   LIG d   1      12.476  77.703 114.281  0.00  0.00     0.091 C 
ENDROOT
BRANCH   1   7
ATOM      7  O   LIG d   1      11.385  79.773 115.010  0.00  0.00    -0.368 OA
BRANCH   7   8
ATOM      8  C   LIG d   1      10.793  80.973 114.455  0.00  0.00     0.119 C 
BRANCH   8   9
ATOM      9  C   LIG d   1      11.747  81.498 113.364  0.00  0.00     0.028 C 
ATOM     10  C   LIG d   1      11.112  81.466 111.964  0.00  0.00     0.006 C 
ENDBRANCH   8   9
BRANCH   8  11
ATOM     11  C   LIG d   1      10.716  82.091 115.499  0.00  0.00     0.028 C 
ATOM     12  C   LIG d   1       9.857  83.279 115.039  0.00  0.00     0.006 C 
ENDBRANCH   8  11
ENDBRANCH   7   8
ENDBRANCH   1   7
BRANCH   6  13
ATOM     13  N   LIG d   1      13.464  78.335 113.369  0.00  0.00    -0.311 N 
ATOM     14  C   LIG d   1      14.532  79.007 113.797  0.00  0.00     0.210 C 
ATOM     15  C   LIG d   1      15.412  79.596 112.690  0.00  0.00     0.109 C 
ATOM     16  O   LIG d   1      14.851  79.143 114.988  0.00  0.00    -0.276 OA
ATOM     17  H   LIG d   1      13.299  78.247 112.386  0.00  0.00     0.149 HD
ENDBRANCH   6  13
BRANCH   5  18
ATOM     18  N   LIG d   1      13.364  75.357 114.041  0.00  0.00     0.381 N 
ATOM     19  H   LIG d   1      13.452  74.779 113.229  0.00  0.00    -0.090 HD
ATOM     20  H   LIG d   1      13.237  74.760 114.840  0.00  0.00    -0.090 HD
ATOM     21  H   LIG d   1      14.186  75.908 114.156  0.00  0.00    -0.090 HD
ENDBRANCH   5  18
BRANCH   3  22
ATOM     22  C   LIG d   1       8.736  75.910 115.140  0.00  0.00     0.382 C 
ATOM     23  O   LIG d   1       8.208  75.184 114.263  0.00  0.00    -0.241 OA
ATOM     24  O   LIG d   1       8.128  76.124 116.206  0.00  0.00    -0.241 OA
ENDBRANCH   3  22
TORSDOF 7
ENDMDL
MODEL 9
REMARK VINA RESULT:      -4.7     12.861     15.232
REMARK  7 active torsions:
REMARK  status: ('A' for Active; 'I' for Inactive)
REMARK    1  A    between atoms: C_2  and  C_3 
REMARK    2  A    between atoms: C_3  and  O_6 
REMARK    3  A    between atoms: C_3  and  C_4 
REMARK    4  A    between atoms: C_7  and  O_6 
REMARK    5  A    between atoms: C_9  and  C_10 
REMARK    6  A    between atoms: N_15  and  C_14 
REMARK    7  A    between atoms: N_20  and  C_19 
REMARK       I    between atoms: C_22  and  N_20 
ROOT
ATOM      1  C   LIG d   1       2.905  85.609 114.208  0.00  0.00     0.161 C 
ATOM      2  C   LIG d   1       3.909  86.572 114.402  0.00  0.00     0.016 C 
ATOM      3  C   LIG d   1       4.083  87.695 113.562  0.00  0.00     0.038 C 
ATOM      4  C   LIG d   1       3.162  88.015 112.552  0.00  0.00     0.028 C 
ATOM      5  C   LIG d   1       2.422  86.801 112.001  0.00  0.00    -0.047 C 
ATOM      6  C   LIG d   1       1.824  86.000 113.179  0.00  0.00     0.091 C 
ENDROOT
BRANCH   1   7
ATOM      7  O   LIG d   1       2.297  85.276 115.472  0.00  0.00    -0.368 OA
BRANCH   7   8
ATOM      8  C   LIG d   1       1.938  86.394 116.321  0.00  0.00     0.119 C 
BRANCH   8   9
ATOM      9  C   LIG d   1       2.194  85.968 117.779  0.00  0.00     0.028 C 
ATOM     10  C   LIG d   1       3.295  84.900 117.895  0.00  0.00     0.006 C 
ENDBRANCH   8   9
BRANCH   8  11
ATOM     11  C   LIG d   1       0.439  86.694 116.243  0.00  0.00     0.028 C 
ATOM     12  C   LIG d   1      -0.092  87.410 117.495  0.00  0.00     0.006 C 
ENDBRANCH   8  11
ENDBRANCH   7   8
ENDBRANCH   1   7
BRANCH   6  13
ATOM     13  N   LIG d   1       1.154  84.750 112.733  0.00  0.00    -0.311 N 
ATOM     14  C   LIG d   1      -0.156  84.658 112.516  0.00  0.00     0.210 C 
ATOM     15  C   LIG d   1      -0.644  83.273 112.080  0.00  0.00     0.109 C 
ATOM     16  O   LIG d   1      -0.957  85.600 112.612  0.00  0.00    -0.276 OA
ATOM     17  H   LIG d   1       1.734  83.945 112.600  0.00  0.00     0.149 HD
ENDBRANCH   6  13
BRANCH   5  18
ATOM     18  N   LIG d   1       1.400  87.293 111.058  0.00  0.00     0.381 N 
ATOM     19  H   LIG d   1       1.282  86.636 110.313  0.00  0.00    -0.090 HD
ATOM     20  H   LIG d   1       1.713  88.163 110.664  0.00  0.00    -0.090 HD
ATOM     21  H   LIG d   1       0.534  87.427 111.532  0.00  0.00    -0.090 HD
ENDBRANCH   5  18
BRANCH   3  22
ATOM     22  C   LIG d   1       5.209  88.492 113.702  0.00  0.00     0.382 C 
ATOM     23  O   LIG d   1       5.614  89.181 112.735  0.00  0.00    -0.241 OA
ATOM     24  O   LIG d   1       5.851  88.495 114.769  0.00  0.00    -0.241 OA
ENDBRANCH   3  22
TORSDOF 7
ENDMDL
