MODEL 1
REMARK VINA RESULT:      -5.6      0.000      0.000
REMARK  7 active torsions:
REMARK  status: ('A' for Active; 'I' for Inactive)
REMARK    1  A    between atoms: C_2  and  C_3 
REMARK    2  A    between atoms: C_3  and  O_6 
REMARK    3  A    between atoms: C_3  and  C_4 
REMARK    4  A    between atoms: C_7  and  O_6 
REMARK    5  A    between atoms: C_9  and  C_10 
REMARK    6  A    between atoms: N_15  and  C_14 
REMARK    7  A    between atoms: N_20  and  C_19 
REMARK       I    between atoms: C_22  and  N_20 
ROOT
ATOM      1  C   LIG d   1      -6.593  74.831 118.225  0.00  0.00     0.161 C 
ATOM      2  C   LIG d   1      -7.906  75.263 117.977  0.00  0.00     0.016 C 
ATOM      3  C   LIG d   1      -8.256  76.618 117.781  0.00  0.00     0.038 C 
ATOM      4  C   LIG d   1      -7.287  77.626 117.669  0.00  0.00     0.028 C 
ATOM      5  C   LIG d   1      -5.995  77.309 118.414  0.00  0.00    -0.047 C 
ATOM      6  C   LIG d   1      -5.506  75.903 117.996  0.00  0.00     0.091 C 
ENDROOT
BRANCH   1   7
ATOM      7  O   LIG d   1      -6.309  73.655 117.443  0.00  0.00    -0.368 OA
BRANCH   7   8
ATOM      8  C   LIG d   1      -6.935  73.590 116.138  0.00  0.00     0.119 C 
BRANCH   8   9
ATOM      9  C   LIG d   1      -7.372  72.131 115.906  0.00  0.00     0.028 C 
ATOM     10  C   LIG d   1      -8.855  71.902 116.244  0.00  0.00     0.006 C 
ENDBRANCH   8   9
BRANCH   8  11
ATOM     11  C   LIG d   1      -5.931  73.895 115.023  0.00  0.00     0.028 C 
ATOM     12  C   LIG d   1      -5.967  75.365 114.574  0.00  0.00     0.006 C 
ENDBRANCH   8  11
ENDBRANCH   7   8
ENDBRANCH   1   7
BRANCH   6  13
ATOM     13  N   LIG d   1      -4.293  75.480 118.742  0.00  0.00    -0.311 N 
ATOM     14  C   LIG d   1      -3.189  75.025 118.151  0.00  0.00     0.210 C 
ATOM     15  C   LIG d   1      -2.061  74.624 119.106  0.00  0.00     0.109 C 
ATOM     16  O   LIG d   1      -3.026  74.946 116.924  0.00  0.00    -0.276 OA
ATOM     17  H   LIG d   1      -4.327  75.540 119.741  0.00  0.00     0.149 HD
ENDBRANCH   6  13
BRANCH   5  18
ATOM     18  N   LIG d   1      -5.025  78.375 118.100  0.00  0.00     0.381 N 
ATOM     19  H   LIG d   1      -4.136  78.154 118.503  0.00  0.00    -0.090 HD
ATOM     20  H   LIG d   1      -5.348  79.237 118.503  0.00  0.00    -0.090 HD
ATOM     21  H   LIG d   1      -4.935  78.474 117.113  0.00  0.00    -0.090 HD
ENDBRANCH   5  18
BRANCH   3  22
ATOM     22  C   LIG d   1      -9.593  76.983 117.734  0.00  0.00     0.382 C 
ATOM     23  O   LIG d   1      -9.944  78.130 118.104  0.00  0.00    -0.241 OA
ATOM     24  O   LIG d   1     -10.459  76.165 117.368  0.00  0.00    -0.241 OA
ENDBRANCH   3  22
TORSDOF 7
ENDMDL
MODEL 2
REMARK VINA RESULT:      -5.5      1.804      2.588
REMARK  7 active torsions:
REMARK  status: ('A' for Active; 'I' for Inactive)
REMARK    1  A    between atoms: C_2  and  C_3 
REMARK    2  A    between atoms: C_3  and  O_6 
REMARK    3  A    between atoms: C_3  and  C_4 
REMARK    4  A    between atoms: C_7  and  O_6 
REMARK    5  A    between atoms: C_9  and  C_10 
REMARK    6  A    between atoms: N_15  and  C_14 
REMARK    7  A    between atoms: N_20  and  C_19 
REMARK       I    between atoms: C_22  and  N_20 
ROOT
ATOM      1  C   LIG d   1      -7.385  76.255 117.534  0.00  0.00     0.161 C 
ATOM      2  C   LIG d   1      -8.467  77.076 117.893  0.00  0.00     0.016 C 
ATOM      3  C   LIG d   1      -8.389  78.486 117.950  0.00  0.00     0.038 C 
ATOM      4  C   LIG d   1      -7.257  79.185 117.502  0.00  0.00     0.028 C 
ATOM      5  C   LIG d   1      -5.967  78.379 117.609  0.00  0.00    -0.047 C 
ATOM      6  C   LIG d   1      -6.176  77.004 116.935  0.00  0.00     0.091 C 
ENDROOT
BRANCH   1   7
ATOM      7  O   LIG d   1      -7.832  75.224 116.631  0.00  0.00    -0.368 OA
BRANCH   7   8
ATOM      8  C   LIG d   1      -8.124  73.936 117.229  0.00  0.00     0.119 C 
BRANCH   8   9
ATOM      9  C   LIG d   1      -7.052  72.944 116.736  0.00  0.00     0.028 C 
ATOM     10  C   LIG d   1      -6.185  72.399 117.884  0.00  0.00     0.006 C 
ENDBRANCH   8   9
BRANCH   8  11
ATOM     11  C   LIG d   1      -9.457  73.377 116.725  0.00  0.00     0.028 C 
ATOM     12  C   LIG d   1      -9.347  71.925 116.235  0.00  0.00     0.006 C 
ENDBRANCH   8  11
ENDBRANCH   7   8
ENDBRANCH   1   7
BRANCH   6  13
ATOM     13  N   LIG d   1      -4.988  76.121 117.068  0.00  0.00    -0.311 N 
ATOM     14  C   LIG d   1      -4.362  75.572 116.029  0.00  0.00     0.210 C 
ATOM     15  C   LIG d   1      -3.171  74.678 116.389  0.00  0.00     0.109 C 
ATOM     16  O   LIG d   1      -4.659  75.768 114.840  0.00  0.00    -0.276 OA
ATOM     17  H   LIG d   1      -4.661  75.934 117.996  0.00  0.00     0.149 HD
ENDBRANCH   6  13
BRANCH   5  18
ATOM     18  N   LIG d   1      -4.893  79.173 116.982  0.00  0.00     0.381 N 
ATOM     19  H   LIG d   1      -5.291  79.862 116.375  0.00  0.00    -0.090 HD
ATOM     20  H   LIG d   1      -4.317  78.562 116.431  0.00  0.00    -0.090 HD
ATOM     21  H   LIG d   1      -4.343  79.617 117.684  0.00  0.00    -0.090 HD
ENDBRANCH   5  18
BRANCH   3  22
ATOM     22  C   LIG d   1      -9.436  79.211 118.497  0.00  0.00     0.382 C 
ATOM     23  O   LIG d   1     -10.371  78.616 119.085  0.00  0.00    -0.241 OA
ATOM     24  O   LIG d   1      -9.481  80.449 118.371  0.00  0.00    -0.241 OA
ENDBRANCH   3  22
TORSDOF 7
ENDMDL
MODEL 3
REMARK VINA RESULT:      -5.2      2.641      4.248
REMARK  7 active torsions:
REMARK  status: ('A' for Active; 'I' for Inactive)
REMARK    1  A    between atoms: C_2  and  C_3 
REMARK    2  A    between atoms: C_3  and  O_6 
REMARK    3  A    between atoms: C_3  and  C_4 
REMARK    4  A    between atoms: C_7  and  O_6 
REMARK    5  A    between atoms: C_9  and  C_10 
REMARK    6  A    between atoms: N_15  and  C_14 
REMARK    7  A    between atoms: N_20  and  C_19 
REMARK       I    between atoms: C_22  and  N_20 
ROOT
ATOM      1  C   LIG d   1      -6.527  77.402 117.092  0.00  0.00     0.161 C 
ATOM      2  C   LIG d   1      -6.315  78.784 117.225  0.00  0.00     0.016 C 
ATOM      3  C   LIG d   1      -7.271  79.669 117.774  0.00  0.00     0.038 C 
ATOM      4  C   LIG d   1      -8.453  79.206 118.371  0.00  0.00     0.028 C 
ATOM      5  C   LIG d   1      -8.935  77.874 117.807  0.00  0.00    -0.047 C 
ATOM      6  C   LIG d   1      -7.765  76.863 117.839  0.00  0.00     0.091 C 
ENDROOT
BRANCH   1   7
ATOM      7  O   LIG d   1      -5.345  76.685 117.499  0.00  0.00    -0.368 OA
BRANCH   7   8
ATOM      8  C   LIG d   1      -4.536  76.133 116.432  0.00  0.00     0.119 C 
BRANCH   8   9
ATOM      9  C   LIG d   1      -5.409  76.089 115.163  0.00  0.00     0.028 C 
ATOM     10  C   LIG d   1      -5.696  74.652 114.697  0.00  0.00     0.006 C 
ENDBRANCH   8   9
BRANCH   8  11
ATOM     11  C   LIG d   1      -4.159  74.675 116.715  0.00  0.00     0.028 C 
ATOM     12  C   LIG d   1      -2.654  74.485 116.960  0.00  0.00     0.006 C 
ENDBRANCH   8  11
ENDBRANCH   7   8
ENDBRANCH   1   7
BRANCH   6  13
ATOM     13  N   LIG d   1      -8.127  75.558 117.228  0.00  0.00    -0.311 N 
ATOM     14  C   LIG d   1      -7.744  74.384 117.726  0.00  0.00     0.210 C 
ATOM     15  C   LIG d   1      -8.209  73.161 116.929  0.00  0.00     0.109 C 
ATOM     16  O   LIG d   1      -7.090  74.238 118.769  0.00  0.00    -0.276 OA
ATOM     17  H   LIG d   1      -8.682  75.583 116.395  0.00  0.00     0.149 HD
ENDBRANCH   6  13
BRANCH   5  18
ATOM     18  N   LIG d   1     -10.094  77.442 118.611  0.00  0.00     0.381 N 
ATOM     19  H   LIG d   1      -9.997  77.774 119.550  0.00  0.00    -0.090 HD
ATOM     20  H   LIG d   1     -10.119  76.438 118.633  0.00  0.00    -0.090 HD
ATOM     21  H   LIG d   1     -10.936  77.794 118.212  0.00  0.00    -0.090 HD
ENDBRANCH   5  18
BRANCH   3  22
ATOM     22  C   LIG d   1      -7.066  81.038 117.694  0.00  0.00     0.382 C 
ATOM     23  O   LIG d   1      -7.722  81.723 116.871  0.00  0.00    -0.241 OA
ATOM     24  O   LIG d   1      -6.203  81.591 118.402  0.00  0.00    -0.241 OA
ENDBRANCH   3  22
TORSDOF 7
ENDMDL
MODEL 4
REMARK VINA RESULT:      -4.9     14.121     15.647
REMARK  7 active torsions:
REMARK  status: ('A' for Active; 'I' for Inactive)
REMARK    1  A    between atoms: C_2  and  C_3 
REMARK    2  A    between atoms: C_3  and  O_6 
REMARK    3  A    between atoms: C_3  and  C_4 
REMARK    4  A    between atoms: C_7  and  O_6 
REMARK    5  A    between atoms: C_9  and  C_10 
REMARK    6  A    between atoms: N_15  and  C_14 
REMARK    7  A    between atoms: N_20  and  C_19 
REMARK       I    between atoms: C_22  and  N_20 
ROOT
ATOM      1  C   LIG d   1       2.250  87.397 115.416  0.00  0.00     0.161 C 
ATOM      2  C   LIG d   1       1.054  87.350 116.152  0.00  0.00     0.016 C 
ATOM      3  C   LIG d   1       0.600  88.412 116.968  0.00  0.00     0.038 C 
ATOM      4  C   LIG d   1       1.239  89.660 116.984  0.00  0.00     0.028 C 
ATOM      5  C   LIG d   1       2.725  89.584 116.650  0.00  0.00    -0.047 C 
ATOM      6  C   LIG d   1       2.904  88.792 115.334  0.00  0.00     0.091 C 
ENDROOT
BRANCH   1   7
ATOM      7  O   LIG d   1       2.030  86.868 114.094  0.00  0.00    -0.368 OA
BRANCH   7   8
ATOM      8  C   LIG d   1       2.467  85.505 113.872  0.00  0.00     0.119 C 
BRANCH   8   9
ATOM      9  C   LIG d   1       3.854  85.566 113.204  0.00  0.00     0.028 C 
ATOM     10  C   LIG d   1       3.831  86.333 111.872  0.00  0.00     0.006 C 
ENDBRANCH   8   9
BRANCH   8  11
ATOM     11  C   LIG d   1       1.563  84.786 112.866  0.00  0.00     0.028 C 
ATOM     12  C   LIG d   1       0.254  85.544 112.594  0.00  0.00     0.006 C 
ENDBRANCH   8  11
ENDBRANCH   7   8
ENDBRANCH   1   7
BRANCH   6  13
ATOM     13  N   LIG d   1       4.334  88.599 114.979  0.00  0.00    -0.311 N 
ATOM     14  C   LIG d   1       4.909  89.165 113.920  0.00  0.00     0.210 C 
ATOM     15  C   LIG d   1       6.388  88.817 113.724  0.00  0.00     0.109 C 
ATOM     16  O   LIG d   1       4.343  89.948 113.142  0.00  0.00    -0.276 OA
ATOM     17  H   LIG d   1       4.875  88.003 115.575  0.00  0.00     0.149 HD
ENDBRANCH   6  13
BRANCH   5  18
ATOM     18  N   LIG d   1       3.235  90.966 116.568  0.00  0.00     0.381 N 
ATOM     19  H   LIG d   1       3.829  91.060 115.768  0.00  0.00    -0.090 HD
ATOM     20  H   LIG d   1       3.779  91.161 117.390  0.00  0.00    -0.090 HD
ATOM     21  H   LIG d   1       2.475  91.606 116.503  0.00  0.00    -0.090 HD
ENDBRANCH   5  18
BRANCH   3  22
ATOM     22  C   LIG d   1      -0.484  88.216 117.810  0.00  0.00     0.382 C 
ATOM     23  O   LIG d   1      -0.383  87.445 118.794  0.00  0.00    -0.241 OA
ATOM     24  O   LIG d   1      -1.576  88.767 117.573  0.00  0.00    -0.241 OA
ENDBRANCH   3  22
TORSDOF 7
ENDMDL
MODEL 5
REMARK VINA RESULT:      -4.7      2.645      5.266
REMARK  7 active torsions:
REMARK  status: ('A' for Active; 'I' for Inactive)
REMARK    1  A    between atoms: C_2  and  C_3 
REMARK    2  A    between atoms: C_3  and  O_6 
REMARK    3  A    between atoms: C_3  and  C_4 
REMARK    4  A    between atoms: C_7  and  O_6 
REMARK    5  A    between atoms: C_9  and  C_10 
REMARK    6  A    between atoms: N_15  and  C_14 
REMARK    7  A    between atoms: N_20  and  C_19 
REMARK       I    between atoms: C_22  and  N_20 
ROOT
ATOM      1  C   LIG d   1      -7.347  78.435 117.384  0.00  0.00     0.161 C 
ATOM      2  C   LIG d   1      -8.582  77.778 117.510  0.00  0.00     0.016 C 
ATOM      3  C   LIG d   1      -8.719  76.370 117.510  0.00  0.00     0.038 C 
ATOM      4  C   LIG d   1      -7.605  75.517 117.536  0.00  0.00     0.028 C 
ATOM      5  C   LIG d   1      -6.360  76.128 116.902  0.00  0.00    -0.047 C 
ATOM      6  C   LIG d   1      -6.111  77.521 117.524  0.00  0.00     0.091 C 
ENDROOT
BRANCH   1   7
ATOM      7  O   LIG d   1      -7.274  79.523 118.326  0.00  0.00    -0.368 OA
BRANCH   7   8
ATOM      8  C   LIG d   1      -7.610  80.835 117.812  0.00  0.00     0.119 C 
BRANCH   8   9
ATOM      9  C   LIG d   1      -6.416  81.765 118.100  0.00  0.00     0.028 C 
ATOM     10  C   LIG d   1      -5.419  81.149 119.097  0.00  0.00     0.006 C 
ENDBRANCH   8   9
BRANCH   8  11
ATOM     11  C   LIG d   1      -8.792  81.445 118.571  0.00  0.00     0.028 C 
ATOM     12  C   LIG d   1     -10.073  81.514 117.725  0.00  0.00     0.006 C 
ENDBRANCH   8  11
ENDBRANCH   7   8
ENDBRANCH   1   7
BRANCH   6  13
ATOM     13  N   LIG d   1      -4.960  78.223 116.899  0.00  0.00    -0.311 N 
ATOM     14  C   LIG d   1      -3.718  78.163 117.377  0.00  0.00     0.210 C 
ATOM     15  C   LIG d   1      -2.684  78.977 116.593  0.00  0.00     0.109 C 
ATOM     16  O   LIG d   1      -3.369  77.487 118.356  0.00  0.00    -0.276 OA
ATOM     17  H   LIG d   1      -5.148  78.770 116.082  0.00  0.00     0.149 HD
ENDBRANCH   6  13
BRANCH   5  18
ATOM     18  N   LIG d   1      -5.243  75.189 117.121  0.00  0.00     0.381 N 
ATOM     19  H   LIG d   1      -4.423  75.695 117.391  0.00  0.00    -0.090 HD
ATOM     20  H   LIG d   1      -5.048  74.709 116.260  0.00  0.00    -0.090 HD
ATOM     21  H   LIG d   1      -5.484  74.531 117.829  0.00  0.00    -0.090 HD
ENDBRANCH   5  18
BRANCH   3  22
ATOM     22  C   LIG d   1      -9.982  75.802 117.443  0.00  0.00     0.382 C 
ATOM     23  O   LIG d   1     -10.129  74.657 116.953  0.00  0.00    -0.241 OA
ATOM     24  O   LIG d   1     -10.982  76.439 117.827  0.00  0.00    -0.241 OA
ENDBRANCH   3  22
TORSDOF 7
ENDMDL
MODEL 6
REMARK VINA RESULT:      -4.7     18.324     20.557
REMARK  7 active torsions:
REMARK  status: ('A' for Active; 'I' for Inactive)
REMARK    1  A    between atoms: C_2  and  C_3 
REMARK    2  A    between atoms: C_3  and  O_6 
REMARK    3  A    between atoms: C_3  and  C_4 
REMARK    4  A    between atoms: C_7  and  O_6 
REMARK    5  A    between atoms: C_9  and  C_10 
REMARK    6  A    between atoms: N_15  and  C_14 
REMARK    7  A    between atoms: N_20  and  C_19 
REMARK       I    between atoms: C_22  and  N_20 
ROOT
ATOM      1  C   LIG d   1     -24.699  83.784 114.215  0.00  0.00     0.161 C 
ATOM      2  C   LIG d   1     -25.727  82.982 113.692  0.00  0.00     0.016 C 
ATOM      3  C   LIG d   1     -26.453  83.312 112.524  0.00  0.00     0.038 C 
ATOM      4  C   LIG d   1     -26.097  84.398 111.711  0.00  0.00     0.028 C 
ATOM      5  C   LIG d   1     -25.392  85.517 112.470  0.00  0.00    -0.047 C 
ATOM      6  C   LIG d   1     -24.221  84.915 113.280  0.00  0.00     0.091 C 
ENDROOT
BRANCH   1   7
ATOM      7  O   LIG d   1     -23.586  82.957 114.609  0.00  0.00    -0.368 OA
BRANCH   7   8
ATOM      8  C   LIG d   1     -23.443  82.716 116.031  0.00  0.00     0.119 C 
BRANCH   8   9
ATOM      9  C   LIG d   1     -22.251  83.560 116.525  0.00  0.00     0.028 C 
ATOM     10  C   LIG d   1     -22.650  84.541 117.640  0.00  0.00     0.006 C 
ENDBRANCH   8   9
BRANCH   8  11
ATOM     11  C   LIG d   1     -23.055  81.262 116.314  0.00  0.00     0.028 C 
ATOM     12  C   LIG d   1     -23.947  80.253 115.574  0.00  0.00     0.006 C 
ENDBRANCH   8  11
ENDBRANCH   7   8
ENDBRANCH   1   7
BRANCH   6  13
ATOM     13  N   LIG d   1     -23.531  85.930 114.118  0.00  0.00    -0.311 N 
ATOM     14  C   LIG d   1     -22.268  86.305 113.923  0.00  0.00     0.210 C 
ATOM     15  C   LIG d   1     -21.744  87.350 114.913  0.00  0.00     0.109 C 
ATOM     16  O   LIG d   1     -21.542  85.896 113.005  0.00  0.00    -0.276 OA
ATOM     17  H   LIG d   1     -24.056  86.336 114.868  0.00  0.00     0.149 HD
ENDBRANCH   6  13
BRANCH   5  18
ATOM     18  N   LIG d   1     -24.955  86.521 111.481  0.00  0.00     0.381 N 
ATOM     19  H   LIG d   1     -24.428  87.239 111.937  0.00  0.00    -0.090 HD
ATOM     20  H   LIG d   1     -25.767  86.941 111.064  0.00  0.00    -0.090 HD
ATOM     21  H   LIG d   1     -24.399  86.086 110.778  0.00  0.00    -0.090 HD
ENDBRANCH   5  18
BRANCH   3  22
ATOM     22  C   LIG d   1     -27.575  82.573 112.182  0.00  0.00     0.382 C 
ATOM     23  O   LIG d   1     -27.636  81.354 112.473  0.00  0.00    -0.241 OA
ATOM     24  O   LIG d   1     -28.509  83.100 111.547  0.00  0.00    -0.241 OA
ENDBRANCH   3  22
TORSDOF 7
ENDMDL
MODEL 7
REMARK VINA RESULT:      -4.6     14.570     17.996
REMARK  7 active torsions:
REMARK  status: ('A' for Active; 'I' for Inactive)
REMARK    1  A    between atoms: C_2  and  C_3 
REMARK    2  A    between atoms: C_3  and  O_6 
REMARK    3  A    between atoms: C_3  and  C_4 
REMARK    4  A    between atoms: C_7  and  O_6 
REMARK    5  A    between atoms: C_9  and  C_10 
REMARK    6  A    between atoms: N_15  and  C_14 
REMARK    7  A    between atoms: N_20  and  C_19 
REMARK       I    between atoms: C_22  and  N_20 
ROOT
ATOM      1  C   LIG d   1      10.248  78.777 114.760  0.00  0.00     0.161 C 
ATOM      2  C   LIG d   1       8.917  79.055 115.112  0.00  0.00     0.016 C 
ATOM      3  C   LIG d   1       8.114  78.176 115.874  0.00  0.00     0.038 C 
ATOM      4  C   LIG d   1       8.639  77.018 116.468  0.00  0.00     0.028 C 
ATOM      5  C   LIG d   1       9.838  76.445 115.720  0.00  0.00    -0.047 C 
ATOM      6  C   LIG d   1      10.873  77.571 115.493  0.00  0.00     0.091 C 
ENDROOT
BRANCH   1   7
ATOM      7  O   LIG d   1      11.060  79.954 114.950  0.00  0.00    -0.368 OA
BRANCH   7   8
ATOM      8  C   LIG d   1      11.874  80.355 113.822  0.00  0.00     0.119 C 
BRANCH   8   9
ATOM      9  C   LIG d   1      13.105  81.096 114.379  0.00  0.00     0.028 C 
ATOM     10  C   LIG d   1      14.341  80.942 113.477  0.00  0.00     0.006 C 
ENDBRANCH   8   9
BRANCH   8  11
ATOM     11  C   LIG d   1      11.147  81.380 112.946  0.00  0.00     0.028 C 
ATOM     12  C   LIG d   1      11.208  81.035 111.449  0.00  0.00     0.006 C 
ENDBRANCH   8  11
ENDBRANCH   7   8
ENDBRANCH   1   7
BRANCH   6  13
ATOM     13  N   LIG d   1      12.040  77.115 114.694  0.00  0.00    -0.311 N 
ATOM     14  C   LIG d   1      13.304  77.300 115.072  0.00  0.00     0.210 C 
ATOM     15  C   LIG d   1      14.356  76.771 114.092  0.00  0.00     0.109 C 
ATOM     16  O   LIG d   1      13.653  77.824 116.141  0.00  0.00    -0.276 OA
ATOM     17  H   LIG d   1      11.847  76.653 113.827  0.00  0.00     0.149 HD
ENDBRANCH   6  13
BRANCH   5  18
ATOM     18  N   LIG d   1      10.369  75.326 116.521  0.00  0.00     0.381 N 
ATOM     19  H   LIG d   1      11.357  75.250 116.385  0.00  0.00    -0.090 HD
ATOM     20  H   LIG d   1       9.941  74.472 116.210  0.00  0.00    -0.090 HD
ATOM     21  H   LIG d   1      10.170  75.473 117.486  0.00  0.00    -0.090 HD
ENDBRANCH   5  18
BRANCH   3  22
ATOM     22  C   LIG d   1       6.758  78.431 116.015  0.00  0.00     0.382 C 
ATOM     23  O   LIG d   1       6.343  79.615 116.047  0.00  0.00    -0.241 OA
ATOM     24  O   LIG d   1       5.950  77.494 116.154  0.00  0.00    -0.241 OA
ENDBRANCH   3  22
TORSDOF 7
ENDMDL
MODEL 8
REMARK VINA RESULT:      -4.6     14.625     16.543
REMARK  7 active torsions:
REMARK  status: ('A' for Active; 'I' for Inactive)
REMARK    1  A    between atoms: C_2  and  C_3 
REMARK    2  A    between atoms: C_3  and  O_6 
REMARK    3  A    between atoms: C_3  and  C_4 
REMARK    4  A    between atoms: C_7  and  O_6 
REMARK    5  A    between atoms: C_9  and  C_10 
REMARK    6  A    between atoms: N_15  and  C_14 
REMARK    7  A    between atoms: N_20  and  C_19 
REMARK       I    between atoms: C_22  and  N_20 
ROOT
ATOM      1  C   LIG d   1       3.662  87.396 115.237  0.00  0.00     0.161 C 
ATOM      2  C   LIG d   1       3.001  86.866 114.116  0.00  0.00     0.016 C 
ATOM      3  C   LIG d   1       3.494  86.980 112.796  0.00  0.00     0.038 C 
ATOM      4  C   LIG d   1       4.767  87.504 112.522  0.00  0.00     0.028 C 
ATOM      5  C   LIG d   1       5.246  88.506 113.567  0.00  0.00    -0.047 C 
ATOM      6  C   LIG d   1       5.105  87.874 114.971  0.00  0.00     0.091 C 
ENDROOT
BRANCH   1   7
ATOM      7  O   LIG d   1       3.642  86.439 116.314  0.00  0.00    -0.368 OA
BRANCH   7   8
ATOM      8  C   LIG d   1       2.780  86.758 117.434  0.00  0.00     0.119 C 
BRANCH   8   9
ATOM      9  C   LIG d   1       1.813  85.574 117.626  0.00  0.00     0.028 C 
ATOM     10  C   LIG d   1       2.229  84.338 116.811  0.00  0.00     0.006 C 
ENDBRANCH   8   9
BRANCH   8  11
ATOM     11  C   LIG d   1       1.889  87.964 117.126  0.00  0.00     0.028 C 
ATOM     12  C   LIG d   1       0.443  87.777 117.612  0.00  0.00     0.006 C 
ENDBRANCH   8  11
ENDBRANCH   7   8
ENDBRANCH   1   7
BRANCH   6  13
ATOM     13  N   LIG d   1       5.473  88.818 116.057  0.00  0.00    -0.311 N 
ATOM     14  C   LIG d   1       4.891  90.004 116.227  0.00  0.00     0.210 C 
ATOM     15  C   LIG d   1       5.435  90.830 117.397  0.00  0.00     0.109 C 
ATOM     16  O   LIG d   1       3.954  90.437 115.540  0.00  0.00    -0.276 OA
ATOM     17  H   LIG d   1       6.204  88.534 116.680  0.00  0.00     0.149 HD
ENDBRANCH   6  13
BRANCH   5  18
ATOM     18  N   LIG d   1       6.637  88.867 113.233  0.00  0.00     0.381 N 
ATOM     19  H   LIG d   1       6.991  88.243 112.536  0.00  0.00    -0.090 HD
ATOM     20  H   LIG d   1       7.204  88.774 114.057  0.00  0.00    -0.090 HD
ATOM     21  H   LIG d   1       6.675  89.805 112.900  0.00  0.00    -0.090 HD
ENDBRANCH   5  18
BRANCH   3  22
ATOM     22  C   LIG d   1       2.694  86.603 111.728  0.00  0.00     0.382 C 
ATOM     23  O   LIG d   1       1.996  87.459 111.134  0.00  0.00    -0.241 OA
ATOM     24  O   LIG d   1       2.628  85.409 111.380  0.00  0.00    -0.241 OA
ENDBRANCH   3  22
TORSDOF 7
ENDMDL
MODEL 9
REMARK VINA RESULT:      -4.5     17.804     20.401
REMARK  7 active torsions:
REMARK  status: ('A' for Active; 'I' for Inactive)
REMARK    1  A    between atoms: C_2  and  C_3 
REMARK    2  A    between atoms: C_3  and  O_6 
REMARK    3  A    between atoms: C_3  and  C_4 
REMARK    4  A    between atoms: C_7  and  O_6 
REMARK    5  A    between atoms: C_9  and  C_10 
REMARK    6  A    between atoms: N_15  and  C_14 
REMARK    7  A    between atoms: N_20  and  C_19 
REMARK       I    between atoms: C_22  and  N_20 
ROOT
ATOM      1  C   LIG d   1     -24.065  83.705 115.030  0.00  0.00     0.161 C 
ATOM      2  C   LIG d   1     -23.129  84.752 115.036  0.00  0.00     0.016 C 
ATOM      3  C   LIG d   1     -23.152  85.822 114.111  0.00  0.00     0.038 C 
ATOM      4  C   LIG d   1     -24.209  85.996 113.206  0.00  0.00     0.028 C 
ATOM      5  C   LIG d   1     -24.905  84.693 112.828  0.00  0.00    -0.047 C 
ATOM      6  C   LIG d   1     -25.290  83.937 114.120  0.00  0.00     0.091 C 
ENDROOT
BRANCH   1   7
ATOM      7  O   LIG d   1     -24.489  83.420 116.378  0.00  0.00    -0.368 OA
BRANCH   7   8
ATOM      8  C   LIG d   1     -24.027  82.168 116.940  0.00  0.00     0.119 C 
BRANCH   8   9
ATOM      9  C   LIG d   1     -22.915  82.498 117.955  0.00  0.00     0.028 C 
ATOM     10  C   LIG d   1     -21.508  82.268 117.380  0.00  0.00     0.006 C 
ENDBRANCH   8   9
BRANCH   8  11
ATOM     11  C   LIG d   1     -23.357  81.292 115.877  0.00  0.00     0.028 C 
ATOM     12  C   LIG d   1     -24.136  79.998 115.593  0.00  0.00     0.006 C 
ENDBRANCH   8  11
ENDBRANCH   7   8
ENDBRANCH   1   7
BRANCH   6  13
ATOM     13  N   LIG d   1     -25.900  82.611 113.841  0.00  0.00    -0.311 N 
ATOM     14  C   LIG d   1     -27.111  82.257 114.268  0.00  0.00     0.210 C 
ATOM     15  C   LIG d   1     -27.542  80.838 113.886  0.00  0.00     0.109 C 
ATOM     16  O   LIG d   1     -27.882  82.995 114.900  0.00  0.00    -0.276 OA
ATOM     17  H   LIG d   1     -25.356  81.962 113.308  0.00  0.00     0.149 HD
ENDBRANCH   6  13
BRANCH   5  18
ATOM     18  N   LIG d   1     -26.069  85.036 111.990  0.00  0.00     0.381 N 
ATOM     19  H   LIG d   1     -26.859  84.488 112.267  0.00  0.00    -0.090 HD
ATOM     20  H   LIG d   1     -25.855  84.820 111.033  0.00  0.00    -0.090 HD
ATOM     21  H   LIG d   1     -26.281  86.006 112.081  0.00  0.00    -0.090 HD
ENDBRANCH   5  18
BRANCH   3  22
ATOM     22  C   LIG d   1     -22.087  86.708 114.060  0.00  0.00     0.382 C 
ATOM     23  O   LIG d   1     -22.067  87.708 114.819  0.00  0.00    -0.241 OA
ATOM     24  O   LIG d   1     -21.169  86.546 113.234  0.00  0.00    -0.241 OA
ENDBRANCH   3  22
TORSDOF 7
ENDMDL
