MODEL 1
REMARK VINA RESULT:      -5.9      0.000      0.000
REMARK  7 active torsions:
REMARK  status: ('A' for Active; 'I' for Inactive)
REMARK    1  A    between atoms: C_2  and  C_3 
REMARK    2  A    between atoms: C_3  and  O_6 
REMARK    3  A    between atoms: C_3  and  C_4 
REMARK    4  A    between atoms: C_7  and  O_6 
REMARK    5  A    between atoms: C_9  and  C_10 
REMARK    6  A    between atoms: N_15  and  C_14 
REMARK    7  A    between atoms: N_20  and  C_19 
REMARK       I    between atoms: C_22  and  N_20 
ROOT
ATOM      1  C   LIG d   1      -2.731  77.484 116.139  0.00  0.00     0.161 C 
ATOM      2  C   LIG d   1      -3.038  78.376 115.098  0.00  0.00     0.016 C 
ATOM      3  C   LIG d   1      -2.251  78.511 113.931  0.00  0.00     0.038 C 
ATOM      4  C   LIG d   1      -1.179  77.650 113.656  0.00  0.00     0.028 C 
ATOM      5  C   LIG d   1      -0.529  77.072 114.909  0.00  0.00    -0.047 C 
ATOM      6  C   LIG d   1      -1.627  76.458 115.806  0.00  0.00     0.091 C 
ENDROOT
BRANCH   1   7
ATOM      7  O   LIG d   1      -3.928  76.810 116.574  0.00  0.00    -0.368 OA
BRANCH   7   8
ATOM      8  C   LIG d   1      -4.901  76.511 115.543  0.00  0.00     0.119 C 
BRANCH   8   9
ATOM      9  C   LIG d   1      -6.301  76.684 116.165  0.00  0.00     0.028 C 
ATOM     10  C   LIG d   1      -6.332  77.778 117.245  0.00  0.00     0.006 C 
ENDBRANCH   8   9
BRANCH   8  11
ATOM     11  C   LIG d   1      -4.826  75.042 115.116  0.00  0.00     0.028 C 
ATOM     12  C   LIG d   1      -6.192  74.471 114.703  0.00  0.00     0.006 C 
ENDBRANCH   8  11
ENDBRANCH   7   8
ENDBRANCH   1   7
BRANCH   6  13
ATOM     13  N   LIG d   1      -1.088  75.945 117.093  0.00  0.00    -0.311 N 
ATOM     14  C   LIG d   1      -1.340  74.723 117.559  0.00  0.00     0.210 C 
ATOM     15  C   LIG d   1      -0.702  74.404 118.914  0.00  0.00     0.109 C 
ATOM     16  O   LIG d   1      -2.006  73.863 116.964  0.00  0.00    -0.276 OA
ATOM     17  H   LIG d   1      -0.512  76.567 117.626  0.00  0.00     0.149 HD
ENDBRANCH   6  13
BRANCH   5  18
ATOM     18  N   LIG d   1       0.480  76.088 114.475  0.00  0.00     0.381 N 
ATOM     19  H   LIG d   1       0.792  76.308 113.550  0.00  0.00    -0.090 HD
ATOM     20  H   LIG d   1       0.059  75.176 114.457  0.00  0.00    -0.090 HD
ATOM     21  H   LIG d   1       1.253  76.092 115.103  0.00  0.00    -0.090 HD
ENDBRANCH   5  18
BRANCH   3  22
ATOM     22  C   LIG d   1      -2.510  79.544 113.043  0.00  0.00     0.382 C 
ATOM     23  O   LIG d   1      -3.141  80.558 113.428  0.00  0.00    -0.241 OA
ATOM     24  O   LIG d   1      -2.161  79.455 111.851  0.00  0.00    -0.241 OA
ENDBRANCH   3  22
TORSDOF 7
ENDMDL
MODEL 2
REMARK VINA RESULT:      -5.2      7.587     10.790
REMARK  7 active torsions:
REMARK  status: ('A' for Active; 'I' for Inactive)
REMARK    1  A    between atoms: C_2  and  C_3 
REMARK    2  A    between atoms: C_3  and  O_6 
REMARK    3  A    between atoms: C_3  and  C_4 
REMARK    4  A    between atoms: C_7  and  O_6 
REMARK    5  A    between atoms: C_9  and  C_10 
REMARK    6  A    between atoms: N_15  and  C_14 
REMARK    7  A    between atoms: N_20  and  C_19 
REMARK       I    between atoms: C_22  and  N_20 
ROOT
ATOM      1  C   LIG d   1       1.809  84.211 113.677  0.00  0.00     0.161 C 
ATOM      2  C   LIG d   1       0.873  83.192 113.434  0.00  0.00     0.016 C 
ATOM      3  C   LIG d   1      -0.164  83.299 112.479  0.00  0.00     0.038 C 
ATOM      4  C   LIG d   1      -0.243  84.381 111.589  0.00  0.00     0.028 C 
ATOM      5  C   LIG d   1       0.378  85.662 112.136  0.00  0.00    -0.047 C 
ATOM      6  C   LIG d   1       1.806  85.352 112.638  0.00  0.00     0.091 C 
ENDROOT
BRANCH   1   7
ATOM      7  O   LIG d   1       3.129  83.643 113.794  0.00  0.00    -0.368 OA
BRANCH   7   8
ATOM      8  C   LIG d   1       3.881  83.519 112.562  0.00  0.00     0.119 C 
BRANCH   8   9
ATOM      9  C   LIG d   1       4.129  82.018 112.320  0.00  0.00     0.028 C 
ATOM     10  C   LIG d   1       3.212  81.440 111.228  0.00  0.00     0.006 C 
ENDBRANCH   8   9
BRANCH   8  11
ATOM     11  C   LIG d   1       5.273  84.144 112.693  0.00  0.00     0.028 C 
ATOM     12  C   LIG d   1       5.542  84.710 114.097  0.00  0.00     0.006 C 
ENDBRANCH   8  11
ENDBRANCH   7   8
ENDBRANCH   1   7
BRANCH   6  13
ATOM     13  N   LIG d   1       2.454  86.533 113.266  0.00  0.00    -0.311 N 
ATOM     14  C   LIG d   1       3.291  87.341 112.618  0.00  0.00     0.210 C 
ATOM     15  C   LIG d   1       3.864  88.488 113.457  0.00  0.00     0.109 C 
ATOM     16  O   LIG d   1       3.589  87.236 111.418  0.00  0.00    -0.276 OA
ATOM     17  H   LIG d   1       2.244  86.711 114.229  0.00  0.00     0.149 HD
ENDBRANCH   6  13
BRANCH   5  18
ATOM     18  N   LIG d   1       0.350  86.667 111.056  0.00  0.00     0.381 N 
ATOM     19  H   LIG d   1      -0.321  86.400 110.363  0.00  0.00    -0.090 HD
ATOM     20  H   LIG d   1       1.255  86.703 110.622  0.00  0.00    -0.090 HD
ATOM     21  H   LIG d   1       0.116  87.561 111.428  0.00  0.00    -0.090 HD
ENDBRANCH   5  18
BRANCH   3  22
ATOM     22  C   LIG d   1      -1.160  82.335 112.434  0.00  0.00     0.382 C 
ATOM     23  O   LIG d   1      -1.030  81.334 111.690  0.00  0.00    -0.241 OA
ATOM     24  O   LIG d   1      -2.206  82.477 113.095  0.00  0.00    -0.241 OA
ENDBRANCH   3  22
TORSDOF 7
ENDMDL
MODEL 3
REMARK VINA RESULT:      -5.2      8.605     11.239
REMARK  7 active torsions:
REMARK  status: ('A' for Active; 'I' for Inactive)
REMARK    1  A    between atoms: C_2  and  C_3 
REMARK    2  A    between atoms: C_3  and  O_6 
REMARK    3  A    between atoms: C_3  and  C_4 
REMARK    4  A    between atoms: C_7  and  O_6 
REMARK    5  A    between atoms: C_9  and  C_10 
REMARK    6  A    between atoms: N_15  and  C_14 
REMARK    7  A    between atoms: N_20  and  C_19 
REMARK       I    between atoms: C_22  and  N_20 
ROOT
ATOM      1  C   LIG d   1       2.945  85.475 111.612  0.00  0.00     0.161 C 
ATOM      2  C   LIG d   1       3.858  86.531 111.764  0.00  0.00     0.016 C 
ATOM      3  C   LIG d   1       3.885  87.379 112.895  0.00  0.00     0.038 C 
ATOM      4  C   LIG d   1       3.094  87.132 114.026  0.00  0.00     0.028 C 
ATOM      5  C   LIG d   1       1.805  86.381 113.711  0.00  0.00    -0.047 C 
ATOM      6  C   LIG d   1       2.148  85.121 112.884  0.00  0.00     0.091 C 
ENDROOT
BRANCH   1   7
ATOM      7  O   LIG d   1       3.626  84.309 111.107  0.00  0.00    -0.368 OA
BRANCH   7   8
ATOM      8  C   LIG d   1       4.019  83.323 112.093  0.00  0.00     0.119 C 
BRANCH   8   9
ATOM      9  C   LIG d   1       5.451  83.668 112.546  0.00  0.00     0.028 C 
ATOM     10  C   LIG d   1       5.505  84.155 114.004  0.00  0.00     0.006 C 
ENDBRANCH   8   9
BRANCH   8  11
ATOM     11  C   LIG d   1       4.114  81.925 111.476  0.00  0.00     0.028 C 
ATOM     12  C   LIG d   1       2.739  81.273 111.262  0.00  0.00     0.006 C 
ENDBRANCH   8  11
ENDBRANCH   7   8
ENDBRANCH   1   7
BRANCH   6  13
ATOM     13  N   LIG d   1       0.935  84.373 112.462  0.00  0.00    -0.311 N 
ATOM     14  C   LIG d   1       0.395  83.387 113.177  0.00  0.00     0.210 C 
ATOM     15  C   LIG d   1      -0.841  82.736 112.550  0.00  0.00     0.109 C 
ATOM     16  O   LIG d   1       0.804  83.012 114.286  0.00  0.00    -0.276 OA
ATOM     17  H   LIG d   1       0.520  84.633 111.589  0.00  0.00     0.149 HD
ENDBRANCH   6  13
BRANCH   5  18
ATOM     18  N   LIG d   1       1.146  86.069 114.993  0.00  0.00     0.381 N 
ATOM     19  H   LIG d   1       0.516  86.808 115.239  0.00  0.00    -0.090 HD
ATOM     20  H   LIG d   1       1.846  86.001 115.711  0.00  0.00    -0.090 HD
ATOM     21  H   LIG d   1       0.648  85.209 114.921  0.00  0.00    -0.090 HD
ENDBRANCH   5  18
BRANCH   3  22
ATOM     22  C   LIG d   1       4.684  88.513 112.885  0.00  0.00     0.382 C 
ATOM     23  O   LIG d   1       4.253  89.588 113.368  0.00  0.00    -0.241 OA
ATOM     24  O   LIG d   1       5.812  88.486 112.358  0.00  0.00    -0.241 OA
ENDBRANCH   3  22
TORSDOF 7
ENDMDL
MODEL 4
REMARK VINA RESULT:      -5.2      2.420      4.885
REMARK  7 active torsions:
REMARK  status: ('A' for Active; 'I' for Inactive)
REMARK    1  A    between atoms: C_2  and  C_3 
REMARK    2  A    between atoms: C_3  and  O_6 
REMARK    3  A    between atoms: C_3  and  C_4 
REMARK    4  A    between atoms: C_7  and  O_6 
REMARK    5  A    between atoms: C_9  and  C_10 
REMARK    6  A    between atoms: N_15  and  C_14 
REMARK    7  A    between atoms: N_20  and  C_19 
REMARK       I    between atoms: C_22  and  N_20 
ROOT
ATOM      1  C   LIG d   1      -3.059  78.016 115.469  0.00  0.00     0.161 C 
ATOM      2  C   LIG d   1      -1.765  78.350 115.901  0.00  0.00     0.016 C 
ATOM      3  C   LIG d   1      -0.879  77.423 116.497  0.00  0.00     0.038 C 
ATOM      4  C   LIG d   1      -1.175  76.053 116.564  0.00  0.00     0.028 C 
ATOM      5  C   LIG d   1      -2.670  75.757 116.600  0.00  0.00    -0.047 C 
ATOM      6  C   LIG d   1      -3.358  76.502 115.433  0.00  0.00     0.091 C 
ENDROOT
BRANCH   1   7
ATOM      7  O   LIG d   1      -3.312  78.607 114.180  0.00  0.00    -0.368 OA
BRANCH   7   8
ATOM      8  C   LIG d   1      -2.158  79.142 113.486  0.00  0.00     0.119 C 
BRANCH   8   9
ATOM      9  C   LIG d   1      -2.626  80.379 112.695  0.00  0.00     0.028 C 
ATOM     10  C   LIG d   1      -1.562  81.489 112.658  0.00  0.00     0.006 C 
ENDBRANCH   8   9
BRANCH   8  11
ATOM     11  C   LIG d   1      -1.636  78.161 112.433  0.00  0.00     0.028 C 
ATOM     12  C   LIG d   1      -2.401  78.251 111.103  0.00  0.00     0.006 C 
ENDBRANCH   8  11
ENDBRANCH   7   8
ENDBRANCH   1   7
BRANCH   6  13
ATOM     13  N   LIG d   1      -4.834  76.334 115.444  0.00  0.00    -0.311 N 
ATOM     14  C   LIG d   1      -5.481  75.477 114.657  0.00  0.00     0.210 C 
ATOM     15  C   LIG d   1      -7.005  75.477 114.815  0.00  0.00     0.109 C 
ATOM     16  O   LIG d   1      -4.935  74.693 113.866  0.00  0.00    -0.276 OA
ATOM     17  H   LIG d   1      -5.353  76.909 116.079  0.00  0.00     0.149 HD
ENDBRANCH   6  13
BRANCH   5  18
ATOM     18  N   LIG d   1      -2.837  74.293 116.529  0.00  0.00     0.381 N 
ATOM     19  H   LIG d   1      -3.786  74.071 116.304  0.00  0.00    -0.090 HD
ATOM     20  H   LIG d   1      -2.625  73.899 117.429  0.00  0.00    -0.090 HD
ATOM     21  H   LIG d   1      -2.226  73.914 115.840  0.00  0.00    -0.090 HD
ENDBRANCH   5  18
BRANCH   3  22
ATOM     22  C   LIG d   1       0.301  77.871 117.069  0.00  0.00     0.382 C 
ATOM     23  O   LIG d   1       1.081  77.055 117.618  0.00  0.00    -0.241 OA
ATOM     24  O   LIG d   1       0.575  79.086 117.084  0.00  0.00    -0.241 OA
ENDBRANCH   3  22
TORSDOF 7
ENDMDL
MODEL 5
REMARK VINA RESULT:      -5.0     11.044     13.400
REMARK  7 active torsions:
REMARK  status: ('A' for Active; 'I' for Inactive)
REMARK    1  A    between atoms: C_2  and  C_3 
REMARK    2  A    between atoms: C_3  and  O_6 
REMARK    3  A    between atoms: C_3  and  C_4 
REMARK    4  A    between atoms: C_7  and  O_6 
REMARK    5  A    between atoms: C_9  and  C_10 
REMARK    6  A    between atoms: N_15  and  C_14 
REMARK    7  A    between atoms: N_20  and  C_19 
REMARK       I    between atoms: C_22  and  N_20 
ROOT
ATOM      1  C   LIG d   1       3.380  87.754 115.382  0.00  0.00     0.161 C 
ATOM      2  C   LIG d   1       3.826  88.412 116.540  0.00  0.00     0.016 C 
ATOM      3  C   LIG d   1       4.900  89.331 116.547  0.00  0.00     0.038 C 
ATOM      4  C   LIG d   1       5.508  89.771 115.362  0.00  0.00     0.028 C 
ATOM      5  C   LIG d   1       5.427  88.756 114.227  0.00  0.00    -0.047 C 
ATOM      6  C   LIG d   1       3.958  88.304 114.061  0.00  0.00     0.091 C 
ENDROOT
BRANCH   1   7
ATOM      7  O   LIG d   1       1.939  87.761 115.339  0.00  0.00    -0.368 OA
BRANCH   7   8
ATOM      8  C   LIG d   1       1.280  86.575 115.848  0.00  0.00     0.119 C 
BRANCH   8   9
ATOM      9  C   LIG d   1       1.165  85.574 114.682  0.00  0.00     0.028 C 
ATOM     10  C   LIG d   1      -0.250  85.537 114.079  0.00  0.00     0.006 C 
ENDBRANCH   8   9
BRANCH   8  11
ATOM     11  C   LIG d   1      -0.161  86.876 116.269  0.00  0.00     0.028 C 
ATOM     12  C   LIG d   1      -0.279  88.148 117.123  0.00  0.00     0.006 C 
ENDBRANCH   8  11
ENDBRANCH   7   8
ENDBRANCH   1   7
BRANCH   6  13
ATOM     13  N   LIG d   1       3.803  87.248 113.027  0.00  0.00    -0.311 N 
ATOM     14  C   LIG d   1       2.971  87.352 111.993  0.00  0.00     0.210 C 
ATOM     15  C   LIG d   1       2.950  86.140 111.055  0.00  0.00     0.109 C 
ATOM     16  O   LIG d   1       2.271  88.346 111.744  0.00  0.00    -0.276 OA
ATOM     17  H   LIG d   1       4.356  86.421 113.134  0.00  0.00     0.149 HD
ENDBRANCH   6  13
BRANCH   5  18
ATOM     18  N   LIG d   1       5.975  89.396 113.016  0.00  0.00     0.381 N 
ATOM     19  H   LIG d   1       6.038  90.385 113.155  0.00  0.00    -0.090 HD
ATOM     20  H   LIG d   1       5.352  89.225 112.247  0.00  0.00    -0.090 HD
ATOM     21  H   LIG d   1       6.876  89.024 112.812  0.00  0.00    -0.090 HD
ENDBRANCH   5  18
BRANCH   3  22
ATOM     22  C   LIG d   1       5.403  89.790 117.755  0.00  0.00     0.382 C 
ATOM     23  O   LIG d   1       5.892  90.943 117.833  0.00  0.00    -0.241 OA
ATOM     24  O   LIG d   1       5.416  89.050 118.757  0.00  0.00    -0.241 OA
ENDBRANCH   3  22
TORSDOF 7
ENDMDL
MODEL 6
REMARK VINA RESULT:      -5.0      8.357     11.027
REMARK  7 active torsions:
REMARK  status: ('A' for Active; 'I' for Inactive)
REMARK    1  A    between atoms: C_2  and  C_3 
REMARK    2  A    between atoms: C_3  and  O_6 
REMARK    3  A    between atoms: C_3  and  C_4 
REMARK    4  A    between atoms: C_7  and  O_6 
REMARK    5  A    between atoms: C_9  and  C_10 
REMARK    6  A    between atoms: N_15  and  C_14 
REMARK    7  A    between atoms: N_20  and  C_19 
REMARK       I    between atoms: C_22  and  N_20 
ROOT
ATOM      1  C   LIG d   1       2.552  84.689 113.679  0.00  0.00     0.161 C 
ATOM      2  C   LIG d   1       1.440  83.877 113.397  0.00  0.00     0.016 C 
ATOM      3  C   LIG d   1       0.473  84.196 112.416  0.00  0.00     0.038 C 
ATOM      4  C   LIG d   1       0.635  85.279 111.539  0.00  0.00     0.028 C 
ATOM      5  C   LIG d   1       1.481  86.407 112.121  0.00  0.00    -0.047 C 
ATOM      6  C   LIG d   1       2.805  85.817 112.657  0.00  0.00     0.091 C 
ENDROOT
BRANCH   1   7
ATOM      7  O   LIG d   1       3.729  83.871 113.824  0.00  0.00    -0.368 OA
BRANCH   7   8
ATOM      8  C   LIG d   1       3.545  82.447 113.625  0.00  0.00     0.119 C 
BRANCH   8   9
ATOM      9  C   LIG d   1       4.067  81.732 114.886  0.00  0.00     0.028 C 
ATOM     10  C   LIG d   1       5.175  82.528 115.596  0.00  0.00     0.006 C 
ENDBRANCH   8   9
BRANCH   8  11
ATOM     11  C   LIG d   1       4.415  81.928 112.476  0.00  0.00     0.028 C 
ATOM     12  C   LIG d   1       5.185  83.048 111.758  0.00  0.00     0.006 C 
ENDBRANCH   8  11
ENDBRANCH   7   8
ENDBRANCH   1   7
BRANCH   6  13
ATOM     13  N   LIG d   1       3.655  86.841 113.319  0.00  0.00    -0.311 N 
ATOM     14  C   LIG d   1       4.587  87.545 112.679  0.00  0.00     0.210 C 
ATOM     15  C   LIG d   1       5.364  88.534 113.554  0.00  0.00     0.109 C 
ATOM     16  O   LIG d   1       4.822  87.467 111.464  0.00  0.00    -0.276 OA
ATOM     17  H   LIG d   1       3.509  86.991 114.298  0.00  0.00     0.149 HD
ENDBRANCH   6  13
BRANCH   5  18
ATOM     18  N   LIG d   1       1.683  87.407 111.055  0.00  0.00     0.381 N 
ATOM     19  H   LIG d   1       1.110  87.182 110.266  0.00  0.00    -0.090 HD
ATOM     20  H   LIG d   1       2.645  87.381 110.764  0.00  0.00    -0.090 HD
ATOM     21  H   LIG d   1       1.455  88.316 111.393  0.00  0.00    -0.090 HD
ENDBRANCH   5  18
BRANCH   3  22
ATOM     22  C   LIG d   1      -0.691  83.448 112.330  0.00  0.00     0.382 C 
ATOM     23  O   LIG d   1      -1.020  82.922 111.240  0.00  0.00    -0.241 OA
ATOM     24  O   LIG d   1      -1.440  83.330 113.319  0.00  0.00    -0.241 OA
ENDBRANCH   3  22
TORSDOF 7
ENDMDL
MODEL 7
REMARK VINA RESULT:      -4.9      8.690     11.357
REMARK  7 active torsions:
REMARK  status: ('A' for Active; 'I' for Inactive)
REMARK    1  A    between atoms: C_2  and  C_3 
REMARK    2  A    between atoms: C_3  and  O_6 
REMARK    3  A    between atoms: C_3  and  C_4 
REMARK    4  A    between atoms: C_7  and  O_6 
REMARK    5  A    between atoms: C_9  and  C_10 
REMARK    6  A    between atoms: N_15  and  C_14 
REMARK    7  A    between atoms: N_20  and  C_19 
REMARK       I    between atoms: C_22  and  N_20 
ROOT
ATOM      1  C   LIG d   1       3.489  85.200 112.726  0.00  0.00     0.161 C 
ATOM      2  C   LIG d   1       4.285  86.331 112.970  0.00  0.00     0.016 C 
ATOM      3  C   LIG d   1       3.900  87.645 112.614  0.00  0.00     0.038 C 
ATOM      4  C   LIG d   1       2.619  87.934 112.123  0.00  0.00     0.028 C 
ATOM      5  C   LIG d   1       1.971  86.763 111.392  0.00  0.00    -0.047 C 
ATOM      6  C   LIG d   1       2.041  85.509 112.293  0.00  0.00     0.091 C 
ENDROOT
BRANCH   1   7
ATOM      7  O   LIG d   1       3.493  84.341 113.884  0.00  0.00    -0.368 OA
BRANCH   7   8
ATOM      8  C   LIG d   1       4.142  83.056 113.722  0.00  0.00     0.119 C 
BRANCH   8   9
ATOM      9  C   LIG d   1       4.914  83.092 112.389  0.00  0.00     0.028 C 
ATOM     10  C   LIG d   1       4.621  81.866 111.507  0.00  0.00     0.006 C 
ENDBRANCH   8   9
BRANCH   8  11
ATOM     11  C   LIG d   1       3.116  81.929 113.566  0.00  0.00     0.028 C 
ATOM     12  C   LIG d   1       2.219  81.765 114.802  0.00  0.00     0.006 C 
ENDBRANCH   8  11
ENDBRANCH   7   8
ENDBRANCH   1   7
BRANCH   6  13
ATOM     13  N   LIG d   1       1.504  84.297 111.620  0.00  0.00    -0.311 N 
ATOM     14  C   LIG d   1       0.280  83.820 111.837  0.00  0.00     0.210 C 
ATOM     15  C   LIG d   1      -0.066  82.548 111.055  0.00  0.00     0.109 C 
ATOM     16  O   LIG d   1      -0.563  84.346 112.578  0.00  0.00    -0.276 OA
ATOM     17  H   LIG d   1       2.111  83.825 110.978  0.00  0.00     0.149 HD
ENDBRANCH   6  13
BRANCH   5  18
ATOM     18  N   LIG d   1       0.590  87.157 111.055  0.00  0.00     0.381 N 
ATOM     19  H   LIG d   1      -0.055  86.506 111.457  0.00  0.00    -0.090 HD
ATOM     20  H   LIG d   1       0.480  87.134 110.057  0.00  0.00    -0.090 HD
ATOM     21  H   LIG d   1       0.404  88.074 111.396  0.00  0.00    -0.090 HD
ENDBRANCH   5  18
BRANCH   3  22
ATOM     22  C   LIG d   1       4.818  88.680 112.711  0.00  0.00     0.382 C 
ATOM     23  O   LIG d   1       4.452  89.804 113.130  0.00  0.00    -0.241 OA
ATOM     24  O   LIG d   1       5.997  88.515 112.343  0.00  0.00    -0.241 OA
ENDBRANCH   3  22
TORSDOF 7
ENDMDL
MODEL 8
REMARK VINA RESULT:      -4.9     10.101     12.072
REMARK  7 active torsions:
REMARK  status: ('A' for Active; 'I' for Inactive)
REMARK    1  A    between atoms: C_2  and  C_3 
REMARK    2  A    between atoms: C_3  and  O_6 
REMARK    3  A    between atoms: C_3  and  C_4 
REMARK    4  A    between atoms: C_7  and  O_6 
REMARK    5  A    between atoms: C_9  and  C_10 
REMARK    6  A    between atoms: N_15  and  C_14 
REMARK    7  A    between atoms: N_20  and  C_19 
REMARK       I    between atoms: C_22  and  N_20 
ROOT
ATOM      1  C   LIG d   1       5.165  85.151 113.975  0.00  0.00     0.161 C 
ATOM      2  C   LIG d   1       4.748  86.229 113.177  0.00  0.00     0.016 C 
ATOM      3  C   LIG d   1       4.845  87.580 113.583  0.00  0.00     0.038 C 
ATOM      4  C   LIG d   1       5.510  87.955 114.760  0.00  0.00     0.028 C 
ATOM      5  C   LIG d   1       5.497  86.872 115.834  0.00  0.00    -0.047 C 
ATOM      6  C   LIG d   1       5.994  85.546 115.215  0.00  0.00     0.091 C 
ENDROOT
BRANCH   1   7
ATOM      7  O   LIG d   1       5.890  84.199 113.170  0.00  0.00    -0.368 OA
BRANCH   7   8
ATOM      8  C   LIG d   1       5.209  82.951 112.891  0.00  0.00     0.119 C 
BRANCH   8   9
ATOM      9  C   LIG d   1       4.768  82.985 111.415  0.00  0.00     0.028 C 
ATOM     10  C   LIG d   1       3.240  82.904 111.256  0.00  0.00     0.006 C 
ENDBRANCH   8   9
BRANCH   8  11
ATOM     11  C   LIG d   1       3.913  82.831 113.698  0.00  0.00     0.028 C 
ATOM     12  C   LIG d   1       3.973  81.721 114.760  0.00  0.00     0.006 C 
ENDBRANCH   8  11
ENDBRANCH   7   8
ENDBRANCH   1   7
BRANCH   6  13
ATOM     13  N   LIG d   1       5.933  84.414 116.176  0.00  0.00    -0.311 N 
ATOM     14  C   LIG d   1       7.012  83.776 116.626  0.00  0.00     0.210 C 
ATOM     15  C   LIG d   1       6.725  82.625 117.596  0.00  0.00     0.109 C 
ATOM     16  O   LIG d   1       8.181  84.074 116.340  0.00  0.00    -0.276 OA
ATOM     17  H   LIG d   1       5.025  84.127 116.485  0.00  0.00     0.149 HD
ENDBRANCH   6  13
BRANCH   5  18
ATOM     18  N   LIG d   1       6.340  87.341 116.950  0.00  0.00     0.381 N 
ATOM     19  H   LIG d   1       5.840  88.018 117.491  0.00  0.00    -0.090 HD
ATOM     20  H   LIG d   1       7.161  87.782 116.574  0.00  0.00    -0.090 HD
ATOM     21  H   LIG d   1       6.601  86.572 117.526  0.00  0.00    -0.090 HD
ENDBRANCH   5  18
BRANCH   3  22
ATOM     22  C   LIG d   1       4.238  88.570 112.825  0.00  0.00     0.382 C 
ATOM     23  O   LIG d   1       3.221  88.302 112.142  0.00  0.00    -0.241 OA
ATOM     24  O   LIG d   1       4.721  89.718 112.782  0.00  0.00    -0.241 OA
ENDBRANCH   3  22
TORSDOF 7
ENDMDL
MODEL 9
REMARK VINA RESULT:      -4.8      8.810     11.835
REMARK  7 active torsions:
REMARK  status: ('A' for Active; 'I' for Inactive)
REMARK    1  A    between atoms: C_2  and  C_3 
REMARK    2  A    between atoms: C_3  and  O_6 
REMARK    3  A    between atoms: C_3  and  C_4 
REMARK    4  A    between atoms: C_7  and  O_6 
REMARK    5  A    between atoms: C_9  and  C_10 
REMARK    6  A    between atoms: N_15  and  C_14 
REMARK    7  A    between atoms: N_20  and  C_19 
REMARK       I    between atoms: C_22  and  N_20 
ROOT
ATOM      1  C   LIG d   1       2.296  85.796 113.470  0.00  0.00     0.161 C 
ATOM      2  C   LIG d   1       1.415  84.969 112.752  0.00  0.00     0.016 C 
ATOM      3  C   LIG d   1       0.076  84.735 113.142  0.00  0.00     0.038 C 
ATOM      4  C   LIG d   1      -0.521  85.436 114.200  0.00  0.00     0.028 C 
ATOM      5  C   LIG d   1       0.474  85.899 115.259  0.00  0.00    -0.047 C 
ATOM      6  C   LIG d   1       1.629  86.656 114.564  0.00  0.00     0.091 C 
ENDROOT
BRANCH   1   7
ATOM      7  O   LIG d   1       3.035  86.631 112.557  0.00  0.00    -0.368 OA
BRANCH   7   8
ATOM      8  C   LIG d   1       4.442  86.320 112.405  0.00  0.00     0.119 C 
BRANCH   8   9
ATOM      9  C   LIG d   1       4.771  85.174 113.382  0.00  0.00     0.028 C 
ATOM     10  C   LIG d   1       5.377  83.953 112.671  0.00  0.00     0.006 C 
ENDBRANCH   8   9
BRANCH   8  11
ATOM     11  C   LIG d   1       5.322  87.493 112.845  0.00  0.00     0.028 C 
ATOM     12  C   LIG d   1       4.541  88.811 112.970  0.00  0.00     0.006 C 
ENDBRANCH   8  11
ENDBRANCH   7   8
ENDBRANCH   1   7
BRANCH   6  13
ATOM     13  N   LIG d   1       2.691  87.070 115.518  0.00  0.00    -0.311 N 
ATOM     14  C   LIG d   1       2.724  88.267 116.102  0.00  0.00     0.210 C 
ATOM     15  C   LIG d   1       3.916  88.497 117.037  0.00  0.00     0.109 C 
ATOM     16  O   LIG d   1       1.863  89.148 115.960  0.00  0.00    -0.276 OA
ATOM     17  H   LIG d   1       3.412  86.405 115.715  0.00  0.00     0.149 HD
ENDBRANCH   6  13
BRANCH   5  18
ATOM     18  N   LIG d   1      -0.261  86.732 116.229  0.00  0.00     0.381 N 
ATOM     19  H   LIG d   1      -1.169  86.951 115.868  0.00  0.00    -0.090 HD
ATOM     20  H   LIG d   1       0.240  87.593 116.364  0.00  0.00    -0.090 HD
ATOM     21  H   LIG d   1      -0.348  86.250 117.096  0.00  0.00    -0.090 HD
ENDBRANCH   5  18
BRANCH   3  22
ATOM     22  C   LIG d   1      -0.668  83.761 112.495  0.00  0.00     0.382 C 
ATOM     23  O   LIG d   1      -0.643  83.682 111.243  0.00  0.00    -0.241 OA
ATOM     24  O   LIG d   1      -1.398  82.988 113.144  0.00  0.00    -0.241 OA
ENDBRANCH   3  22
TORSDOF 7
ENDMDL
