MODEL 1
REMARK VINA RESULT:      -5.7      0.000      0.000
REMARK  7 active torsions:
REMARK  status: ('A' for Active; 'I' for Inactive)
REMARK    1  A    between atoms: C_2  and  C_3 
REMARK    2  A    between atoms: C_3  and  O_6 
REMARK    3  A    between atoms: C_3  and  C_4 
REMARK    4  A    between atoms: C_7  and  O_6 
REMARK    5  A    between atoms: C_9  and  C_10 
REMARK    6  A    between atoms: N_15  and  C_14 
REMARK    7  A    between atoms: N_20  and  C_19 
REMARK       I    between atoms: C_22  and  N_20 
ROOT
ATOM      1  C   LIG d   1      -2.988  77.397 116.180  0.00  0.00     0.161 C 
ATOM      2  C   LIG d   1      -3.243  78.341 115.172  0.00  0.00     0.016 C 
ATOM      3  C   LIG d   1      -2.398  78.534 114.055  0.00  0.00     0.038 C 
ATOM      4  C   LIG d   1      -1.313  77.685 113.791  0.00  0.00     0.028 C 
ATOM      5  C   LIG d   1      -0.727  77.044 115.044  0.00  0.00    -0.047 C 
ATOM      6  C   LIG d   1      -1.869  76.387 115.852  0.00  0.00     0.091 C 
ENDROOT
BRANCH   1   7
ATOM      7  O   LIG d   1      -4.206  76.704 116.520  0.00  0.00    -0.368 OA
BRANCH   7   8
ATOM      8  C   LIG d   1      -5.376  77.053 115.741  0.00  0.00     0.119 C 
BRANCH   8   9
ATOM      9  C   LIG d   1      -6.451  77.560 116.723  0.00  0.00     0.028 C 
ATOM     10  C   LIG d   1      -7.643  76.595 116.837  0.00  0.00     0.006 C 
ENDBRANCH   8   9
BRANCH   8  11
ATOM     11  C   LIG d   1      -5.988  75.819 115.071  0.00  0.00     0.028 C 
ATOM     12  C   LIG d   1      -4.928  74.852 114.522  0.00  0.00     0.006 C 
ENDBRANCH   8  11
ENDBRANCH   7   8
ENDBRANCH   1   7
BRANCH   6  13
ATOM     13  N   LIG d   1      -1.395  75.809 117.137  0.00  0.00    -0.311 N 
ATOM     14  C   LIG d   1      -0.983  74.549 117.265  0.00  0.00     0.210 C 
ATOM     15  C   LIG d   1      -0.554  74.150 118.681  0.00  0.00     0.109 C 
ATOM     16  O   LIG d   1      -0.901  73.733 116.335  0.00  0.00    -0.276 OA
ATOM     17  H   LIG d   1      -1.398  76.410 117.937  0.00  0.00     0.149 HD
ENDBRANCH   6  13
BRANCH   5  18
ATOM     18  N   LIG d   1       0.303  76.081 114.611  0.00  0.00     0.381 N 
ATOM     19  H   LIG d   1      -0.044  75.532 113.850  0.00  0.00    -0.090 HD
ATOM     20  H   LIG d   1       0.512  75.463 115.376  0.00  0.00    -0.090 HD
ATOM     21  H   LIG d   1       1.127  76.566 114.332  0.00  0.00    -0.090 HD
ENDBRANCH   5  18
BRANCH   3  22
ATOM     22  C   LIG d   1      -2.613  79.611 113.208  0.00  0.00     0.382 C 
ATOM     23  O   LIG d   1      -3.389  80.535 113.554  0.00  0.00    -0.241 OA
ATOM     24  O   LIG d   1      -2.076  79.649 112.085  0.00  0.00    -0.241 OA
ENDBRANCH   3  22
TORSDOF 7
ENDMDL
MODEL 2
REMARK VINA RESULT:      -5.7      1.557      2.015
REMARK  7 active torsions:
REMARK  status: ('A' for Active; 'I' for Inactive)
REMARK    1  A    between atoms: C_2  and  C_3 
REMARK    2  A    between atoms: C_3  and  O_6 
REMARK    3  A    between atoms: C_3  and  C_4 
REMARK    4  A    between atoms: C_7  and  O_6 
REMARK    5  A    between atoms: C_9  and  C_10 
REMARK    6  A    between atoms: N_15  and  C_14 
REMARK    7  A    between atoms: N_20  and  C_19 
REMARK       I    between atoms: C_22  and  N_20 
ROOT
ATOM      1  C   LIG d   1      -3.160  76.024 115.161  0.00  0.00     0.161 C 
ATOM      2  C   LIG d   1      -3.390  76.682 113.941  0.00  0.00     0.016 C 
ATOM      3  C   LIG d   1      -2.356  77.062 113.055  0.00  0.00     0.038 C 
ATOM      4  C   LIG d   1      -1.024  76.672 113.259  0.00  0.00     0.028 C 
ATOM      5  C   LIG d   1      -0.677  76.446 114.727  0.00  0.00    -0.047 C 
ATOM      6  C   LIG d   1      -1.724  75.492 115.348  0.00  0.00     0.091 C 
ENDROOT
BRANCH   1   7
ATOM      7  O   LIG d   1      -4.115  74.957 115.328  0.00  0.00    -0.368 OA
BRANCH   7   8
ATOM      8  C   LIG d   1      -4.983  75.054 116.484  0.00  0.00     0.119 C 
BRANCH   8   9
ATOM      9  C   LIG d   1      -6.379  74.563 116.057  0.00  0.00     0.028 C 
ATOM     10  C   LIG d   1      -6.828  73.317 116.840  0.00  0.00     0.006 C 
ENDBRANCH   8   9
BRANCH   8  11
ATOM     11  C   LIG d   1      -5.179  76.511 116.913  0.00  0.00     0.028 C 
ATOM     12  C   LIG d   1      -6.499  77.110 116.402  0.00  0.00     0.006 C 
ENDBRANCH   8  11
ENDBRANCH   7   8
ENDBRANCH   1   7
BRANCH   6  13
ATOM     13  N   LIG d   1      -1.507  75.284 116.804  0.00  0.00    -0.311 N 
ATOM     14  C   LIG d   1      -0.777  74.287 117.301  0.00  0.00     0.210 C 
ATOM     15  C   LIG d   1      -0.699  74.243 118.830  0.00  0.00     0.109 C 
ATOM     16  O   LIG d   1      -0.161  73.454 116.620  0.00  0.00    -0.276 OA
ATOM     17  H   LIG d   1      -1.946  75.932 117.427  0.00  0.00     0.149 HD
ENDBRANCH   6  13
BRANCH   5  18
ATOM     18  N   LIG d   1       0.697  75.912 114.784  0.00  0.00     0.381 N 
ATOM     19  H   LIG d   1       0.860  75.312 114.000  0.00  0.00    -0.090 HD
ATOM     20  H   LIG d   1       0.801  75.369 115.623  0.00  0.00    -0.090 HD
ATOM     21  H   LIG d   1       1.354  76.661 114.780  0.00  0.00    -0.090 HD
ENDBRANCH   5  18
BRANCH   3  22
ATOM     22  C   LIG d   1      -2.645  77.875 111.970  0.00  0.00     0.382 C 
ATOM     23  O   LIG d   1      -3.395  77.457 111.055  0.00  0.00    -0.241 OA
ATOM     24  O   LIG d   1      -2.129  79.004 111.871  0.00  0.00    -0.241 OA
ENDBRANCH   3  22
TORSDOF 7
ENDMDL
MODEL 3
REMARK VINA RESULT:      -5.1      8.858     11.627
REMARK  7 active torsions:
REMARK  status: ('A' for Active; 'I' for Inactive)
REMARK    1  A    between atoms: C_2  and  C_3 
REMARK    2  A    between atoms: C_3  and  O_6 
REMARK    3  A    between atoms: C_3  and  C_4 
REMARK    4  A    between atoms: C_7  and  O_6 
REMARK    5  A    between atoms: C_9  and  C_10 
REMARK    6  A    between atoms: N_15  and  C_14 
REMARK    7  A    between atoms: N_20  and  C_19 
REMARK       I    between atoms: C_22  and  N_20 
ROOT
ATOM      1  C   LIG d   1       3.410  85.312 112.813  0.00  0.00     0.161 C 
ATOM      2  C   LIG d   1       4.303  86.367 113.063  0.00  0.00     0.016 C 
ATOM      3  C   LIG d   1       3.990  87.725 112.824  0.00  0.00     0.038 C 
ATOM      4  C   LIG d   1       2.699  88.135 112.458  0.00  0.00     0.028 C 
ATOM      5  C   LIG d   1       1.913  87.064 111.708  0.00  0.00    -0.047 C 
ATOM      6  C   LIG d   1       1.960  85.749 112.519  0.00  0.00     0.091 C 
ENDROOT
BRANCH   1   7
ATOM      7  O   LIG d   1       3.440  84.377 113.909  0.00  0.00    -0.368 OA
BRANCH   7   8
ATOM      8  C   LIG d   1       3.993  83.070 113.617  0.00  0.00     0.119 C 
BRANCH   8   9
ATOM      9  C   LIG d   1       4.393  83.058 112.129  0.00  0.00     0.028 C 
ATOM     10  C   LIG d   1       5.878  82.715 111.923  0.00  0.00     0.006 C 
ENDBRANCH   8   9
BRANCH   8  11
ATOM     11  C   LIG d   1       2.934  81.972 113.761  0.00  0.00     0.028 C 
ATOM     12  C   LIG d   1       2.524  81.360 112.413  0.00  0.00     0.006 C 
ENDBRANCH   8  11
ENDBRANCH   7   8
ENDBRANCH   1   7
BRANCH   6  13
ATOM     13  N   LIG d   1       1.286  84.626 111.816  0.00  0.00    -0.311 N 
ATOM     14  C   LIG d   1       0.012  84.295 112.016  0.00  0.00     0.210 C 
ATOM     15  C   LIG d   1      -0.479  83.092 111.203  0.00  0.00     0.109 C 
ATOM     16  O   LIG d   1      -0.768  84.903 112.765  0.00  0.00    -0.276 OA
ATOM     17  H   LIG d   1       1.836  84.098 111.166  0.00  0.00     0.149 HD
ENDBRANCH   6  13
BRANCH   5  18
ATOM     18  N   LIG d   1       0.543  87.573 111.511  0.00  0.00     0.381 N 
ATOM     19  H   LIG d   1       0.247  88.074 112.324  0.00  0.00    -0.090 HD
ATOM     20  H   LIG d   1      -0.077  86.794 111.377  0.00  0.00    -0.090 HD
ATOM     21  H   LIG d   1       0.514  88.172 110.714  0.00  0.00    -0.090 HD
ENDBRANCH   5  18
BRANCH   3  22
ATOM     22  C   LIG d   1       4.986  88.686 112.912  0.00  0.00     0.382 C 
ATOM     23  O   LIG d   1       4.687  89.876 113.176  0.00  0.00    -0.241 OA
ATOM     24  O   LIG d   1       6.174  88.387 112.687  0.00  0.00    -0.241 OA
ENDBRANCH   3  22
TORSDOF 7
ENDMDL
MODEL 4
REMARK VINA RESULT:      -5.1      2.444      5.799
REMARK  7 active torsions:
REMARK  status: ('A' for Active; 'I' for Inactive)
REMARK    1  A    between atoms: C_2  and  C_3 
REMARK    2  A    between atoms: C_3  and  O_6 
REMARK    3  A    between atoms: C_3  and  C_4 
REMARK    4  A    between atoms: C_7  and  O_6 
REMARK    5  A    between atoms: C_9  and  C_10 
REMARK    6  A    between atoms: N_15  and  C_14 
REMARK    7  A    between atoms: N_20  and  C_19 
REMARK       I    between atoms: C_22  and  N_20 
ROOT
ATOM      1  C   LIG d   1      -2.891  75.531 115.479  0.00  0.00     0.161 C 
ATOM      2  C   LIG d   1      -3.901  74.790 116.115  0.00  0.00     0.016 C 
ATOM      3  C   LIG d   1      -5.241  74.755 115.666  0.00  0.00     0.038 C 
ATOM      4  C   LIG d   1      -5.633  75.344 114.455  0.00  0.00     0.028 C 
ATOM      5  C   LIG d   1      -4.758  76.523 114.044  0.00  0.00    -0.047 C 
ATOM      6  C   LIG d   1      -3.275  76.089 114.093  0.00  0.00     0.091 C 
ENDROOT
BRANCH   1   7
ATOM      7  O   LIG d   1      -1.690  74.740 115.386  0.00  0.00    -0.368 OA
BRANCH   7   8
ATOM      8  C   LIG d   1      -0.527  75.264 116.073  0.00  0.00     0.119 C 
BRANCH   8   9
ATOM      9  C   LIG d   1       0.015  74.146 116.984  0.00  0.00     0.028 C 
ATOM     10  C   LIG d   1      -0.791  74.007 118.286  0.00  0.00     0.006 C 
ENDBRANCH   8   9
BRANCH   8  11
ATOM     11  C   LIG d   1      -0.906  76.408 117.018  0.00  0.00     0.028 C 
ATOM     12  C   LIG d   1       0.030  77.620 116.892  0.00  0.00     0.006 C 
ENDBRANCH   8  11
ENDBRANCH   7   8
ENDBRANCH   1   7
BRANCH   6  13
ATOM     13  N   LIG d   1      -2.346  77.208 113.786  0.00  0.00    -0.311 N 
ATOM     14  C   LIG d   1      -1.871  77.453 112.566  0.00  0.00     0.210 C 
ATOM     15  C   LIG d   1      -0.912  78.644 112.473  0.00  0.00     0.109 C 
ATOM     16  O   LIG d   1      -2.177  76.817 111.547  0.00  0.00    -0.276 OA
ATOM     17  H   LIG d   1      -2.070  77.794 114.549  0.00  0.00     0.149 HD
ENDBRANCH   6  13
BRANCH   5  18
ATOM     18  N   LIG d   1      -5.191  76.952 112.700  0.00  0.00     0.381 N 
ATOM     19  H   LIG d   1      -4.677  77.765 112.422  0.00  0.00    -0.090 HD
ATOM     20  H   LIG d   1      -6.166  77.191 112.734  0.00  0.00    -0.090 HD
ATOM     21  H   LIG d   1      -5.044  76.217 112.044  0.00  0.00    -0.090 HD
ENDBRANCH   5  18
BRANCH   3  22
ATOM     22  C   LIG d   1      -6.215  74.160 116.454  0.00  0.00     0.382 C 
ATOM     23  O   LIG d   1      -6.735  74.801 117.399  0.00  0.00    -0.241 OA
ATOM     24  O   LIG d   1      -6.547  72.975 116.260  0.00  0.00    -0.241 OA
ENDBRANCH   3  22
TORSDOF 7
ENDMDL
MODEL 5
REMARK VINA RESULT:      -5.0      9.525     11.707
REMARK  7 active torsions:
REMARK  status: ('A' for Active; 'I' for Inactive)
REMARK    1  A    between atoms: C_2  and  C_3 
REMARK    2  A    between atoms: C_3  and  O_6 
REMARK    3  A    between atoms: C_3  and  C_4 
REMARK    4  A    between atoms: C_7  and  O_6 
REMARK    5  A    between atoms: C_9  and  C_10 
REMARK    6  A    between atoms: N_15  and  C_14 
REMARK    7  A    between atoms: N_20  and  C_19 
REMARK       I    between atoms: C_22  and  N_20 
ROOT
ATOM      1  C   LIG d   1       4.287  85.580 112.919  0.00  0.00     0.161 C 
ATOM      2  C   LIG d   1       4.701  86.882 112.593  0.00  0.00     0.016 C 
ATOM      3  C   LIG d   1       5.199  87.802 113.545  0.00  0.00     0.038 C 
ATOM      4  C   LIG d   1       5.458  87.428 114.872  0.00  0.00     0.028 C 
ATOM      5  C   LIG d   1       4.583  86.277 115.359  0.00  0.00    -0.047 C 
ATOM      6  C   LIG d   1       4.667  85.117 114.341  0.00  0.00     0.091 C 
ENDROOT
BRANCH   1   7
ATOM      7  O   LIG d   1       4.786  84.649 111.939  0.00  0.00    -0.368 OA
BRANCH   7   8
ATOM      8  C   LIG d   1       3.799  84.063 111.055  0.00  0.00     0.119 C 
BRANCH   8   9
ATOM      9  C   LIG d   1       2.408  84.397 111.628  0.00  0.00     0.028 C 
ATOM     10  C   LIG d   1       1.582  83.137 111.936  0.00  0.00     0.006 C 
ENDBRANCH   8   9
BRANCH   8  11
ATOM     11  C   LIG d   1       3.883  82.534 111.061  0.00  0.00     0.028 C 
ATOM     12  C   LIG d   1       5.316  82.017 111.263  0.00  0.00     0.006 C 
ENDBRANCH   8  11
ENDBRANCH   7   8
ENDBRANCH   1   7
BRANCH   6  13
ATOM     13  N   LIG d   1       3.774  83.984 114.699  0.00  0.00    -0.311 N 
ATOM     14  C   LIG d   1       4.204  82.732 114.850  0.00  0.00     0.210 C 
ATOM     15  C   LIG d   1       3.115  81.713 115.200  0.00  0.00     0.109 C 
ATOM     16  O   LIG d   1       5.388  82.375 114.760  0.00  0.00    -0.276 OA
ATOM     17  H   LIG d   1       2.802  84.190 114.822  0.00  0.00     0.149 HD
ENDBRANCH   6  13
BRANCH   5  18
ATOM     18  N   LIG d   1       5.053  85.900 116.706  0.00  0.00     0.381 N 
ATOM     19  H   LIG d   1       5.969  85.502 116.646  0.00  0.00    -0.090 HD
ATOM     20  H   LIG d   1       4.432  85.206 117.084  0.00  0.00    -0.090 HD
ATOM     21  H   LIG d   1       5.069  86.701 117.299  0.00  0.00    -0.090 HD
ENDBRANCH   5  18
BRANCH   3  22
ATOM     22  C   LIG d   1       5.404  89.124 113.182  0.00  0.00     0.382 C 
ATOM     23  O   LIG d   1       4.440  89.927 113.167  0.00  0.00    -0.241 OA
ATOM     24  O   LIG d   1       6.532  89.513 112.825  0.00  0.00    -0.241 OA
ENDBRANCH   3  22
TORSDOF 7
ENDMDL
MODEL 6
REMARK VINA RESULT:      -5.0      7.297     10.447
REMARK  7 active torsions:
REMARK  status: ('A' for Active; 'I' for Inactive)
REMARK    1  A    between atoms: C_2  and  C_3 
REMARK    2  A    between atoms: C_3  and  O_6 
REMARK    3  A    between atoms: C_3  and  C_4 
REMARK    4  A    between atoms: C_7  and  O_6 
REMARK    5  A    between atoms: C_9  and  C_10 
REMARK    6  A    between atoms: N_15  and  C_14 
REMARK    7  A    between atoms: N_20  and  C_19 
REMARK       I    between atoms: C_22  and  N_20 
ROOT
ATOM      1  C   LIG d   1       1.805  83.889 113.260  0.00  0.00     0.161 C 
ATOM      2  C   LIG d   1       0.911  82.823 113.068  0.00  0.00     0.016 C 
ATOM      3  C   LIG d   1      -0.298  82.942 112.345  0.00  0.00     0.038 C 
ATOM      4  C   LIG d   1      -0.623  84.105 111.630  0.00  0.00     0.028 C 
ATOM      5  C   LIG d   1       0.005  85.368 112.211  0.00  0.00    -0.047 C 
ATOM      6  C   LIG d   1       1.522  85.134 112.394  0.00  0.00     0.091 C 
ENDROOT
BRANCH   1   7
ATOM      7  O   LIG d   1       3.158  83.434 113.055  0.00  0.00    -0.368 OA
BRANCH   7   8
ATOM      8  C   LIG d   1       3.342  81.999 112.973  0.00  0.00     0.119 C 
BRANCH   8   9
ATOM      9  C   LIG d   1       3.899  81.526 114.330  0.00  0.00     0.028 C 
ATOM     10  C   LIG d   1       4.808  82.576 114.990  0.00  0.00     0.006 C 
ENDBRANCH   8   9
BRANCH   8  11
ATOM     11  C   LIG d   1       4.416  81.633 111.944  0.00  0.00     0.028 C 
ATOM     12  C   LIG d   1       4.997  82.862 111.226  0.00  0.00     0.006 C 
ENDBRANCH   8  11
ENDBRANCH   7   8
ENDBRANCH   1   7
BRANCH   6  13
ATOM     13  N   LIG d   1       2.200  86.291 113.036  0.00  0.00    -0.311 N 
ATOM     14  C   LIG d   1       2.775  87.276 112.349  0.00  0.00     0.210 C 
ATOM     15  C   LIG d   1       3.435  88.362 113.205  0.00  0.00     0.109 C 
ATOM     16  O   LIG d   1       2.774  87.371 111.112  0.00  0.00    -0.276 OA
ATOM     17  H   LIG d   1       2.220  86.310 114.036  0.00  0.00     0.149 HD
ENDBRANCH   6  13
BRANCH   5  18
ATOM     18  N   LIG d   1      -0.302  86.480 111.292  0.00  0.00     0.381 N 
ATOM     19  H   LIG d   1      -0.842  86.144 110.521  0.00  0.00    -0.090 HD
ATOM     20  H   LIG d   1       0.560  86.854 110.935  0.00  0.00    -0.090 HD
ATOM     21  H   LIG d   1      -0.806  87.192 111.775  0.00  0.00    -0.090 HD
ENDBRANCH   5  18
BRANCH   3  22
ATOM     22  C   LIG d   1      -1.216  81.903 112.364  0.00  0.00     0.382 C 
ATOM     23  O   LIG d   1      -2.385  82.106 112.774  0.00  0.00    -0.241 OA
ATOM     24  O   LIG d   1      -0.878  80.755 112.019  0.00  0.00    -0.241 OA
ENDBRANCH   3  22
TORSDOF 7
ENDMDL
MODEL 7
REMARK VINA RESULT:      -5.0      1.426      2.039
REMARK  7 active torsions:
REMARK  status: ('A' for Active; 'I' for Inactive)
REMARK    1  A    between atoms: C_2  and  C_3 
REMARK    2  A    between atoms: C_3  and  O_6 
REMARK    3  A    between atoms: C_3  and  C_4 
REMARK    4  A    between atoms: C_7  and  O_6 
REMARK    5  A    between atoms: C_9  and  C_10 
REMARK    6  A    between atoms: N_15  and  C_14 
REMARK    7  A    between atoms: N_20  and  C_19 
REMARK       I    between atoms: C_22  and  N_20 
ROOT
ATOM      1  C   LIG d   1      -3.129  77.951 115.661  0.00  0.00     0.161 C 
ATOM      2  C   LIG d   1      -3.262  78.988 114.722  0.00  0.00     0.016 C 
ATOM      3  C   LIG d   1      -2.405  79.144 113.609  0.00  0.00     0.038 C 
ATOM      4  C   LIG d   1      -1.443  78.181 113.273  0.00  0.00     0.028 C 
ATOM      5  C   LIG d   1      -0.940  77.383 114.471  0.00  0.00    -0.047 C 
ATOM      6  C   LIG d   1      -2.154  76.828 115.249  0.00  0.00     0.091 C 
ENDROOT
BRANCH   1   7
ATOM      7  O   LIG d   1      -4.425  77.402 115.970  0.00  0.00    -0.368 OA
BRANCH   7   8
ATOM      8  C   LIG d   1      -4.890  77.592 117.329  0.00  0.00     0.119 C 
BRANCH   8   9
ATOM      9  C   LIG d   1      -6.253  78.308 117.256  0.00  0.00     0.028 C 
ATOM     10  C   LIG d   1      -6.189  79.747 117.796  0.00  0.00     0.006 C 
ENDBRANCH   8   9
BRANCH   8  11
ATOM     11  C   LIG d   1      -3.973  78.542 118.104  0.00  0.00     0.028 C 
ATOM     12  C   LIG d   1      -3.293  77.866 119.305  0.00  0.00     0.006 C 
ENDBRANCH   8  11
ENDBRANCH   7   8
ENDBRANCH   1   7
BRANCH   6  13
ATOM     13  N   LIG d   1      -1.754  76.105 116.485  0.00  0.00    -0.311 N 
ATOM     14  C   LIG d   1      -1.490  74.800 116.518  0.00  0.00     0.210 C 
ATOM     15  C   LIG d   1      -1.115  74.251 117.898  0.00  0.00     0.109 C 
ATOM     16  O   LIG d   1      -1.500  74.051 115.529  0.00  0.00    -0.276 OA
ATOM     17  H   LIG d   1      -1.690  76.642 117.327  0.00  0.00     0.149 HD
ENDBRANCH   6  13
BRANCH   5  18
ATOM     18  N   LIG d   1      -0.048  76.326 113.960  0.00  0.00     0.381 N 
ATOM     19  H   LIG d   1      -0.265  75.455 114.404  0.00  0.00    -0.090 HD
ATOM     20  H   LIG d   1       0.902  76.565 114.184  0.00  0.00    -0.090 HD
ATOM     21  H   LIG d   1      -0.152  76.239 112.973  0.00  0.00    -0.090 HD
ENDBRANCH   5  18
BRANCH   3  22
ATOM     22  C   LIG d   1      -2.480  80.296 112.840  0.00  0.00     0.382 C 
ATOM     23  O   LIG d   1      -3.501  81.023 112.898  0.00  0.00    -0.241 OA
ATOM     24  O   LIG d   1      -1.559  80.594 112.057  0.00  0.00    -0.241 OA
ENDBRANCH   3  22
TORSDOF 7
ENDMDL
MODEL 8
REMARK VINA RESULT:      -4.9     11.552     13.566
REMARK  7 active torsions:
REMARK  status: ('A' for Active; 'I' for Inactive)
REMARK    1  A    between atoms: C_2  and  C_3 
REMARK    2  A    between atoms: C_3  and  O_6 
REMARK    3  A    between atoms: C_3  and  C_4 
REMARK    4  A    between atoms: C_7  and  O_6 
REMARK    5  A    between atoms: C_9  and  C_10 
REMARK    6  A    between atoms: N_15  and  C_14 
REMARK    7  A    between atoms: N_20  and  C_19 
REMARK       I    between atoms: C_22  and  N_20 
ROOT
ATOM      1  C   LIG d   1       4.157  88.427 115.482  0.00  0.00     0.161 C 
ATOM      2  C   LIG d   1       3.292  88.045 114.443  0.00  0.00     0.016 C 
ATOM      3  C   LIG d   1       3.688  87.971 113.088  0.00  0.00     0.038 C 
ATOM      4  C   LIG d   1       5.026  88.129 112.697  0.00  0.00     0.028 C 
ATOM      5  C   LIG d   1       5.834  89.010 113.645  0.00  0.00    -0.047 C 
ATOM      6  C   LIG d   1       5.647  88.495 115.090  0.00  0.00     0.091 C 
ENDROOT
BRANCH   1   7
ATOM      7  O   LIG d   1       3.975  87.553 116.614  0.00  0.00    -0.368 OA
BRANCH   7   8
ATOM      8  C   LIG d   1       3.499  86.218 116.318  0.00  0.00     0.119 C 
BRANCH   8   9
ATOM      9  C   LIG d   1       2.435  85.861 117.375  0.00  0.00     0.028 C 
ATOM     10  C   LIG d   1       1.002  86.080 116.862  0.00  0.00     0.006 C 
ENDBRANCH   8   9
BRANCH   8  11
ATOM     11  C   LIG d   1       4.610  85.178 116.495  0.00  0.00     0.028 C 
ATOM     12  C   LIG d   1       5.154  84.655 115.156  0.00  0.00     0.006 C 
ENDBRANCH   8  11
ENDBRANCH   7   8
ENDBRANCH   1   7
BRANCH   6  13
ATOM     13  N   LIG d   1       6.336  89.352 116.090  0.00  0.00    -0.311 N 
ATOM     14  C   LIG d   1       7.587  89.142 116.497  0.00  0.00     0.210 C 
ATOM     15  C   LIG d   1       8.099  90.131 117.550  0.00  0.00     0.109 C 
ATOM     16  O   LIG d   1       8.332  88.251 116.063  0.00  0.00    -0.276 OA
ATOM     17  H   LIG d   1       5.816  90.117 116.471  0.00  0.00     0.149 HD
ENDBRANCH   6  13
BRANCH   5  18
ATOM     18  N   LIG d   1       7.239  88.977 113.196  0.00  0.00     0.381 N 
ATOM     19  H   LIG d   1       7.827  88.678 113.947  0.00  0.00    -0.090 HD
ATOM     20  H   LIG d   1       7.516  89.905 112.928  0.00  0.00    -0.090 HD
ATOM     21  H   LIG d   1       7.335  88.357 112.422  0.00  0.00    -0.090 HD
ENDBRANCH   5  18
BRANCH   3  22
ATOM     22  C   LIG d   1       2.733  87.776 112.102  0.00  0.00     0.382 C 
ATOM     23  O   LIG d   1       1.612  88.332 112.196  0.00  0.00    -0.241 OA
ATOM     24  O   LIG d   1       2.962  87.016 111.142  0.00  0.00    -0.241 OA
ENDBRANCH   3  22
TORSDOF 7
ENDMDL
MODEL 9
REMARK VINA RESULT:      -4.8     22.006     24.717
REMARK  7 active torsions:
REMARK  status: ('A' for Active; 'I' for Inactive)
REMARK    1  A    between atoms: C_2  and  C_3 
REMARK    2  A    between atoms: C_3  and  O_6 
REMARK    3  A    between atoms: C_3  and  C_4 
REMARK    4  A    between atoms: C_7  and  O_6 
REMARK    5  A    between atoms: C_9  and  C_10 
REMARK    6  A    between atoms: N_15  and  C_14 
REMARK    7  A    between atoms: N_20  and  C_19 
REMARK       I    between atoms: C_22  and  N_20 
ROOT
ATOM      1  C   LIG d   1     -26.153  85.518 113.812  0.00  0.00     0.161 C 
ATOM      2  C   LIG d   1     -25.014  86.341 113.802  0.00  0.00     0.016 C 
ATOM      3  C   LIG d   1     -23.707  85.857 113.569  0.00  0.00     0.038 C 
ATOM      4  C   LIG d   1     -23.466  84.531 113.177  0.00  0.00     0.028 C 
ATOM      5  C   LIG d   1     -24.527  83.552 113.667  0.00  0.00    -0.047 C 
ATOM      6  C   LIG d   1     -25.923  84.089 113.277  0.00  0.00     0.091 C 
ENDROOT
BRANCH   1   7
ATOM      7  O   LIG d   1     -27.224  86.158 113.090  0.00  0.00    -0.368 OA
BRANCH   7   8
ATOM      8  C   LIG d   1     -27.187  86.026 111.647  0.00  0.00     0.119 C 
BRANCH   8   9
ATOM      9  C   LIG d   1     -27.101  87.447 111.055  0.00  0.00     0.028 C 
ATOM     10  C   LIG d   1     -27.544  88.527 112.056  0.00  0.00     0.006 C 
ENDBRANCH   8   9
BRANCH   8  11
ATOM     11  C   LIG d   1     -28.495  85.440 111.107  0.00  0.00     0.028 C 
ATOM     12  C   LIG d   1     -29.586  85.327 112.183  0.00  0.00     0.006 C 
ENDBRANCH   8  11
ENDBRANCH   7   8
ENDBRANCH   1   7
BRANCH   6  13
ATOM     13  N   LIG d   1     -27.024  83.234 113.792  0.00  0.00    -0.311 N 
ATOM     14  C   LIG d   1     -27.607  82.277 113.073  0.00  0.00     0.210 C 
ATOM     15  C   LIG d   1     -28.735  81.526 113.788  0.00  0.00     0.109 C 
ATOM     16  O   LIG d   1     -27.275  81.956 111.921  0.00  0.00    -0.276 OA
ATOM     17  H   LIG d   1     -27.335  83.405 114.729  0.00  0.00     0.149 HD
ENDBRANCH   6  13
BRANCH   5  18
ATOM     18  N   LIG d   1     -24.228  82.236 113.073  0.00  0.00     0.381 N 
ATOM     19  H   LIG d   1     -25.051  81.668 113.076  0.00  0.00    -0.090 HD
ATOM     20  H   LIG d   1     -23.527  81.779 113.631  0.00  0.00    -0.090 HD
ATOM     21  H   LIG d   1     -23.897  82.350 112.141  0.00  0.00    -0.090 HD
ENDBRANCH   5  18
BRANCH   3  22
ATOM     22  C   LIG d   1     -22.619  86.693 113.766  0.00  0.00     0.382 C 
ATOM     23  O   LIG d   1     -22.754  87.754 114.423  0.00  0.00    -0.241 OA
ATOM     24  O   LIG d   1     -21.514  86.424 113.258  0.00  0.00    -0.241 OA
ENDBRANCH   3  22
TORSDOF 7
ENDMDL
