MODEL 1
REMARK VINA RESULT:      -6.3      0.000      0.000
REMARK  7 active torsions:
REMARK  status: ('A' for Active; 'I' for Inactive)
REMARK    1  A    between atoms: C_2  and  C_3 
REMARK    2  A    between atoms: C_3  and  O_6 
REMARK    3  A    between atoms: C_3  and  C_4 
REMARK    4  A    between atoms: C_7  and  O_6 
REMARK    5  A    between atoms: C_9  and  C_10 
REMARK    6  A    between atoms: N_15  and  C_14 
REMARK    7  A    between atoms: N_20  and  C_19 
REMARK       I    between atoms: C_22  and  N_20 
ROOT
ATOM      1  C   LIG d   1      -7.587  76.620 117.566  0.00  0.00     0.161 C 
ATOM      2  C   LIG d   1      -8.855  77.097 117.939  0.00  0.00     0.016 C 
ATOM      3  C   LIG d   1      -9.115  78.450 118.257  0.00  0.00     0.038 C 
ATOM      4  C   LIG d   1      -8.151  79.453 118.075  0.00  0.00     0.028 C 
ATOM      5  C   LIG d   1      -6.718  78.942 118.184  0.00  0.00    -0.047 C 
ATOM      6  C   LIG d   1      -6.549  77.719 117.255  0.00  0.00     0.091 C 
ENDROOT
BRANCH   1   7
ATOM      7  O   LIG d   1      -7.714  75.719 116.449  0.00  0.00    -0.368 OA
BRANCH   7   8
ATOM      8  C   LIG d   1      -7.815  74.311 116.774  0.00  0.00     0.119 C 
BRANCH   8   9
ATOM      9  C   LIG d   1      -6.831  73.553 115.861  0.00  0.00     0.028 C 
ATOM     10  C   LIG d   1      -6.032  74.497 114.948  0.00  0.00     0.006 C 
ENDBRANCH   8   9
BRANCH   8  11
ATOM     11  C   LIG d   1      -9.200  73.757 116.426  0.00  0.00     0.028 C 
ATOM     12  C   LIG d   1      -9.364  72.278 116.811  0.00  0.00     0.006 C 
ENDBRANCH   8  11
ENDBRANCH   7   8
ENDBRANCH   1   7
BRANCH   6  13
ATOM     13  N   LIG d   1      -5.200  77.106 117.365  0.00  0.00    -0.311 N 
ATOM     14  C   LIG d   1      -4.166  77.470 116.608  0.00  0.00     0.210 C 
ATOM     15  C   LIG d   1      -2.869  76.696 116.869  0.00  0.00     0.109 C 
ATOM     16  O   LIG d   1      -4.191  78.381 115.767  0.00  0.00    -0.276 OA
ATOM     17  H   LIG d   1      -5.082  76.380 118.043  0.00  0.00     0.149 HD
ENDBRANCH   6  13
BRANCH   5  18
ATOM     18  N   LIG d   1      -5.820  80.060 117.838  0.00  0.00     0.381 N 
ATOM     19  H   LIG d   1      -5.539  80.539 118.670  0.00  0.00    -0.090 HD
ATOM     20  H   LIG d   1      -6.317  80.708 117.253  0.00  0.00    -0.090 HD
ATOM     21  H   LIG d   1      -5.017  79.716 117.357  0.00  0.00    -0.090 HD
ENDBRANCH   5  18
BRANCH   3  22
ATOM     22  C   LIG d   1     -10.340  78.805 118.800  0.00  0.00     0.382 C 
ATOM     23  O   LIG d   1     -11.192  77.920 119.059  0.00  0.00    -0.241 OA
ATOM     24  O   LIG d   1     -10.622  80.003 118.994  0.00  0.00    -0.241 OA
ENDBRANCH   3  22
TORSDOF 7
ENDMDL
MODEL 2
REMARK VINA RESULT:      -5.7      3.753      6.502
REMARK  7 active torsions:
REMARK  status: ('A' for Active; 'I' for Inactive)
REMARK    1  A    between atoms: C_2  and  C_3 
REMARK    2  A    between atoms: C_3  and  O_6 
REMARK    3  A    between atoms: C_3  and  C_4 
REMARK    4  A    between atoms: C_7  and  O_6 
REMARK    5  A    between atoms: C_9  and  C_10 
REMARK    6  A    between atoms: N_15  and  C_14 
REMARK    7  A    between atoms: N_20  and  C_19 
REMARK       I    between atoms: C_22  and  N_20 
ROOT
ATOM      1  C   LIG d   1      -2.984  77.148 115.973  0.00  0.00     0.161 C 
ATOM      2  C   LIG d   1      -3.271  78.106 114.986  0.00  0.00     0.016 C 
ATOM      3  C   LIG d   1      -2.472  78.302 113.836  0.00  0.00     0.038 C 
ATOM      4  C   LIG d   1      -1.408  77.444 113.518  0.00  0.00     0.028 C 
ATOM      5  C   LIG d   1      -0.777  76.783 114.738  0.00  0.00    -0.047 C 
ATOM      6  C   LIG d   1      -1.891  76.129 115.587  0.00  0.00     0.091 C 
ENDROOT
BRANCH   1   7
ATOM      7  O   LIG d   1      -4.193  76.464 116.357  0.00  0.00    -0.368 OA
BRANCH   7   8
ATOM      8  C   LIG d   1      -5.432  77.040 115.872  0.00  0.00     0.119 C 
BRANCH   8   9
ATOM      9  C   LIG d   1      -6.201  77.578 117.094  0.00  0.00     0.028 C 
ATOM     10  C   LIG d   1      -7.540  76.852 117.310  0.00  0.00     0.006 C 
ENDBRANCH   8   9
BRANCH   8  11
ATOM     11  C   LIG d   1      -6.340  75.970 115.259  0.00  0.00     0.028 C 
ATOM     12  C   LIG d   1      -5.563  74.921 114.448  0.00  0.00     0.006 C 
ENDBRANCH   8  11
ENDBRANCH   7   8
ENDBRANCH   1   7
BRANCH   6  13
ATOM     13  N   LIG d   1      -1.369  75.532 116.844  0.00  0.00    -0.311 N 
ATOM     14  C   LIG d   1      -0.979  74.263 116.946  0.00  0.00     0.210 C 
ATOM     15  C   LIG d   1      -0.493  73.845 118.337  0.00  0.00     0.109 C 
ATOM     16  O   LIG d   1      -0.960  73.451 116.008  0.00  0.00    -0.276 OA
ATOM     17  H   LIG d   1      -1.321  76.128 117.647  0.00  0.00     0.149 HD
ENDBRANCH   6  13
BRANCH   5  18
ATOM     18  N   LIG d   1       0.223  75.814 114.252  0.00  0.00     0.381 N 
ATOM     19  H   LIG d   1       0.505  76.054 113.323  0.00  0.00    -0.090 HD
ATOM     20  H   LIG d   1      -0.194  74.900 114.229  0.00  0.00    -0.090 HD
ATOM     21  H   LIG d   1       1.016  75.810 114.856  0.00  0.00    -0.090 HD
ENDBRANCH   5  18
BRANCH   3  22
ATOM     22  C   LIG d   1      -2.710  79.390 113.011  0.00  0.00     0.382 C 
ATOM     23  O   LIG d   1      -3.257  80.420 113.474  0.00  0.00    -0.241 OA
ATOM     24  O   LIG d   1      -2.426  79.339 111.800  0.00  0.00    -0.241 OA
ENDBRANCH   3  22
TORSDOF 7
ENDMDL
MODEL 3
REMARK VINA RESULT:      -5.3      2.169      2.720
REMARK  7 active torsions:
REMARK  status: ('A' for Active; 'I' for Inactive)
REMARK    1  A    between atoms: C_2  and  C_3 
REMARK    2  A    between atoms: C_3  and  O_6 
REMARK    3  A    between atoms: C_3  and  C_4 
REMARK    4  A    between atoms: C_7  and  O_6 
REMARK    5  A    between atoms: C_9  and  C_10 
REMARK    6  A    between atoms: N_15  and  C_14 
REMARK    7  A    between atoms: N_20  and  C_19 
REMARK       I    between atoms: C_22  and  N_20 
ROOT
ATOM      1  C   LIG d   1      -5.727  77.184 117.029  0.00  0.00     0.161 C 
ATOM      2  C   LIG d   1      -6.540  78.243 117.465  0.00  0.00     0.016 C 
ATOM      3  C   LIG d   1      -6.065  79.562 117.655  0.00  0.00     0.038 C 
ATOM      4  C   LIG d   1      -4.771  79.946 117.275  0.00  0.00     0.028 C 
ATOM      5  C   LIG d   1      -3.766  78.799 117.304  0.00  0.00    -0.047 C 
ATOM      6  C   LIG d   1      -4.339  77.608 116.503  0.00  0.00     0.091 C 
ENDROOT
BRANCH   1   7
ATOM      7  O   LIG d   1      -6.425  76.410 116.034  0.00  0.00    -0.368 OA
BRANCH   7   8
ATOM      8  C   LIG d   1      -7.247  75.325 116.531  0.00  0.00     0.119 C 
BRANCH   8   9
ATOM      9  C   LIG d   1      -6.738  74.024 115.881  0.00  0.00     0.028 C 
ATOM     10  C   LIG d   1      -5.738  74.288 114.743  0.00  0.00     0.006 C 
ENDBRANCH   8   9
BRANCH   8  11
ATOM     11  C   LIG d   1      -8.699  75.469 116.068  0.00  0.00     0.028 C 
ATOM     12  C   LIG d   1      -9.630  74.415 116.689  0.00  0.00     0.006 C 
ENDBRANCH   8  11
ENDBRANCH   7   8
ENDBRANCH   1   7
BRANCH   6  13
ATOM     13  N   LIG d   1      -3.456  76.414 116.551  0.00  0.00    -0.311 N 
ATOM     14  C   LIG d   1      -2.582  76.109 115.593  0.00  0.00     0.210 C 
ATOM     15  C   LIG d   1      -1.784  74.824 115.831  0.00  0.00     0.109 C 
ATOM     16  O   LIG d   1      -2.369  76.799 114.585  0.00  0.00    -0.276 OA
ATOM     17  H   LIG d   1      -3.541  75.816 117.349  0.00  0.00     0.149 HD
ENDBRANCH   6  13
BRANCH   5  18
ATOM     18  N   LIG d   1      -2.494  79.307 116.754  0.00  0.00     0.381 N 
ATOM     19  H   LIG d   1      -2.660  79.756 115.876  0.00  0.00    -0.090 HD
ATOM     20  H   LIG d   1      -1.874  78.531 116.600  0.00  0.00    -0.090 HD
ATOM     21  H   LIG d   1      -2.080  79.951 117.392  0.00  0.00    -0.090 HD
ENDBRANCH   5  18
BRANCH   3  22
ATOM     22  C   LIG d   1      -6.877  80.503 118.270  0.00  0.00     0.382 C 
ATOM     23  O   LIG d   1      -8.120  80.331 118.305  0.00  0.00    -0.241 OA
ATOM     24  O   LIG d   1      -6.388  81.543 118.749  0.00  0.00    -0.241 OA
ENDBRANCH   3  22
TORSDOF 7
ENDMDL
MODEL 4
REMARK VINA RESULT:      -5.0     11.540     14.323
REMARK  7 active torsions:
REMARK  status: ('A' for Active; 'I' for Inactive)
REMARK    1  A    between atoms: C_2  and  C_3 
REMARK    2  A    between atoms: C_3  and  O_6 
REMARK    3  A    between atoms: C_3  and  C_4 
REMARK    4  A    between atoms: C_7  and  O_6 
REMARK    5  A    between atoms: C_9  and  C_10 
REMARK    6  A    between atoms: N_15  and  C_14 
REMARK    7  A    between atoms: N_20  and  C_19 
REMARK       I    between atoms: C_22  and  N_20 
ROOT
ATOM      1  C   LIG d   1       3.130  85.452 113.635  0.00  0.00     0.161 C 
ATOM      2  C   LIG d   1       3.587  86.780 113.598  0.00  0.00     0.016 C 
ATOM      3  C   LIG d   1       4.056  87.473 114.737  0.00  0.00     0.038 C 
ATOM      4  C   LIG d   1       4.243  86.832 115.971  0.00  0.00     0.028 C 
ATOM      5  C   LIG d   1       3.321  85.634 116.176  0.00  0.00    -0.047 C 
ATOM      6  C   LIG d   1       3.430  84.701 114.949  0.00  0.00     0.091 C 
ENDROOT
BRANCH   1   7
ATOM      7  O   LIG d   1       3.658  84.723 112.509  0.00  0.00    -0.368 OA
BRANCH   7   8
ATOM      8  C   LIG d   1       2.698  84.331 111.497  0.00  0.00     0.119 C 
BRANCH   8   9
ATOM      9  C   LIG d   1       1.295  84.692 112.024  0.00  0.00     0.028 C 
ATOM     10  C   LIG d   1       0.359  83.474 112.083  0.00  0.00     0.006 C 
ENDBRANCH   8   9
BRANCH   8  11
ATOM     11  C   LIG d   1       2.679  82.812 111.304  0.00  0.00     0.028 C 
ATOM     12  C   LIG d   1       4.071  82.176 111.449  0.00  0.00     0.006 C 
ENDBRANCH   8  11
ENDBRANCH   7   8
ENDBRANCH   1   7
BRANCH   6  13
ATOM     13  N   LIG d   1       2.498  83.546 115.030  0.00  0.00    -0.311 N 
ATOM     14  C   LIG d   1       2.902  82.277 115.040  0.00  0.00     0.210 C 
ATOM     15  C   LIG d   1       1.776  81.241 115.109  0.00  0.00     0.109 C 
ATOM     16  O   LIG d   1       4.087  81.912 115.032  0.00  0.00    -0.276 OA
ATOM     17  H   LIG d   1       1.519  83.752 115.071  0.00  0.00     0.149 HD
ENDBRANCH   6  13
BRANCH   5  18
ATOM     18  N   LIG d   1       3.716  84.979 117.437  0.00  0.00     0.381 N 
ATOM     19  H   LIG d   1       3.566  83.992 117.368  0.00  0.00    -0.090 HD
ATOM     20  H   LIG d   1       3.143  85.334 118.182  0.00  0.00    -0.090 HD
ATOM     21  H   LIG d   1       4.676  85.163 117.631  0.00  0.00    -0.090 HD
ENDBRANCH   5  18
BRANCH   3  22
ATOM     22  C   LIG d   1       4.306  88.835 114.659  0.00  0.00     0.382 C 
ATOM     23  O   LIG d   1       4.273  89.539 115.696  0.00  0.00    -0.241 OA
ATOM     24  O   LIG d   1       4.521  89.375 113.557  0.00  0.00    -0.241 OA
ENDBRANCH   3  22
TORSDOF 7
ENDMDL
MODEL 5
REMARK VINA RESULT:      -5.0     11.268     14.524
REMARK  7 active torsions:
REMARK  status: ('A' for Active; 'I' for Inactive)
REMARK    1  A    between atoms: C_2  and  C_3 
REMARK    2  A    between atoms: C_3  and  O_6 
REMARK    3  A    between atoms: C_3  and  C_4 
REMARK    4  A    between atoms: C_7  and  O_6 
REMARK    5  A    between atoms: C_9  and  C_10 
REMARK    6  A    between atoms: N_15  and  C_14 
REMARK    7  A    between atoms: N_20  and  C_19 
REMARK       I    between atoms: C_22  and  N_20 
ROOT
ATOM      1  C   LIG d   1       2.073  86.186 114.859  0.00  0.00     0.161 C 
ATOM      2  C   LIG d   1       2.942  87.126 114.280  0.00  0.00     0.016 C 
ATOM      3  C   LIG d   1       4.091  87.629 114.932  0.00  0.00     0.038 C 
ATOM      4  C   LIG d   1       4.535  87.110 116.157  0.00  0.00     0.028 C 
ATOM      5  C   LIG d   1       3.414  86.522 117.008  0.00  0.00    -0.047 C 
ATOM      6  C   LIG d   1       2.602  85.526 116.150  0.00  0.00     0.091 C 
ENDROOT
BRANCH   1   7
ATOM      7  O   LIG d   1       1.723  85.180 113.888  0.00  0.00    -0.368 OA
BRANCH   7   8
ATOM      8  C   LIG d   1       1.326  85.665 112.582  0.00  0.00     0.119 C 
BRANCH   8   9
ATOM      9  C   LIG d   1      -0.189  85.423 112.440  0.00  0.00     0.028 C 
ATOM     10  C   LIG d   1      -0.825  86.307 111.353  0.00  0.00     0.006 C 
ENDBRANCH   8   9
BRANCH   8  11
ATOM     11  C   LIG d   1       1.975  84.845 111.463  0.00  0.00     0.028 C 
ATOM     12  C   LIG d   1       3.420  85.277 111.169  0.00  0.00     0.006 C 
ENDBRANCH   8  11
ENDBRANCH   7   8
ENDBRANCH   1   7
BRANCH   6  13
ATOM     13  N   LIG d   1       1.435  84.968 116.881  0.00  0.00    -0.311 N 
ATOM     14  C   LIG d   1       1.366  83.705 117.298  0.00  0.00     0.210 C 
ATOM     15  C   LIG d   1       0.065  83.331 118.015  0.00  0.00     0.109 C 
ATOM     16  O   LIG d   1       2.273  82.868 117.172  0.00  0.00    -0.276 OA
ATOM     17  H   LIG d   1       0.667  85.587 117.054  0.00  0.00     0.149 HD
ENDBRANCH   6  13
BRANCH   5  18
ATOM     18  N   LIG d   1       4.035  85.895 118.190  0.00  0.00     0.381 N 
ATOM     19  H   LIG d   1       4.978  85.638 117.981  0.00  0.00    -0.090 HD
ATOM     20  H   LIG d   1       3.524  85.061 118.421  0.00  0.00    -0.090 HD
ATOM     21  H   LIG d   1       4.018  86.528 118.960  0.00  0.00    -0.090 HD
ENDBRANCH   5  18
BRANCH   3  22
ATOM     22  C   LIG d   1       4.786  88.692 114.375  0.00  0.00     0.382 C 
ATOM     23  O   LIG d   1       5.937  88.973 114.789  0.00  0.00    -0.241 OA
ATOM     24  O   LIG d   1       4.261  89.400 113.496  0.00  0.00    -0.241 OA
ENDBRANCH   3  22
TORSDOF 7
ENDMDL
MODEL 6
REMARK VINA RESULT:      -4.8     11.319     14.075
REMARK  7 active torsions:
REMARK  status: ('A' for Active; 'I' for Inactive)
REMARK    1  A    between atoms: C_2  and  C_3 
REMARK    2  A    between atoms: C_3  and  O_6 
REMARK    3  A    between atoms: C_3  and  C_4 
REMARK    4  A    between atoms: C_7  and  O_6 
REMARK    5  A    between atoms: C_9  and  C_10 
REMARK    6  A    between atoms: N_15  and  C_14 
REMARK    7  A    between atoms: N_20  and  C_19 
REMARK       I    between atoms: C_22  and  N_20 
ROOT
ATOM      1  C   LIG d   1       2.430  85.465 114.097  0.00  0.00     0.161 C 
ATOM      2  C   LIG d   1       2.884  86.785 113.936  0.00  0.00     0.016 C 
ATOM      3  C   LIG d   1       3.823  87.395 114.799  0.00  0.00     0.038 C 
ATOM      4  C   LIG d   1       4.490  86.672 115.799  0.00  0.00     0.028 C 
ATOM      5  C   LIG d   1       3.694  85.480 116.318  0.00  0.00    -0.047 C 
ATOM      6  C   LIG d   1       3.229  84.626 115.116  0.00  0.00     0.091 C 
ENDROOT
BRANCH   1   7
ATOM      7  O   LIG d   1       2.395  84.801 112.819  0.00  0.00    -0.368 OA
BRANCH   7   8
ATOM      8  C   LIG d   1       1.082  84.434 112.327  0.00  0.00     0.119 C 
BRANCH   8   9
ATOM      9  C   LIG d   1       1.146  82.955 111.898  0.00  0.00     0.028 C 
ATOM     10  C   LIG d   1       2.589  82.466 111.687  0.00  0.00     0.006 C 
ENDBRANCH   8   9
BRANCH   8  11
ATOM     11  C   LIG d   1       0.727  85.210 111.055  0.00  0.00     0.028 C 
ATOM     12  C   LIG d   1      -0.270  86.351 111.313  0.00  0.00     0.006 C 
ENDBRANCH   8  11
ENDBRANCH   7   8
ENDBRANCH   1   7
BRANCH   6  13
ATOM     13  N   LIG d   1       2.371  83.485 115.530  0.00  0.00    -0.311 N 
ATOM     14  C   LIG d   1       2.733  82.210 115.396  0.00  0.00     0.210 C 
ATOM     15  C   LIG d   1       1.692  81.190 115.867  0.00  0.00     0.109 C 
ATOM     16  O   LIG d   1       3.830  81.828 114.962  0.00  0.00    -0.276 OA
ATOM     17  H   LIG d   1       1.476  83.705 115.921  0.00  0.00     0.149 HD
ENDBRANCH   6  13
BRANCH   5  18
ATOM     18  N   LIG d   1       4.560  84.738 117.254  0.00  0.00     0.381 N 
ATOM     19  H   LIG d   1       3.997  84.230 117.906  0.00  0.00    -0.090 HD
ATOM     20  H   LIG d   1       5.122  85.395 117.766  0.00  0.00    -0.090 HD
ATOM     21  H   LIG d   1       5.146  84.110 116.750  0.00  0.00    -0.090 HD
ENDBRANCH   5  18
BRANCH   3  22
ATOM     22  C   LIG d   1       4.074  88.754 114.690  0.00  0.00     0.382 C 
ATOM     23  O   LIG d   1       3.886  89.508 115.675  0.00  0.00    -0.241 OA
ATOM     24  O   LIG d   1       4.445  89.244 113.606  0.00  0.00    -0.241 OA
ENDBRANCH   3  22
TORSDOF 7
ENDMDL
MODEL 7
REMARK VINA RESULT:      -4.8     17.006     20.542
REMARK  7 active torsions:
REMARK  status: ('A' for Active; 'I' for Inactive)
REMARK    1  A    between atoms: C_2  and  C_3 
REMARK    2  A    between atoms: C_3  and  O_6 
REMARK    3  A    between atoms: C_3  and  C_4 
REMARK    4  A    between atoms: C_7  and  O_6 
REMARK    5  A    between atoms: C_9  and  C_10 
REMARK    6  A    between atoms: N_15  and  C_14 
REMARK    7  A    between atoms: N_20  and  C_19 
REMARK       I    between atoms: C_22  and  N_20 
ROOT
ATOM      1  C   LIG d   1      12.707  77.537 114.726  0.00  0.00     0.161 C 
ATOM      2  C   LIG d   1      11.424  77.149 114.303  0.00  0.00     0.016 C 
ATOM      3  C   LIG d   1      10.249  77.865 114.626  0.00  0.00     0.038 C 
ATOM      4  C   LIG d   1      10.292  79.108 115.273  0.00  0.00     0.028 C 
ATOM      5  C   LIG d   1      11.520  79.287 116.160  0.00  0.00    -0.047 C 
ATOM      6  C   LIG d   1      12.785  78.951 115.339  0.00  0.00     0.091 C 
ENDROOT
BRANCH   1   7
ATOM      7  O   LIG d   1      13.640  77.410 113.636  0.00  0.00    -0.368 OA
BRANCH   7   8
ATOM      8  C   LIG d   1      14.151  78.650 113.087  0.00  0.00     0.119 C 
BRANCH   8   9
ATOM      9  C   LIG d   1      13.502  78.846 111.703  0.00  0.00     0.028 C 
ATOM     10  C   LIG d   1      12.425  79.944 111.710  0.00  0.00     0.006 C 
ENDBRANCH   8   9
BRANCH   8  11
ATOM     11  C   LIG d   1      15.657  78.563 112.820  0.00  0.00     0.028 C 
ATOM     12  C   LIG d   1      16.168  77.115 112.755  0.00  0.00     0.006 C 
ENDBRANCH   8  11
ENDBRANCH   7   8
ENDBRANCH   1   7
BRANCH   6  13
ATOM     13  N   LIG d   1      14.026  79.019 116.155  0.00  0.00    -0.311 N 
ATOM     14  C   LIG d   1      14.780  80.112 116.252  0.00  0.00     0.210 C 
ATOM     15  C   LIG d   1      16.027  79.961 117.130  0.00  0.00     0.109 C 
ATOM     16  O   LIG d   1      14.518  81.202 115.721  0.00  0.00    -0.276 OA
ATOM     17  H   LIG d   1      14.295  78.188 116.645  0.00  0.00     0.149 HD
ENDBRANCH   6  13
BRANCH   5  18
ATOM     18  N   LIG d   1      11.508  80.674 116.662  0.00  0.00     0.381 N 
ATOM     19  H   LIG d   1      12.173  80.771 117.403  0.00  0.00    -0.090 HD
ATOM     20  H   LIG d   1      10.596  80.880 117.029  0.00  0.00    -0.090 HD
ATOM     21  H   LIG d   1      11.728  81.306 115.924  0.00  0.00    -0.090 HD
ENDBRANCH   5  18
BRANCH   3  22
ATOM     22  C   LIG d   1       9.009  77.316 114.336  0.00  0.00     0.382 C 
ATOM     23  O   LIG d   1       7.962  77.903 114.702  0.00  0.00    -0.241 OA
ATOM     24  O   LIG d   1       8.924  76.219 113.753  0.00  0.00    -0.241 OA
ENDBRANCH   3  22
TORSDOF 7
ENDMDL
MODEL 8
REMARK VINA RESULT:      -4.7     10.149     12.673
REMARK  7 active torsions:
REMARK  status: ('A' for Active; 'I' for Inactive)
REMARK    1  A    between atoms: C_2  and  C_3 
REMARK    2  A    between atoms: C_3  and  O_6 
REMARK    3  A    between atoms: C_3  and  C_4 
REMARK    4  A    between atoms: C_7  and  O_6 
REMARK    5  A    between atoms: C_9  and  C_10 
REMARK    6  A    between atoms: N_15  and  C_14 
REMARK    7  A    between atoms: N_20  and  C_19 
REMARK       I    between atoms: C_22  and  N_20 
ROOT
ATOM      1  C   LIG d   1       0.968  83.877 113.703  0.00  0.00     0.161 C 
ATOM      2  C   LIG d   1       1.283  85.098 113.082  0.00  0.00     0.016 C 
ATOM      3  C   LIG d   1       2.376  85.908 113.468  0.00  0.00     0.038 C 
ATOM      4  C   LIG d   1       3.324  85.476 114.408  0.00  0.00     0.028 C 
ATOM      5  C   LIG d   1       2.765  84.479 115.417  0.00  0.00    -0.047 C 
ATOM      6  C   LIG d   1       2.056  83.337 114.655  0.00  0.00     0.091 C 
ENDROOT
BRANCH   1   7
ATOM      7  O   LIG d   1       0.642  82.891 112.703  0.00  0.00    -0.368 OA
BRANCH   7   8
ATOM      8  C   LIG d   1       1.750  82.109 112.194  0.00  0.00     0.119 C 
BRANCH   8   9
ATOM      9  C   LIG d   1       2.402  82.916 111.055  0.00  0.00     0.028 C 
ATOM     10  C   LIG d   1       3.919  83.081 111.247  0.00  0.00     0.006 C 
ENDBRANCH   8   9
BRANCH   8  11
ATOM     11  C   LIG d   1       1.263  80.810 111.544  0.00  0.00     0.028 C 
ATOM     12  C   LIG d   1      -0.158  80.421 111.983  0.00  0.00     0.006 C 
ENDBRANCH   8  11
ENDBRANCH   7   8
ENDBRANCH   1   7
BRANCH   6  13
ATOM     13  N   LIG d   1       1.408  82.361 115.570  0.00  0.00    -0.311 N 
ATOM     14  C   LIG d   1       1.963  81.201 115.917  0.00  0.00     0.210 C 
ATOM     15  C   LIG d   1       1.117  80.335 116.855  0.00  0.00     0.109 C 
ATOM     16  O   LIG d   1       3.090  80.823 115.564  0.00  0.00    -0.276 OA
ATOM     17  H   LIG d   1       0.504  82.602 115.928  0.00  0.00     0.149 HD
ENDBRANCH   6  13
BRANCH   5  18
ATOM     18  N   LIG d   1       3.889  84.008 116.248  0.00  0.00     0.381 N 
ATOM     19  H   LIG d   1       3.718  84.232 117.208  0.00  0.00    -0.090 HD
ATOM     20  H   LIG d   1       4.727  84.481 115.959  0.00  0.00    -0.090 HD
ATOM     21  H   LIG d   1       4.002  83.024 116.144  0.00  0.00    -0.090 HD
ENDBRANCH   5  18
BRANCH   3  22
ATOM     22  C   LIG d   1       2.506  87.183 112.940  0.00  0.00     0.382 C 
ATOM     23  O   LIG d   1       3.438  87.930 113.326  0.00  0.00    -0.241 OA
ATOM     24  O   LIG d   1       1.677  87.614 112.116  0.00  0.00    -0.241 OA
ENDBRANCH   3  22
TORSDOF 7
ENDMDL
MODEL 9
REMARK VINA RESULT:      -4.7     12.417     14.543
REMARK  7 active torsions:
REMARK  status: ('A' for Active; 'I' for Inactive)
REMARK    1  A    between atoms: C_2  and  C_3 
REMARK    2  A    between atoms: C_3  and  O_6 
REMARK    3  A    between atoms: C_3  and  C_4 
REMARK    4  A    between atoms: C_7  and  O_6 
REMARK    5  A    between atoms: C_9  and  C_10 
REMARK    6  A    between atoms: N_15  and  C_14 
REMARK    7  A    between atoms: N_20  and  C_19 
REMARK       I    between atoms: C_22  and  N_20 
ROOT
ATOM      1  C   LIG d   1       2.515  87.041 115.704  0.00  0.00     0.161 C 
ATOM      2  C   LIG d   1       1.332  86.712 116.386  0.00  0.00     0.016 C 
ATOM      3  C   LIG d   1       0.777  87.510 117.412  0.00  0.00     0.038 C 
ATOM      4  C   LIG d   1       1.291  88.778 117.725  0.00  0.00     0.028 C 
ATOM      5  C   LIG d   1       2.776  88.924 117.412  0.00  0.00    -0.047 C 
ATOM      6  C   LIG d   1       3.028  88.475 115.954  0.00  0.00     0.091 C 
ENDROOT
BRANCH   1   7
ATOM      7  O   LIG d   1       2.346  86.809 114.291  0.00  0.00    -0.368 OA
BRANCH   7   8
ATOM      8  C   LIG d   1       3.012  85.641 113.753  0.00  0.00     0.119 C 
BRANCH   8   9
ATOM      9  C   LIG d   1       3.716  86.068 112.450  0.00  0.00     0.028 C 
ATOM     10  C   LIG d   1       3.042  85.480 111.199  0.00  0.00     0.006 C 
ENDBRANCH   8   9
BRANCH   8  11
ATOM     11  C   LIG d   1       2.003  84.567 113.335  0.00  0.00     0.028 C 
ATOM     12  C   LIG d   1       1.969  83.373 114.302  0.00  0.00     0.006 C 
ENDBRANCH   8  11
ENDBRANCH   7   8
ENDBRANCH   1   7
BRANCH   6  13
ATOM     13  N   LIG d   1       4.469  88.506 115.593  0.00  0.00    -0.311 N 
ATOM     14  C   LIG d   1       4.922  88.957 114.424  0.00  0.00     0.210 C 
ATOM     15  C   LIG d   1       6.442  88.883 114.247  0.00  0.00     0.109 C 
ATOM     16  O   LIG d   1       4.213  89.442 113.530  0.00  0.00    -0.276 OA
ATOM     17  H   LIG d   1       5.118  88.161 116.272  0.00  0.00     0.149 HD
ENDBRANCH   6  13
BRANCH   5  18
ATOM     18  N   LIG d   1       3.147  90.331 117.656  0.00  0.00     0.381 N 
ATOM     19  H   LIG d   1       4.142  90.430 117.621  0.00  0.00    -0.090 HD
ATOM     20  H   LIG d   1       2.836  90.594 118.574  0.00  0.00    -0.090 HD
ATOM     21  H   LIG d   1       2.723  90.918 116.972  0.00  0.00    -0.090 HD
ENDBRANCH   5  18
BRANCH   3  22
ATOM     22  C   LIG d   1      -0.280  87.024 118.166  0.00  0.00     0.382 C 
ATOM     23  O   LIG d   1      -0.293  85.822 118.526  0.00  0.00    -0.241 OA
ATOM     24  O   LIG d   1      -1.242  87.761 118.453  0.00  0.00    -0.241 OA
ENDBRANCH   3  22
TORSDOF 7
ENDMDL
