MODEL 1
REMARK VINA RESULT:      -5.9      0.000      0.000
REMARK  7 active torsions:
REMARK  status: ('A' for Active; 'I' for Inactive)
REMARK    1  A    between atoms: C_2  and  C_3 
REMARK    2  A    between atoms: C_3  and  O_6 
REMARK    3  A    between atoms: C_3  and  C_4 
REMARK    4  A    between atoms: C_7  and  O_6 
REMARK    5  A    between atoms: C_9  and  C_10 
REMARK    6  A    between atoms: N_15  and  C_14 
REMARK    7  A    between atoms: N_20  and  C_19 
REMARK       I    between atoms: C_22  and  N_20 
ROOT
ATOM      1  C   LIG d   1     -15.283  67.102 115.788  0.00  0.00     0.161 C 
ATOM      2  C   LIG d   1     -14.954  68.077 114.831  0.00  0.00     0.016 C 
ATOM      3  C   LIG d   1     -15.035  67.857 113.437  0.00  0.00     0.038 C 
ATOM      4  C   LIG d   1     -15.599  66.689 112.902  0.00  0.00     0.028 C 
ATOM      5  C   LIG d   1     -15.477  65.480 113.823  0.00  0.00    -0.047 C 
ATOM      6  C   LIG d   1     -16.006  65.861 115.224  0.00  0.00     0.091 C 
ENDROOT
BRANCH   1   7
ATOM      7  O   LIG d   1     -16.061  67.698 116.845  0.00  0.00    -0.368 OA
BRANCH   7   8
ATOM      8  C   LIG d   1     -15.336  68.052 118.048  0.00  0.00     0.119 C 
BRANCH   8   9
ATOM      9  C   LIG d   1     -14.086  67.154 118.117  0.00  0.00     0.028 C 
ATOM     10  C   LIG d   1     -14.153  66.143 119.274  0.00  0.00     0.006 C 
ENDBRANCH   8   9
BRANCH   8  11
ATOM     11  C   LIG d   1     -16.146  67.718 119.305  0.00  0.00     0.028 C 
ATOM     12  C   LIG d   1     -17.663  67.774 119.068  0.00  0.00     0.006 C 
ENDBRANCH   8  11
ENDBRANCH   7   8
ENDBRANCH   1   7
BRANCH   6  13
ATOM     13  N   LIG d   1     -15.845  64.760 116.210  0.00  0.00    -0.311 N 
ATOM     14  C   LIG d   1     -16.801  63.873 116.481  0.00  0.00     0.210 C 
ATOM     15  C   LIG d   1     -16.434  62.832 117.543  0.00  0.00     0.109 C 
ATOM     16  O   LIG d   1     -17.905  63.829 115.919  0.00  0.00    -0.276 OA
ATOM     17  H   LIG d   1     -14.968  64.702 116.689  0.00  0.00     0.149 HD
ENDBRANCH   6  13
BRANCH   5  18
ATOM     18  N   LIG d   1     -16.225  64.370 113.203  0.00  0.00     0.381 N 
ATOM     19  H   LIG d   1     -16.668  64.688 112.364  0.00  0.00    -0.090 HD
ATOM     20  H   LIG d   1     -16.939  64.064 113.841  0.00  0.00    -0.090 HD
ATOM     21  H   LIG d   1     -15.608  63.616 112.997  0.00  0.00    -0.090 HD
ENDBRANCH   5  18
BRANCH   3  22
ATOM     22  C   LIG d   1     -14.511  68.796 112.562  0.00  0.00     0.382 C 
ATOM     23  O   LIG d   1     -13.747  69.694 112.990  0.00  0.00    -0.241 OA
ATOM     24  O   LIG d   1     -14.828  68.783 111.357  0.00  0.00    -0.241 OA
ENDBRANCH   3  22
TORSDOF 7
ENDMDL
MODEL 2
REMARK VINA RESULT:      -5.6     24.570     26.903
REMARK  7 active torsions:
REMARK  status: ('A' for Active; 'I' for Inactive)
REMARK    1  A    between atoms: C_2  and  C_3 
REMARK    2  A    between atoms: C_3  and  O_6 
REMARK    3  A    between atoms: C_3  and  C_4 
REMARK    4  A    between atoms: C_7  and  O_6 
REMARK    5  A    between atoms: C_9  and  C_10 
REMARK    6  A    between atoms: N_15  and  C_14 
REMARK    7  A    between atoms: N_20  and  C_19 
REMARK       I    between atoms: C_22  and  N_20 
ROOT
ATOM      1  C   LIG d   1       1.922  85.874 114.382  0.00  0.00     0.161 C 
ATOM      2  C   LIG d   1       2.413  87.161 114.103  0.00  0.00     0.016 C 
ATOM      3  C   LIG d   1       3.737  87.568 114.387  0.00  0.00     0.038 C 
ATOM      4  C   LIG d   1       4.710  86.663 114.835  0.00  0.00     0.028 C 
ATOM      5  C   LIG d   1       4.131  85.482 115.606  0.00  0.00    -0.047 C 
ATOM      6  C   LIG d   1       3.001  84.841 114.767  0.00  0.00     0.091 C 
ENDROOT
BRANCH   1   7
ATOM      7  O   LIG d   1       1.146  85.395 113.266  0.00  0.00    -0.368 OA
BRANCH   7   8
ATOM      8  C   LIG d   1       1.474  85.957 111.972  0.00  0.00     0.119 C 
BRANCH   8   9
ATOM      9  C   LIG d   1       0.171  86.029 111.154  0.00  0.00     0.028 C 
ATOM     10  C   LIG d   1      -1.058  86.320 112.032  0.00  0.00     0.006 C 
ENDBRANCH   8   9
BRANCH   8  11
ATOM     11  C   LIG d   1       2.400  85.029 111.180  0.00  0.00     0.028 C 
ATOM     12  C   LIG d   1       3.854  85.524 111.146  0.00  0.00     0.006 C 
ENDBRANCH   8  11
ENDBRANCH   7   8
ENDBRANCH   1   7
BRANCH   6  13
ATOM     13  N   LIG d   1       2.323  83.730 115.485  0.00  0.00    -0.311 N 
ATOM     14  C   LIG d   1       2.673  82.451 115.354  0.00  0.00     0.210 C 
ATOM     15  C   LIG d   1       1.831  81.464 116.167  0.00  0.00     0.109 C 
ATOM     16  O   LIG d   1       3.622  82.044 114.666  0.00  0.00    -0.276 OA
ATOM     17  H   LIG d   1       1.563  83.973 116.088  0.00  0.00     0.149 HD
ENDBRANCH   6  13
BRANCH   5  18
ATOM     18  N   LIG d   1       5.238  84.550 115.893  0.00  0.00     0.381 N 
ATOM     19  H   LIG d   1       5.781  84.405 115.065  0.00  0.00    -0.090 HD
ATOM     20  H   LIG d   1       4.853  83.666 116.177  0.00  0.00    -0.090 HD
ATOM     21  H   LIG d   1       5.814  84.918 116.617  0.00  0.00    -0.090 HD
ENDBRANCH   5  18
BRANCH   3  22
ATOM     22  C   LIG d   1       4.087  88.904 114.262  0.00  0.00     0.382 C 
ATOM     23  O   LIG d   1       4.110  89.643 115.275  0.00  0.00    -0.241 OA
ATOM     24  O   LIG d   1       4.337  89.389 113.142  0.00  0.00    -0.241 OA
ENDBRANCH   3  22
TORSDOF 7
ENDMDL
MODEL 3
REMARK VINA RESULT:      -5.5      2.281      4.406
REMARK  7 active torsions:
REMARK  status: ('A' for Active; 'I' for Inactive)
REMARK    1  A    between atoms: C_2  and  C_3 
REMARK    2  A    between atoms: C_3  and  O_6 
REMARK    3  A    between atoms: C_3  and  C_4 
REMARK    4  A    between atoms: C_7  and  O_6 
REMARK    5  A    between atoms: C_9  and  C_10 
REMARK    6  A    between atoms: N_15  and  C_14 
REMARK    7  A    between atoms: N_20  and  C_19 
REMARK       I    between atoms: C_22  and  N_20 
ROOT
ATOM      1  C   LIG d   1     -16.191  65.597 113.961  0.00  0.00     0.161 C 
ATOM      2  C   LIG d   1     -15.783  66.501 112.966  0.00  0.00     0.016 C 
ATOM      3  C   LIG d   1     -14.931  67.602 113.217  0.00  0.00     0.038 C 
ATOM      4  C   LIG d   1     -14.304  67.787 114.458  0.00  0.00     0.028 C 
ATOM      5  C   LIG d   1     -15.083  67.189 115.625  0.00  0.00    -0.047 C 
ATOM      6  C   LIG d   1     -15.428  65.718 115.297  0.00  0.00     0.091 C 
ENDROOT
BRANCH   1   7
ATOM      7  O   LIG d   1     -16.110  64.249 113.459  0.00  0.00    -0.368 OA
BRANCH   7   8
ATOM      8  C   LIG d   1     -17.371  63.557 113.283  0.00  0.00     0.119 C 
BRANCH   8   9
ATOM      9  C   LIG d   1     -18.496  64.556 113.613  0.00  0.00     0.028 C 
ATOM     10  C   LIG d   1     -19.541  64.656 112.489  0.00  0.00     0.006 C 
ENDBRANCH   8   9
BRANCH   8  11
ATOM     11  C   LIG d   1     -17.528  62.419 114.296  0.00  0.00     0.028 C 
ATOM     12  C   LIG d   1     -18.172  61.164 113.687  0.00  0.00     0.006 C 
ENDBRANCH   8  11
ENDBRANCH   7   8
ENDBRANCH   1   7
BRANCH   6  13
ATOM     13  N   LIG d   1     -16.263  65.084 116.350  0.00  0.00    -0.311 N 
ATOM     14  C   LIG d   1     -15.850  64.058 117.094  0.00  0.00     0.210 C 
ATOM     15  C   LIG d   1     -16.875  63.542 118.108  0.00  0.00     0.109 C 
ATOM     16  O   LIG d   1     -14.721  63.548 117.031  0.00  0.00    -0.276 OA
ATOM     17  H   LIG d   1     -17.182  65.455 116.490  0.00  0.00     0.149 HD
ENDBRANCH   6  13
BRANCH   5  18
ATOM     18  N   LIG d   1     -14.252  67.332 116.835  0.00  0.00     0.381 N 
ATOM     19  H   LIG d   1     -14.489  66.619 117.495  0.00  0.00    -0.090 HD
ATOM     20  H   LIG d   1     -14.440  68.225 117.255  0.00  0.00    -0.090 HD
ATOM     21  H   LIG d   1     -13.287  67.266 116.596  0.00  0.00    -0.090 HD
ENDBRANCH   5  18
BRANCH   3  22
ATOM     22  C   LIG d   1     -14.731  68.555 112.229  0.00  0.00     0.382 C 
ATOM     23  O   LIG d   1     -14.196  69.653 112.517  0.00  0.00    -0.241 OA
ATOM     24  O   LIG d   1     -15.119  68.348 111.064  0.00  0.00    -0.241 OA
ENDBRANCH   3  22
TORSDOF 7
ENDMDL
MODEL 4
REMARK VINA RESULT:      -5.4     13.392     15.613
REMARK  7 active torsions:
REMARK  status: ('A' for Active; 'I' for Inactive)
REMARK    1  A    between atoms: C_2  and  C_3 
REMARK    2  A    between atoms: C_3  and  O_6 
REMARK    3  A    between atoms: C_3  and  C_4 
REMARK    4  A    between atoms: C_7  and  O_6 
REMARK    5  A    between atoms: C_9  and  C_10 
REMARK    6  A    between atoms: N_15  and  C_14 
REMARK    7  A    between atoms: N_20  and  C_19 
REMARK       I    between atoms: C_22  and  N_20 
ROOT
ATOM      1  C   LIG d   1      -6.134  77.352 116.858  0.00  0.00     0.161 C 
ATOM      2  C   LIG d   1      -7.454  76.884 116.973  0.00  0.00     0.016 C 
ATOM      3  C   LIG d   1      -8.429  77.498 117.792  0.00  0.00     0.038 C 
ATOM      4  C   LIG d   1      -8.191  78.719 118.440  0.00  0.00     0.028 C 
ATOM      5  C   LIG d   1      -6.718  78.960 118.756  0.00  0.00    -0.047 C 
ATOM      6  C   LIG d   1      -5.887  78.747 117.470  0.00  0.00     0.091 C 
ENDROOT
BRANCH   1   7
ATOM      7  O   LIG d   1      -5.727  77.333 115.475  0.00  0.00    -0.368 OA
BRANCH   7   8
ATOM      8  C   LIG d   1      -4.770  76.310 115.107  0.00  0.00     0.119 C 
BRANCH   8   9
ATOM      9  C   LIG d   1      -5.521  75.251 114.276  0.00  0.00     0.028 C 
ATOM     10  C   LIG d   1      -6.065  74.103 115.143  0.00  0.00     0.006 C 
ENDBRANCH   8   9
BRANCH   8  11
ATOM     11  C   LIG d   1      -4.249  75.564 116.339  0.00  0.00     0.028 C 
ATOM     12  C   LIG d   1      -2.742  75.763 116.563  0.00  0.00     0.006 C 
ENDBRANCH   8  11
ENDBRANCH   7   8
ENDBRANCH   1   7
BRANCH   6  13
ATOM     13  N   LIG d   1      -4.427  78.880 117.711  0.00  0.00    -0.311 N 
ATOM     14  C   LIG d   1      -3.603  79.519 116.881  0.00  0.00     0.210 C 
ATOM     15  C   LIG d   1      -2.131  79.522 117.308  0.00  0.00     0.109 C 
ATOM     16  O   LIG d   1      -3.956  80.110 115.850  0.00  0.00    -0.276 OA
ATOM     17  H   LIG d   1      -4.061  78.457 118.541  0.00  0.00     0.149 HD
ENDBRANCH   6  13
BRANCH   5  18
ATOM     18  N   LIG d   1      -6.598  80.324 119.304  0.00  0.00     0.381 N 
ATOM     19  H   LIG d   1      -5.668  80.472 119.642  0.00  0.00    -0.090 HD
ATOM     20  H   LIG d   1      -7.234  80.423 120.075  0.00  0.00    -0.090 HD
ATOM     21  H   LIG d   1      -6.813  80.995 118.599  0.00  0.00    -0.090 HD
ENDBRANCH   5  18
BRANCH   3  22
ATOM     22  C   LIG d   1      -9.646  76.867 118.002  0.00  0.00     0.382 C 
ATOM     23  O   LIG d   1     -10.558  77.458 118.628  0.00  0.00    -0.241 OA
ATOM     24  O   LIG d   1      -9.828  75.699 117.611  0.00  0.00    -0.241 OA
ENDBRANCH   3  22
TORSDOF 7
ENDMDL
MODEL 5
REMARK VINA RESULT:      -5.2     13.482     15.690
REMARK  7 active torsions:
REMARK  status: ('A' for Active; 'I' for Inactive)
REMARK    1  A    between atoms: C_2  and  C_3 
REMARK    2  A    between atoms: C_3  and  O_6 
REMARK    3  A    between atoms: C_3  and  C_4 
REMARK    4  A    between atoms: C_7  and  O_6 
REMARK    5  A    between atoms: C_9  and  C_10 
REMARK    6  A    between atoms: N_15  and  C_14 
REMARK    7  A    between atoms: N_20  and  C_19 
REMARK       I    between atoms: C_22  and  N_20 
ROOT
ATOM      1  C   LIG d   1      -6.297  77.601 117.347  0.00  0.00     0.161 C 
ATOM      2  C   LIG d   1      -7.243  76.576 117.173  0.00  0.00     0.016 C 
ATOM      3  C   LIG d   1      -8.576  76.661 117.637  0.00  0.00     0.038 C 
ATOM      4  C   LIG d   1      -9.099  77.845 118.177  0.00  0.00     0.028 C 
ATOM      5  C   LIG d   1      -8.044  78.731 118.831  0.00  0.00    -0.047 C 
ATOM      6  C   LIG d   1      -6.880  78.943 117.836  0.00  0.00     0.091 C 
ENDROOT
BRANCH   1   7
ATOM      7  O   LIG d   1      -5.553  77.791 116.128  0.00  0.00    -0.368 OA
BRANCH   7   8
ATOM      8  C   LIG d   1      -4.419  76.913 115.929  0.00  0.00     0.119 C 
BRANCH   8   9
ATOM      9  C   LIG d   1      -3.145  77.723 116.240  0.00  0.00     0.028 C 
ATOM     10  C   LIG d   1      -3.284  79.205 115.854  0.00  0.00     0.006 C 
ENDBRANCH   8   9
BRANCH   8  11
ATOM     11  C   LIG d   1      -4.286  76.498 114.460  0.00  0.00     0.028 C 
ATOM     12  C   LIG d   1      -5.486  75.677 113.962  0.00  0.00     0.006 C 
ENDBRANCH   8  11
ENDBRANCH   7   8
ENDBRANCH   1   7
BRANCH   6  13
ATOM     13  N   LIG d   1      -5.766  79.729 118.426  0.00  0.00    -0.311 N 
ATOM     14  C   LIG d   1      -5.591  81.032 118.208  0.00  0.00     0.210 C 
ATOM     15  C   LIG d   1      -4.368  81.644 118.896  0.00  0.00     0.109 C 
ATOM     16  O   LIG d   1      -6.352  81.744 117.536  0.00  0.00    -0.276 OA
ATOM     17  H   LIG d   1      -5.119  79.236 119.010  0.00  0.00     0.149 HD
ENDBRANCH   6  13
BRANCH   5  18
ATOM     18  N   LIG d   1      -8.702  79.990 119.228  0.00  0.00     0.381 N 
ATOM     19  H   LIG d   1      -8.317  80.752 118.707  0.00  0.00    -0.090 HD
ATOM     20  H   LIG d   1      -8.527  80.154 120.204  0.00  0.00    -0.090 HD
ATOM     21  H   LIG d   1      -9.683  79.928 119.065  0.00  0.00    -0.090 HD
ENDBRANCH   5  18
BRANCH   3  22
ATOM     22  C   LIG d   1      -9.389  75.539 117.599  0.00  0.00     0.382 C 
ATOM     23  O   LIG d   1      -8.879  74.393 117.629  0.00  0.00    -0.241 OA
ATOM     24  O   LIG d   1     -10.624  75.657 117.490  0.00  0.00    -0.241 OA
ENDBRANCH   3  22
TORSDOF 7
ENDMDL
MODEL 6
REMARK VINA RESULT:      -5.2     14.954     16.774
REMARK  7 active torsions:
REMARK  status: ('A' for Active; 'I' for Inactive)
REMARK    1  A    between atoms: C_2  and  C_3 
REMARK    2  A    between atoms: C_3  and  O_6 
REMARK    3  A    between atoms: C_3  and  C_4 
REMARK    4  A    between atoms: C_7  and  O_6 
REMARK    5  A    between atoms: C_9  and  C_10 
REMARK    6  A    between atoms: N_15  and  C_14 
REMARK    7  A    between atoms: N_20  and  C_19 
REMARK       I    between atoms: C_22  and  N_20 
ROOT
ATOM      1  C   LIG d   1      -2.553  77.720 116.198  0.00  0.00     0.161 C 
ATOM      2  C   LIG d   1      -2.837  78.697 115.228  0.00  0.00     0.016 C 
ATOM      3  C   LIG d   1      -2.229  78.726 113.952  0.00  0.00     0.038 C 
ATOM      4  C   LIG d   1      -1.402  77.687 113.500  0.00  0.00     0.028 C 
ATOM      5  C   LIG d   1      -0.693  76.944 114.627  0.00  0.00    -0.047 C 
ATOM      6  C   LIG d   1      -1.738  76.515 115.682  0.00  0.00     0.091 C 
ENDROOT
BRANCH   1   7
ATOM      7  O   LIG d   1      -3.777  77.271 116.812  0.00  0.00    -0.368 OA
BRANCH   7   8
ATOM      8  C   LIG d   1      -4.954  77.278 115.967  0.00  0.00     0.119 C 
BRANCH   8   9
ATOM      9  C   LIG d   1      -6.127  77.814 116.811  0.00  0.00     0.028 C 
ATOM     10  C   LIG d   1      -7.242  76.770 116.994  0.00  0.00     0.006 C 
ENDBRANCH   8   9
BRANCH   8  11
ATOM     11  C   LIG d   1      -5.359  75.857 115.564  0.00  0.00     0.028 C 
ATOM     12  C   LIG d   1      -5.193  75.594 114.059  0.00  0.00     0.006 C 
ENDBRANCH   8  11
ENDBRANCH   7   8
ENDBRANCH   1   7
BRANCH   6  13
ATOM     13  N   LIG d   1      -1.117  75.856 116.860  0.00  0.00    -0.311 N 
ATOM     14  C   LIG d   1      -1.615  74.762 117.435  0.00  0.00     0.210 C 
ATOM     15  C   LIG d   1      -0.831  74.256 118.650  0.00  0.00     0.109 C 
ATOM     16  O   LIG d   1      -2.613  74.144 117.034  0.00  0.00    -0.276 OA
ATOM     17  H   LIG d   1      -0.286  76.273 117.232  0.00  0.00     0.149 HD
ENDBRANCH   6  13
BRANCH   5  18
ATOM     18  N   LIG d   1       0.024  75.802 114.027  0.00  0.00     0.381 N 
ATOM     19  H   LIG d   1      -0.335  74.945 114.397  0.00  0.00    -0.090 HD
ATOM     20  H   LIG d   1       0.997  75.867 114.267  0.00  0.00    -0.090 HD
ATOM     21  H   LIG d   1      -0.083  75.816 113.036  0.00  0.00    -0.090 HD
ENDBRANCH   5  18
BRANCH   3  22
ATOM     22  C   LIG d   1      -2.414  79.826 113.128  0.00  0.00     0.382 C 
ATOM     23  O   LIG d   1      -3.206  80.738 113.468  0.00  0.00    -0.241 OA
ATOM     24  O   LIG d   1      -1.833  79.896 112.028  0.00  0.00    -0.241 OA
ENDBRANCH   3  22
TORSDOF 7
ENDMDL
MODEL 7
REMARK VINA RESULT:      -5.2      2.253      3.284
REMARK  7 active torsions:
REMARK  status: ('A' for Active; 'I' for Inactive)
REMARK    1  A    between atoms: C_2  and  C_3 
REMARK    2  A    between atoms: C_3  and  O_6 
REMARK    3  A    between atoms: C_3  and  C_4 
REMARK    4  A    between atoms: C_7  and  O_6 
REMARK    5  A    between atoms: C_9  and  C_10 
REMARK    6  A    between atoms: N_15  and  C_14 
REMARK    7  A    between atoms: N_20  and  C_19 
REMARK       I    between atoms: C_22  and  N_20 
ROOT
ATOM      1  C   LIG d   1     -16.121  64.551 115.963  0.00  0.00     0.161 C 
ATOM      2  C   LIG d   1     -15.444  65.729 116.319  0.00  0.00     0.016 C 
ATOM      3  C   LIG d   1     -15.159  66.770 115.406  0.00  0.00     0.038 C 
ATOM      4  C   LIG d   1     -15.667  66.768 114.098  0.00  0.00     0.028 C 
ATOM      5  C   LIG d   1     -15.924  65.369 113.550  0.00  0.00    -0.047 C 
ATOM      6  C   LIG d   1     -16.780  64.580 114.568  0.00  0.00     0.091 C 
ENDROOT
BRANCH   1   7
ATOM      7  O   LIG d   1     -17.097  64.223 116.971  0.00  0.00    -0.368 OA
BRANCH   7   8
ATOM      8  C   LIG d   1     -17.656  65.341 117.704  0.00  0.00     0.119 C 
BRANCH   8   9
ATOM      9  C   LIG d   1     -17.839  64.891 119.166  0.00  0.00     0.028 C 
ATOM     10  C   LIG d   1     -18.763  63.668 119.293  0.00  0.00     0.006 C 
ENDBRANCH   8   9
BRANCH   8  11
ATOM     11  C   LIG d   1     -19.063  65.685 117.207  0.00  0.00     0.028 C 
ATOM     12  C   LIG d   1     -19.088  66.930 116.305  0.00  0.00     0.006 C 
ENDBRANCH   8  11
ENDBRANCH   7   8
ENDBRANCH   1   7
BRANCH   6  13
ATOM     13  N   LIG d   1     -17.007  63.173 114.148  0.00  0.00    -0.311 N 
ATOM     14  C   LIG d   1     -18.209  62.599 114.127  0.00  0.00     0.210 C 
ATOM     15  C   LIG d   1     -18.218  61.134 113.680  0.00  0.00     0.109 C 
ATOM     16  O   LIG d   1     -19.272  63.174 114.404  0.00  0.00    -0.276 OA
ATOM     17  H   LIG d   1     -16.203  62.643 113.876  0.00  0.00     0.149 HD
ENDBRANCH   6  13
BRANCH   5  18
ATOM     18  N   LIG d   1     -16.580  65.518 112.237  0.00  0.00     0.381 N 
ATOM     19  H   LIG d   1     -16.163  64.892 111.577  0.00  0.00    -0.090 HD
ATOM     20  H   LIG d   1     -16.442  66.458 111.910  0.00  0.00    -0.090 HD
ATOM     21  H   LIG d   1     -17.554  65.326 112.318  0.00  0.00    -0.090 HD
ENDBRANCH   5  18
BRANCH   3  22
ATOM     22  C   LIG d   1     -14.323  67.808 115.786  0.00  0.00     0.382 C 
ATOM     23  O   LIG d   1     -13.580  67.680 116.789  0.00  0.00    -0.241 OA
ATOM     24  O   LIG d   1     -14.334  68.888 115.166  0.00  0.00    -0.241 OA
ENDBRANCH   3  22
TORSDOF 7
ENDMDL
MODEL 8
REMARK VINA RESULT:      -4.9     26.875     29.002
REMARK  7 active torsions:
REMARK  status: ('A' for Active; 'I' for Inactive)
REMARK    1  A    between atoms: C_2  and  C_3 
REMARK    2  A    between atoms: C_3  and  O_6 
REMARK    3  A    between atoms: C_3  and  C_4 
REMARK    4  A    between atoms: C_7  and  O_6 
REMARK    5  A    between atoms: C_9  and  C_10 
REMARK    6  A    between atoms: N_15  and  C_14 
REMARK    7  A    between atoms: N_20  and  C_19 
REMARK       I    between atoms: C_22  and  N_20 
ROOT
ATOM      1  C   LIG d   1       3.226  88.266 115.551  0.00  0.00     0.161 C 
ATOM      2  C   LIG d   1       2.532  87.651 114.496  0.00  0.00     0.016 C 
ATOM      3  C   LIG d   1       3.044  87.549 113.182  0.00  0.00     0.038 C 
ATOM      4  C   LIG d   1       4.359  87.924 112.867  0.00  0.00     0.028 C 
ATOM      5  C   LIG d   1       4.914  89.010 113.782  0.00  0.00    -0.047 C 
ATOM      6  C   LIG d   1       4.707  88.582 115.253  0.00  0.00     0.091 C 
ENDROOT
BRANCH   1   7
ATOM      7  O   LIG d   1       3.115  87.463 116.743  0.00  0.00    -0.368 OA
BRANCH   7   8
ATOM      8  C   LIG d   1       2.912  86.043 116.538  0.00  0.00     0.119 C 
BRANCH   8   9
ATOM      9  C   LIG d   1       1.928  85.556 117.619  0.00  0.00     0.028 C 
ATOM     10  C   LIG d   1       1.057  86.695 118.176  0.00  0.00     0.006 C 
ENDBRANCH   8   9
BRANCH   8  11
ATOM     11  C   LIG d   1       4.203  85.255 116.780  0.00  0.00     0.028 C 
ATOM     12  C   LIG d   1       4.806  84.687 115.486  0.00  0.00     0.006 C 
ENDBRANCH   8  11
ENDBRANCH   7   8
ENDBRANCH   1   7
BRANCH   6  13
ATOM     13  N   LIG d   1       5.147  89.626 116.215  0.00  0.00    -0.311 N 
ATOM     14  C   LIG d   1       6.197  89.484 117.022  0.00  0.00     0.210 C 
ATOM     15  C   LIG d   1       6.464  90.673 117.950  0.00  0.00     0.109 C 
ATOM     16  O   LIG d   1       6.951  88.500 117.035  0.00  0.00    -0.276 OA
ATOM     17  H   LIG d   1       4.610  90.470 116.248  0.00  0.00     0.149 HD
ENDBRANCH   6  13
BRANCH   5  18
ATOM     18  N   LIG d   1       6.333  89.206 113.431  0.00  0.00     0.381 N 
ATOM     19  H   LIG d   1       6.467  90.126 113.060  0.00  0.00    -0.090 HD
ATOM     20  H   LIG d   1       6.588  88.540 112.723  0.00  0.00    -0.090 HD
ATOM     21  H   LIG d   1       6.905  89.079 114.237  0.00  0.00    -0.090 HD
ENDBRANCH   5  18
BRANCH   3  22
ATOM     22  C   LIG d   1       2.223  87.103 112.157  0.00  0.00     0.382 C 
ATOM     23  O   LIG d   1       2.722  86.534 111.157  0.00  0.00    -0.241 OA
ATOM     24  O   LIG d   1       0.994  87.303 112.200  0.00  0.00    -0.241 OA
ENDBRANCH   3  22
TORSDOF 7
ENDMDL
MODEL 9
REMARK VINA RESULT:      -4.9     24.889     26.958
REMARK  7 active torsions:
REMARK  status: ('A' for Active; 'I' for Inactive)
REMARK    1  A    between atoms: C_2  and  C_3 
REMARK    2  A    between atoms: C_3  and  O_6 
REMARK    3  A    between atoms: C_3  and  C_4 
REMARK    4  A    between atoms: C_7  and  O_6 
REMARK    5  A    between atoms: C_9  and  C_10 
REMARK    6  A    between atoms: N_15  and  C_14 
REMARK    7  A    between atoms: N_20  and  C_19 
REMARK       I    between atoms: C_22  and  N_20 
ROOT
ATOM      1  C   LIG d   1       4.419  84.954 113.108  0.00  0.00     0.161 C 
ATOM      2  C   LIG d   1       4.773  86.251 113.514  0.00  0.00     0.016 C 
ATOM      3  C   LIG d   1       4.033  87.405 113.167  0.00  0.00     0.038 C 
ATOM      4  C   LIG d   1       2.796  87.322 112.511  0.00  0.00     0.028 C 
ATOM      5  C   LIG d   1       2.653  86.077 111.642  0.00  0.00    -0.047 C 
ATOM      6  C   LIG d   1       3.012  84.832 112.486  0.00  0.00     0.091 C 
ENDROOT
BRANCH   1   7
ATOM      7  O   LIG d   1       4.559  84.040 114.214  0.00  0.00    -0.368 OA
BRANCH   7   8
ATOM      8  C   LIG d   1       4.586  84.637 115.534  0.00  0.00     0.119 C 
BRANCH   8   9
ATOM      9  C   LIG d   1       5.754  83.995 116.307  0.00  0.00     0.028 C 
ATOM     10  C   LIG d   1       5.283  83.239 117.561  0.00  0.00     0.006 C 
ENDBRANCH   8   9
BRANCH   8  11
ATOM     11  C   LIG d   1       3.328  84.282 116.332  0.00  0.00     0.028 C 
ATOM     12  C   LIG d   1       2.162  85.248 116.066  0.00  0.00     0.006 C 
ENDBRANCH   8  11
ENDBRANCH   7   8
ENDBRANCH   1   7
BRANCH   6  13
ATOM     13  N   LIG d   1       2.980  83.578 111.688  0.00  0.00    -0.311 N 
ATOM     14  C   LIG d   1       2.216  82.532 111.998  0.00  0.00     0.210 C 
ATOM     15  C   LIG d   1       2.349  81.333 111.055  0.00  0.00     0.109 C 
ATOM     16  O   LIG d   1       1.417  82.496 112.946  0.00  0.00    -0.276 OA
ATOM     17  H   LIG d   1       3.574  83.534 110.884  0.00  0.00     0.149 HD
ENDBRANCH   6  13
BRANCH   5  18
ATOM     18  N   LIG d   1       1.270  86.048 111.129  0.00  0.00     0.381 N 
ATOM     19  H   LIG d   1       1.084  86.882 110.610  0.00  0.00    -0.090 HD
ATOM     20  H   LIG d   1       0.635  86.012 111.908  0.00  0.00    -0.090 HD
ATOM     21  H   LIG d   1       1.139  85.250 110.548  0.00  0.00    -0.090 HD
ENDBRANCH   5  18
BRANCH   3  22
ATOM     22  C   LIG d   1       4.550  88.661 113.441  0.00  0.00     0.382 C 
ATOM     23  O   LIG d   1       5.639  89.017 112.930  0.00  0.00    -0.241 OA
ATOM     24  O   LIG d   1       3.964  89.428 114.229  0.00  0.00    -0.241 OA
ENDBRANCH   3  22
TORSDOF 7
ENDMDL
