MODEL 1
REMARK VINA RESULT:      -5.6      0.000      0.000
REMARK  7 active torsions:
REMARK  status: ('A' for Active; 'I' for Inactive)
REMARK    1  A    between atoms: C_2  and  C_3 
REMARK    2  A    between atoms: C_3  and  O_6 
REMARK    3  A    between atoms: C_3  and  C_4 
REMARK    4  A    between atoms: C_7  and  O_6 
REMARK    5  A    between atoms: C_9  and  C_10 
REMARK    6  A    between atoms: N_15  and  C_14 
REMARK    7  A    between atoms: N_20  and  C_19 
REMARK       I    between atoms: C_22  and  N_20 
ROOT
ATOM      1  C   LIG d   1      -3.059  77.782 114.445  0.00  0.00     0.161 C 
ATOM      2  C   LIG d   1      -3.197  78.926 113.642  0.00  0.00     0.016 C 
ATOM      3  C   LIG d   1      -2.127  79.802 113.346  0.00  0.00     0.038 C 
ATOM      4  C   LIG d   1      -0.805  79.508 113.710  0.00  0.00     0.028 C 
ATOM      5  C   LIG d   1      -0.701  78.626 114.950  0.00  0.00    -0.047 C 
ATOM      6  C   LIG d   1      -1.601  77.384 114.760  0.00  0.00     0.091 C 
ENDROOT
BRANCH   1   7
ATOM      7  O   LIG d   1      -3.761  76.676 113.844  0.00  0.00    -0.368 OA
BRANCH   7   8
ATOM      8  C   LIG d   1      -5.098  76.423 114.342  0.00  0.00     0.119 C 
BRANCH   8   9
ATOM      9  C   LIG d   1      -5.004  75.261 115.350  0.00  0.00     0.028 C 
ATOM     10  C   LIG d   1      -6.175  74.273 115.217  0.00  0.00     0.006 C 
ENDBRANCH   8   9
BRANCH   8  11
ATOM     11  C   LIG d   1      -6.021  75.920 113.228  0.00  0.00     0.028 C 
ATOM     12  C   LIG d   1      -6.382  77.016 112.213  0.00  0.00     0.006 C 
ENDBRANCH   8  11
ENDBRANCH   7   8
ENDBRANCH   1   7
BRANCH   6  13
ATOM     13  N   LIG d   1      -1.623  76.511 115.962  0.00  0.00    -0.311 N 
ATOM     14  C   LIG d   1      -1.371  75.203 115.923  0.00  0.00     0.210 C 
ATOM     15  C   LIG d   1      -1.467  74.485 117.273  0.00  0.00     0.109 C 
ATOM     16  O   LIG d   1      -1.047  74.576 114.903  0.00  0.00    -0.276 OA
ATOM     17  H   LIG d   1      -1.847  76.943 116.837  0.00  0.00     0.149 HD
ENDBRANCH   6  13
BRANCH   5  18
ATOM     18  N   LIG d   1       0.722  78.285 115.136  0.00  0.00     0.381 N 
ATOM     19  H   LIG d   1       1.296  78.964 114.677  0.00  0.00    -0.090 HD
ATOM     20  H   LIG d   1       0.899  77.389 114.718  0.00  0.00    -0.090 HD
ATOM     21  H   LIG d   1       0.942  78.256 116.108  0.00  0.00    -0.090 HD
ENDBRANCH   5  18
BRANCH   3  22
ATOM     22  C   LIG d   1      -2.382  81.008 112.710  0.00  0.00     0.382 C 
ATOM     23  O   LIG d   1      -1.430  81.714 112.300  0.00  0.00    -0.241 OA
ATOM     24  O   LIG d   1      -3.551  81.419 112.582  0.00  0.00    -0.241 OA
ENDBRANCH   3  22
TORSDOF 7
ENDMDL
MODEL 2
REMARK VINA RESULT:      -5.2      1.859      2.212
REMARK  7 active torsions:
REMARK  status: ('A' for Active; 'I' for Inactive)
REMARK    1  A    between atoms: C_2  and  C_3 
REMARK    2  A    between atoms: C_3  and  O_6 
REMARK    3  A    between atoms: C_3  and  C_4 
REMARK    4  A    between atoms: C_7  and  O_6 
REMARK    5  A    between atoms: C_9  and  C_10 
REMARK    6  A    between atoms: N_15  and  C_14 
REMARK    7  A    between atoms: N_20  and  C_19 
REMARK       I    between atoms: C_22  and  N_20 
ROOT
ATOM      1  C   LIG d   1      -2.384  77.528 116.287  0.00  0.00     0.161 C 
ATOM      2  C   LIG d   1      -2.770  78.451 115.301  0.00  0.00     0.016 C 
ATOM      3  C   LIG d   1      -2.144  78.548 114.037  0.00  0.00     0.038 C 
ATOM      4  C   LIG d   1      -1.181  77.619 113.614  0.00  0.00     0.028 C 
ATOM      5  C   LIG d   1      -0.406  76.984 114.763  0.00  0.00    -0.047 C 
ATOM      6  C   LIG d   1      -1.410  76.434 115.802  0.00  0.00     0.091 C 
ENDROOT
BRANCH   1   7
ATOM      7  O   LIG d   1      -3.553  76.931 116.881  0.00  0.00    -0.368 OA
BRANCH   7   8
ATOM      8  C   LIG d   1      -4.795  77.100 116.155  0.00  0.00     0.119 C 
BRANCH   8   9
ATOM      9  C   LIG d   1      -5.863  77.563 117.165  0.00  0.00     0.028 C 
ATOM     10  C   LIG d   1      -7.243  76.945 116.884  0.00  0.00     0.006 C 
ENDBRANCH   8   9
BRANCH   8  11
ATOM     11  C   LIG d   1      -5.307  75.764 115.607  0.00  0.00     0.028 C 
ATOM     12  C   LIG d   1      -4.914  75.533 114.139  0.00  0.00     0.006 C 
ENDBRANCH   8  11
ENDBRANCH   7   8
ENDBRANCH   1   7
BRANCH   6  13
ATOM     13  N   LIG d   1      -0.734  75.871 117.000  0.00  0.00    -0.311 N 
ATOM     14  C   LIG d   1      -0.354  74.598 117.097  0.00  0.00     0.210 C 
ATOM     15  C   LIG d   1       0.307  74.220 118.426  0.00  0.00     0.109 C 
ATOM     16  O   LIG d   1      -0.472  73.754 116.195  0.00  0.00    -0.276 OA
ATOM     17  H   LIG d   1      -0.571  76.494 117.767  0.00  0.00     0.149 HD
ENDBRANCH   6  13
BRANCH   5  18
ATOM     18  N   LIG d   1       0.464  75.940 114.191  0.00  0.00     0.381 N 
ATOM     19  H   LIG d   1       1.253  75.790 114.789  0.00  0.00    -0.090 HD
ATOM     20  H   LIG d   1       0.801  76.251 113.297  0.00  0.00    -0.090 HD
ATOM     21  H   LIG d   1      -0.046  75.091 114.084  0.00  0.00    -0.090 HD
ENDBRANCH   5  18
BRANCH   3  22
ATOM     22  C   LIG d   1      -2.452  79.606 113.196  0.00  0.00     0.382 C 
ATOM     23  O   LIG d   1      -3.046  80.614 113.649  0.00  0.00    -0.241 OA
ATOM     24  O   LIG d   1      -2.183  79.547 111.981  0.00  0.00    -0.241 OA
ENDBRANCH   3  22
TORSDOF 7
ENDMDL
MODEL 3
REMARK VINA RESULT:      -5.2      4.176      5.902
REMARK  7 active torsions:
REMARK  status: ('A' for Active; 'I' for Inactive)
REMARK    1  A    between atoms: C_2  and  C_3 
REMARK    2  A    between atoms: C_3  and  O_6 
REMARK    3  A    between atoms: C_3  and  C_4 
REMARK    4  A    between atoms: C_7  and  O_6 
REMARK    5  A    between atoms: C_9  and  C_10 
REMARK    6  A    between atoms: N_15  and  C_14 
REMARK    7  A    between atoms: N_20  and  C_19 
REMARK       I    between atoms: C_22  and  N_20 
ROOT
ATOM      1  C   LIG d   1      -5.690  77.412 116.978  0.00  0.00     0.161 C 
ATOM      2  C   LIG d   1      -7.069  77.188 117.133  0.00  0.00     0.016 C 
ATOM      3  C   LIG d   1      -7.926  78.068 117.833  0.00  0.00     0.038 C 
ATOM      4  C   LIG d   1      -7.487  79.316 118.300  0.00  0.00     0.028 C 
ATOM      5  C   LIG d   1      -5.994  79.356 118.609  0.00  0.00    -0.047 C 
ATOM      6  C   LIG d   1      -5.215  78.822 117.385  0.00  0.00     0.091 C 
ENDROOT
BRANCH   1   7
ATOM      7  O   LIG d   1      -5.297  77.123 115.622  0.00  0.00    -0.368 OA
BRANCH   7   8
ATOM      8  C   LIG d   1      -4.912  75.753 115.348  0.00  0.00     0.119 C 
BRANCH   8   9
ATOM      9  C   LIG d   1      -3.419  75.759 114.970  0.00  0.00     0.028 C 
ATOM     10  C   LIG d   1      -2.521  75.266 116.117  0.00  0.00     0.006 C 
ENDBRANCH   8   9
BRANCH   8  11
ATOM     11  C   LIG d   1      -5.640  75.205 114.117  0.00  0.00     0.028 C 
ATOM     12  C   LIG d   1      -6.208  76.314 113.218  0.00  0.00     0.006 C 
ENDBRANCH   8  11
ENDBRANCH   7   8
ENDBRANCH   1   7
BRANCH   6  13
ATOM     13  N   LIG d   1      -3.751  78.749 117.634  0.00  0.00    -0.311 N 
ATOM     14  C   LIG d   1      -2.835  79.025 116.707  0.00  0.00     0.210 C 
ATOM     15  C   LIG d   1      -1.382  78.868 117.166  0.00  0.00     0.109 C 
ATOM     16  O   LIG d   1      -3.088  79.416 115.557  0.00  0.00    -0.276 OA
ATOM     17  H   LIG d   1      -3.457  78.470 118.549  0.00  0.00     0.149 HD
ENDBRANCH   6  13
BRANCH   5  18
ATOM     18  N   LIG d   1      -5.648  80.748 118.953  0.00  0.00     0.381 N 
ATOM     19  H   LIG d   1      -4.788  80.766 119.464  0.00  0.00    -0.090 HD
ATOM     20  H   LIG d   1      -6.371  81.128 119.538  0.00  0.00    -0.090 HD
ATOM     21  H   LIG d   1      -5.561  81.293 118.123  0.00  0.00    -0.090 HD
ENDBRANCH   5  18
BRANCH   3  22
ATOM     22  C   LIG d   1      -9.230  77.684 118.107  0.00  0.00     0.382 C 
ATOM     23  O   LIG d   1     -10.049  78.521 118.556  0.00  0.00    -0.241 OA
ATOM     24  O   LIG d   1      -9.585  76.500 117.952  0.00  0.00    -0.241 OA
ENDBRANCH   3  22
TORSDOF 7
ENDMDL
MODEL 4
REMARK VINA RESULT:      -5.0     14.595     17.368
REMARK  7 active torsions:
REMARK  status: ('A' for Active; 'I' for Inactive)
REMARK    1  A    between atoms: C_2  and  C_3 
REMARK    2  A    between atoms: C_3  and  O_6 
REMARK    3  A    between atoms: C_3  and  C_4 
REMARK    4  A    between atoms: C_7  and  O_6 
REMARK    5  A    between atoms: C_9  and  C_10 
REMARK    6  A    between atoms: N_15  and  C_14 
REMARK    7  A    between atoms: N_20  and  C_19 
REMARK       I    between atoms: C_22  and  N_20 
ROOT
ATOM      1  C   LIG d   1     -15.888  66.311 114.597  0.00  0.00     0.161 C 
ATOM      2  C   LIG d   1     -15.327  66.840 113.423  0.00  0.00     0.016 C 
ATOM      3  C   LIG d   1     -14.596  68.050 113.387  0.00  0.00     0.038 C 
ATOM      4  C   LIG d   1     -14.245  68.739 114.557  0.00  0.00     0.028 C 
ATOM      5  C   LIG d   1     -15.217  68.511 115.709  0.00  0.00    -0.047 C 
ATOM      6  C   LIG d   1     -15.421  66.991 115.901  0.00  0.00     0.091 C 
ENDROOT
BRANCH   1   7
ATOM      7  O   LIG d   1     -15.644  64.891 114.658  0.00  0.00    -0.368 OA
BRANCH   7   8
ATOM      8  C   LIG d   1     -16.776  64.037 114.360  0.00  0.00     0.119 C 
BRANCH   8   9
ATOM      9  C   LIG d   1     -17.999  64.949 114.142  0.00  0.00     0.028 C 
ATOM     10  C   LIG d   1     -18.685  64.698 112.789  0.00  0.00     0.006 C 
ENDBRANCH   8   9
BRANCH   8  11
ATOM     11  C   LIG d   1     -17.137  63.153 115.557  0.00  0.00     0.028 C 
ATOM     12  C   LIG d   1     -17.582  61.741 115.143  0.00  0.00     0.006 C 
ENDBRANCH   8  11
ENDBRANCH   7   8
ENDBRANCH   1   7
BRANCH   6  13
ATOM     13  N   LIG d   1     -16.423  66.681 116.954  0.00  0.00    -0.311 N 
ATOM     14  C   LIG d   1     -16.203  65.819 117.945  0.00  0.00     0.210 C 
ATOM     15  C   LIG d   1     -17.377  65.631 118.911  0.00  0.00     0.109 C 
ATOM     16  O   LIG d   1     -15.136  65.216 118.133  0.00  0.00    -0.276 OA
ATOM     17  H   LIG d   1     -17.306  67.150 116.895  0.00  0.00     0.149 HD
ENDBRANCH   6  13
BRANCH   5  18
ATOM     18  N   LIG d   1     -14.659  69.175 116.903  0.00  0.00     0.381 N 
ATOM     19  H   LIG d   1     -15.199  68.932 117.709  0.00  0.00    -0.090 HD
ATOM     20  H   LIG d   1     -14.711  70.170 116.775  0.00  0.00    -0.090 HD
ATOM     21  H   LIG d   1     -13.710  68.899 117.034  0.00  0.00    -0.090 HD
ENDBRANCH   5  18
BRANCH   3  22
ATOM     22  C   LIG d   1     -14.241  68.603 112.166  0.00  0.00     0.382 C 
ATOM     23  O   LIG d   1     -14.626  68.066 111.099  0.00  0.00    -0.241 OA
ATOM     24  O   LIG d   1     -13.505  69.606 112.116  0.00  0.00    -0.241 OA
ENDBRANCH   3  22
TORSDOF 7
ENDMDL
MODEL 5
REMARK VINA RESULT:      -5.0      7.610     10.229
REMARK  7 active torsions:
REMARK  status: ('A' for Active; 'I' for Inactive)
REMARK    1  A    between atoms: C_2  and  C_3 
REMARK    2  A    between atoms: C_3  and  O_6 
REMARK    3  A    between atoms: C_3  and  C_4 
REMARK    4  A    between atoms: C_7  and  O_6 
REMARK    5  A    between atoms: C_9  and  C_10 
REMARK    6  A    between atoms: N_15  and  C_14 
REMARK    7  A    between atoms: N_20  and  C_19 
REMARK       I    between atoms: C_22  and  N_20 
ROOT
ATOM      1  C   LIG d   1       2.501  85.382 114.354  0.00  0.00     0.161 C 
ATOM      2  C   LIG d   1       2.810  86.740 114.174  0.00  0.00     0.016 C 
ATOM      3  C   LIG d   1       3.942  87.363 114.750  0.00  0.00     0.038 C 
ATOM      4  C   LIG d   1       4.929  86.630 115.424  0.00  0.00     0.028 C 
ATOM      5  C   LIG d   1       4.402  85.347 116.060  0.00  0.00    -0.047 C 
ATOM      6  C   LIG d   1       3.625  84.541 114.995  0.00  0.00     0.091 C 
ENDROOT
BRANCH   1   7
ATOM      7  O   LIG d   1       2.096  84.802 113.097  0.00  0.00    -0.368 OA
BRANCH   7   8
ATOM      8  C   LIG d   1       2.247  85.646 111.929  0.00  0.00     0.119 C 
BRANCH   8   9
ATOM      9  C   LIG d   1       0.989  85.459 111.059  0.00  0.00     0.028 C 
ATOM     10  C   LIG d   1      -0.273  85.200 111.899  0.00  0.00     0.006 C 
ENDBRANCH   8   9
BRANCH   8  11
ATOM     11  C   LIG d   1       3.417  85.184 111.055  0.00  0.00     0.028 C 
ATOM     12  C   LIG d   1       3.794  83.713 111.294  0.00  0.00     0.006 C 
ENDBRANCH   8  11
ENDBRANCH   7   8
ENDBRANCH   1   7
BRANCH   6  13
ATOM     13  N   LIG d   1       3.005  83.312 115.554  0.00  0.00    -0.311 N 
ATOM     14  C   LIG d   1       3.373  82.081 115.204  0.00  0.00     0.210 C 
ATOM     15  C   LIG d   1       2.590  80.954 115.887  0.00  0.00     0.109 C 
ATOM     16  O   LIG d   1       4.294  81.814 114.418  0.00  0.00    -0.276 OA
ATOM     17  H   LIG d   1       2.270  83.436 116.223  0.00  0.00     0.149 HD
ENDBRANCH   6  13
BRANCH   5  18
ATOM     18  N   LIG d   1       5.559  84.615 116.610  0.00  0.00     0.381 N 
ATOM     19  H   LIG d   1       6.273  85.262 116.878  0.00  0.00    -0.090 HD
ATOM     20  H   LIG d   1       5.930  84.012 115.897  0.00  0.00    -0.090 HD
ATOM     21  H   LIG d   1       5.277  84.075 117.398  0.00  0.00    -0.090 HD
ENDBRANCH   5  18
BRANCH   3  22
ATOM     22  C   LIG d   1       4.073  88.742 114.686  0.00  0.00     0.382 C 
ATOM     23  O   LIG d   1       4.100  89.418 115.743  0.00  0.00    -0.241 OA
ATOM     24  O   LIG d   1       4.120  89.322 113.585  0.00  0.00    -0.241 OA
ENDBRANCH   3  22
TORSDOF 7
ENDMDL
MODEL 6
REMARK VINA RESULT:      -4.7      7.088      8.932
REMARK  7 active torsions:
REMARK  status: ('A' for Active; 'I' for Inactive)
REMARK    1  A    between atoms: C_2  and  C_3 
REMARK    2  A    between atoms: C_3  and  O_6 
REMARK    3  A    between atoms: C_3  and  C_4 
REMARK    4  A    between atoms: C_7  and  O_6 
REMARK    5  A    between atoms: C_9  and  C_10 
REMARK    6  A    between atoms: N_15  and  C_14 
REMARK    7  A    between atoms: N_20  and  C_19 
REMARK       I    between atoms: C_22  and  N_20 
ROOT
ATOM      1  C   LIG d   1       1.580  84.445 114.459  0.00  0.00     0.161 C 
ATOM      2  C   LIG d   1       2.138  85.423 113.618  0.00  0.00     0.016 C 
ATOM      3  C   LIG d   1       3.309  86.148 113.938  0.00  0.00     0.038 C 
ATOM      4  C   LIG d   1       4.091  85.835 115.059  0.00  0.00     0.028 C 
ATOM      5  C   LIG d   1       3.296  85.199 116.195  0.00  0.00    -0.047 C 
ATOM      6  C   LIG d   1       2.481  84.012 115.634  0.00  0.00     0.091 C 
ENDROOT
BRANCH   1   7
ATOM      7  O   LIG d   1       1.187  83.298 113.679  0.00  0.00    -0.368 OA
BRANCH   7   8
ATOM      8  C   LIG d   1       1.941  83.063 112.465  0.00  0.00     0.119 C 
BRANCH   8   9
ATOM      9  C   LIG d   1       0.945  82.604 111.383  0.00  0.00     0.028 C 
ATOM     10  C   LIG d   1      -0.357  83.424 111.397  0.00  0.00     0.006 C 
ENDBRANCH   8   9
BRANCH   8  11
ATOM     11  C   LIG d   1       2.921  81.899 112.634  0.00  0.00     0.028 C 
ATOM     12  C   LIG d   1       4.388  82.357 112.684  0.00  0.00     0.006 C 
ENDBRANCH   8  11
ENDBRANCH   7   8
ENDBRANCH   1   7
BRANCH   6  13
ATOM     13  N   LIG d   1       1.610  83.386 116.662  0.00  0.00    -0.311 N 
ATOM     14  C   LIG d   1       1.852  82.191 117.199  0.00  0.00     0.210 C 
ATOM     15  C   LIG d   1       0.817  81.723 118.227  0.00  0.00     0.109 C 
ATOM     16  O   LIG d   1       2.842  81.489 116.946  0.00  0.00    -0.276 OA
ATOM     17  H   LIG d   1       0.800  83.901 116.949  0.00  0.00     0.149 HD
ENDBRANCH   6  13
BRANCH   5  18
ATOM     18  N   LIG d   1       4.256  84.799 117.241  0.00  0.00     0.381 N 
ATOM     19  H   LIG d   1       3.813  84.176 117.887  0.00  0.00    -0.090 HD
ATOM     20  H   LIG d   1       4.549  85.618 117.744  0.00  0.00    -0.090 HD
ATOM     21  H   LIG d   1       5.045  84.354 116.828  0.00  0.00    -0.090 HD
ENDBRANCH   5  18
BRANCH   3  22
ATOM     22  C   LIG d   1       3.685  87.226 113.152  0.00  0.00     0.382 C 
ATOM     23  O   LIG d   1       4.823  87.249 112.623  0.00  0.00    -0.241 OA
ATOM     24  O   LIG d   1       2.919  88.197 113.002  0.00  0.00    -0.241 OA
ENDBRANCH   3  22
TORSDOF 7
ENDMDL
MODEL 7
REMARK VINA RESULT:      -4.7     12.304     14.997
REMARK  7 active torsions:
REMARK  status: ('A' for Active; 'I' for Inactive)
REMARK    1  A    between atoms: C_2  and  C_3 
REMARK    2  A    between atoms: C_3  and  O_6 
REMARK    3  A    between atoms: C_3  and  C_4 
REMARK    4  A    between atoms: C_7  and  O_6 
REMARK    5  A    between atoms: C_9  and  C_10 
REMARK    6  A    between atoms: N_15  and  C_14 
REMARK    7  A    between atoms: N_20  and  C_19 
REMARK       I    between atoms: C_22  and  N_20 
ROOT
ATOM      1  C   LIG d   1      10.846  76.299 114.010  0.00  0.00     0.161 C 
ATOM      2  C   LIG d   1      10.640  75.045 114.609  0.00  0.00     0.016 C 
ATOM      3  C   LIG d   1      11.685  74.260 115.150  0.00  0.00     0.038 C 
ATOM      4  C   LIG d   1      12.995  74.748 115.265  0.00  0.00     0.028 C 
ATOM      5  C   LIG d   1      13.344  75.801 114.219  0.00  0.00    -0.047 C 
ATOM      6  C   LIG d   1      12.252  76.896 114.226  0.00  0.00     0.091 C 
ENDROOT
BRANCH   1   7
ATOM      7  O   LIG d   1       9.835  77.225 114.455  0.00  0.00    -0.368 OA
BRANCH   7   8
ATOM      8  C   LIG d   1       9.216  76.927 115.731  0.00  0.00     0.119 C 
BRANCH   8   9
ATOM      9  C   LIG d   1       7.793  77.519 115.704  0.00  0.00     0.028 C 
ATOM     10  C   LIG d   1       7.313  77.957 117.098  0.00  0.00     0.006 C 
ENDBRANCH   8   9
BRANCH   8  11
ATOM     11  C   LIG d   1       9.932  77.645 116.879  0.00  0.00     0.028 C 
ATOM     12  C   LIG d   1      10.650  76.677 117.832  0.00  0.00     0.006 C 
ENDBRANCH   8  11
ENDBRANCH   7   8
ENDBRANCH   1   7
BRANCH   6  13
ATOM     13  N   LIG d   1      12.472  77.922 113.174  0.00  0.00    -0.311 N 
ATOM     14  C   LIG d   1      12.256  79.223 113.362  0.00  0.00     0.210 C 
ATOM     15  C   LIG d   1      12.526  80.107 112.140  0.00  0.00     0.109 C 
ATOM     16  O   LIG d   1      11.897  79.733 114.434  0.00  0.00    -0.276 OA
ATOM     17  H   LIG d   1      12.793  77.600 112.282  0.00  0.00     0.149 HD
ENDBRANCH   6  13
BRANCH   5  18
ATOM     18  N   LIG d   1      14.686  76.321 114.540  0.00  0.00     0.381 N 
ATOM     19  H   LIG d   1      15.374  75.842 113.995  0.00  0.00    -0.090 HD
ATOM     20  H   LIG d   1      14.878  76.149 115.511  0.00  0.00    -0.090 HD
ATOM     21  H   LIG d   1      14.727  77.299 114.354  0.00  0.00    -0.090 HD
ENDBRANCH   5  18
BRANCH   3  22
ATOM     22  C   LIG d   1      11.430  72.956 115.547  0.00  0.00     0.382 C 
ATOM     23  O   LIG d   1      11.159  72.082 114.689  0.00  0.00    -0.241 OA
ATOM     24  O   LIG d   1      11.424  72.653 116.755  0.00  0.00    -0.241 OA
ENDBRANCH   3  22
TORSDOF 7
ENDMDL
MODEL 8
REMARK VINA RESULT:      -4.7     12.945     15.401
REMARK  7 active torsions:
REMARK  status: ('A' for Active; 'I' for Inactive)
REMARK    1  A    between atoms: C_2  and  C_3 
REMARK    2  A    between atoms: C_3  and  O_6 
REMARK    3  A    between atoms: C_3  and  C_4 
REMARK    4  A    between atoms: C_7  and  O_6 
REMARK    5  A    between atoms: C_9  and  C_10 
REMARK    6  A    between atoms: N_15  and  C_14 
REMARK    7  A    between atoms: N_20  and  C_19 
REMARK       I    between atoms: C_22  and  N_20 
ROOT
ATOM      1  C   LIG d   1      11.642  76.757 114.023  0.00  0.00     0.161 C 
ATOM      2  C   LIG d   1      10.445  77.387 114.400  0.00  0.00     0.016 C 
ATOM      3  C   LIG d   1       9.743  77.077 115.588  0.00  0.00     0.038 C 
ATOM      4  C   LIG d   1      10.275  76.216 116.560  0.00  0.00     0.028 C 
ATOM      5  C   LIG d   1      11.234  75.177 115.989  0.00  0.00    -0.047 C 
ATOM      6  C   LIG d   1      12.295  75.896 115.124  0.00  0.00     0.091 C 
ENDROOT
BRANCH   1   7
ATOM      7  O   LIG d   1      12.578  77.739 113.534  0.00  0.00    -0.368 OA
BRANCH   7   8
ATOM      8  C   LIG d   1      12.268  79.121 113.839  0.00  0.00     0.119 C 
BRANCH   8   9
ATOM      9  C   LIG d   1      12.539  79.947 112.566  0.00  0.00     0.028 C 
ATOM     10  C   LIG d   1      13.694  79.374 111.729  0.00  0.00     0.006 C 
ENDBRANCH   8   9
BRANCH   8  11
ATOM     11  C   LIG d   1      13.220  79.685 114.898  0.00  0.00     0.028 C 
ATOM     12  C   LIG d   1      12.658  79.574 116.324  0.00  0.00     0.006 C 
ENDBRANCH   8  11
ENDBRANCH   7   8
ENDBRANCH   1   7
BRANCH   6  13
ATOM     13  N   LIG d   1      13.223  74.944 114.459  0.00  0.00    -0.311 N 
ATOM     14  C   LIG d   1      14.400  74.588 114.973  0.00  0.00     0.210 C 
ATOM     15  C   LIG d   1      15.210  73.611 114.116  0.00  0.00     0.109 C 
ATOM     16  O   LIG d   1      14.834  74.964 116.072  0.00  0.00    -0.276 OA
ATOM     17  H   LIG d   1      12.936  74.567 113.578  0.00  0.00     0.149 HD
ENDBRANCH   6  13
BRANCH   5  18
ATOM     18  N   LIG d   1      11.818  74.439 117.125  0.00  0.00     0.381 N 
ATOM     19  H   LIG d   1      11.088  74.085 117.710  0.00  0.00    -0.090 HD
ATOM     20  H   LIG d   1      12.380  75.070 117.668  0.00  0.00    -0.090 HD
ATOM     21  H   LIG d   1      12.379  73.687 116.790  0.00  0.00    -0.090 HD
ENDBRANCH   5  18
BRANCH   3  22
ATOM     22  C   LIG d   1       8.476  77.600 115.794  0.00  0.00     0.382 C 
ATOM     23  O   LIG d   1       7.727  77.833 114.815  0.00  0.00    -0.241 OA
ATOM     24  O   LIG d   1       8.089  77.884 116.943  0.00  0.00    -0.241 OA
ENDBRANCH   3  22
TORSDOF 7
ENDMDL
MODEL 9
REMARK VINA RESULT:      -4.6     21.053     23.129
REMARK  7 active torsions:
REMARK  status: ('A' for Active; 'I' for Inactive)
REMARK    1  A    between atoms: C_2  and  C_3 
REMARK    2  A    between atoms: C_3  and  O_6 
REMARK    3  A    between atoms: C_3  and  C_4 
REMARK    4  A    between atoms: C_7  and  O_6 
REMARK    5  A    between atoms: C_9  and  C_10 
REMARK    6  A    between atoms: N_15  and  C_14 
REMARK    7  A    between atoms: N_20  and  C_19 
REMARK       I    between atoms: C_22  and  N_20 
ROOT
ATOM      1  C   LIG d   1     -24.568  84.553 115.159  0.00  0.00     0.161 C 
ATOM      2  C   LIG d   1     -23.480  85.436 115.048  0.00  0.00     0.016 C 
ATOM      3  C   LIG d   1     -23.481  86.570 114.205  0.00  0.00     0.038 C 
ATOM      4  C   LIG d   1     -24.635  86.987 113.524  0.00  0.00     0.028 C 
ATOM      5  C   LIG d   1     -25.599  85.847 113.212  0.00  0.00    -0.047 C 
ATOM      6  C   LIG d   1     -25.875  85.053 114.509  0.00  0.00     0.091 C 
ENDROOT
BRANCH   1   7
ATOM      7  O   LIG d   1     -24.791  84.225 116.545  0.00  0.00    -0.368 OA
BRANCH   7   8
ATOM      8  C   LIG d   1     -24.487  82.863 116.934  0.00  0.00     0.119 C 
BRANCH   8   9
ATOM      9  C   LIG d   1     -23.362  82.922 117.986  0.00  0.00     0.028 C 
ATOM     10  C   LIG d   1     -21.962  82.902 117.351  0.00  0.00     0.006 C 
ENDBRANCH   8   9
BRANCH   8  11
ATOM     11  C   LIG d   1     -23.904  82.066 115.763  0.00  0.00     0.028 C 
ATOM     12  C   LIG d   1     -24.512  80.660 115.638  0.00  0.00     0.006 C 
ENDBRANCH   8  11
ENDBRANCH   7   8
ENDBRANCH   1   7
BRANCH   6  13
ATOM     13  N   LIG d   1     -26.743  83.870 114.276  0.00  0.00    -0.311 N 
ATOM     14  C   LIG d   1     -26.513  82.969 113.323  0.00  0.00     0.210 C 
ATOM     15  C   LIG d   1     -27.541  81.837 113.241  0.00  0.00     0.109 C 
ATOM     16  O   LIG d   1     -25.536  82.982 112.558  0.00  0.00    -0.276 OA
ATOM     17  H   LIG d   1     -27.540  83.764 114.872  0.00  0.00     0.149 HD
ENDBRANCH   6  13
BRANCH   5  18
ATOM     18  N   LIG d   1     -26.816  86.440 112.627  0.00  0.00     0.381 N 
ATOM     19  H   LIG d   1     -27.565  86.398 113.289  0.00  0.00    -0.090 HD
ATOM     20  H   LIG d   1     -27.081  85.908 111.817  0.00  0.00    -0.090 HD
ATOM     21  H   LIG d   1     -26.644  87.387 112.369  0.00  0.00    -0.090 HD
ENDBRANCH   5  18
BRANCH   3  22
ATOM     22  C   LIG d   1     -22.307  87.279 114.004  0.00  0.00     0.382 C 
ATOM     23  O   LIG d   1     -21.492  86.907 113.126  0.00  0.00    -0.241 OA
ATOM     24  O   LIG d   1     -22.030  88.260 114.721  0.00  0.00    -0.241 OA
ENDBRANCH   3  22
TORSDOF 7
ENDMDL
