MODEL 1
REMARK VINA RESULT:      -5.9      0.000      0.000
REMARK  7 active torsions:
REMARK  status: ('A' for Active; 'I' for Inactive)
REMARK    1  A    between atoms: C_2  and  C_3 
REMARK    2  A    between atoms: C_3  and  O_6 
REMARK    3  A    between atoms: C_3  and  C_4 
REMARK    4  A    between atoms: C_7  and  O_6 
REMARK    5  A    between atoms: C_9  and  C_10 
REMARK    6  A    between atoms: N_15  and  C_14 
REMARK    7  A    between atoms: N_20  and  C_19 
REMARK       I    between atoms: C_22  and  N_20 
ROOT
ATOM      1  C   LIG d   1       2.620  87.757 114.829  0.00  0.00     0.161 C 
ATOM      2  C   LIG d   1       2.482  88.702 115.860  0.00  0.00     0.016 C 
ATOM      3  C   LIG d   1       3.236  89.896 115.927  0.00  0.00     0.038 C 
ATOM      4  C   LIG d   1       4.078  90.300 114.880  0.00  0.00     0.028 C 
ATOM      5  C   LIG d   1       4.627  89.138 114.060  0.00  0.00    -0.047 C 
ATOM      6  C   LIG d   1       3.452  88.234 113.621  0.00  0.00     0.091 C 
ENDROOT
BRANCH   1   7
ATOM      7  O   LIG d   1       1.319  87.312 114.397  0.00  0.00    -0.368 OA
BRANCH   7   8
ATOM      8  C   LIG d   1       1.021  85.910 114.608  0.00  0.00     0.119 C 
BRANCH   8   9
ATOM      9  C   LIG d   1       0.031  85.476 113.510  0.00  0.00     0.028 C 
ATOM     10  C   LIG d   1      -1.294  84.953 114.087  0.00  0.00     0.006 C 
ENDBRANCH   8   9
BRANCH   8  11
ATOM     11  C   LIG d   1       0.281  85.691 115.931  0.00  0.00     0.028 C 
ATOM     12  C   LIG d   1       1.201  85.180 117.051  0.00  0.00     0.006 C 
ENDBRANCH   8  11
ENDBRANCH   7   8
ENDBRANCH   1   7
BRANCH   6  13
ATOM     13  N   LIG d   1       3.910  87.027 112.885  0.00  0.00    -0.311 N 
ATOM     14  C   LIG d   1       3.357  86.607 111.749  0.00  0.00     0.210 C 
ATOM     15  C   LIG d   1       3.968  85.329 111.165  0.00  0.00     0.109 C 
ATOM     16  O   LIG d   1       2.440  87.190 111.151  0.00  0.00    -0.276 OA
ATOM     17  H   LIG d   1       4.671  86.511 113.283  0.00  0.00     0.149 HD
ENDBRANCH   6  13
BRANCH   5  18
ATOM     18  N   LIG d   1       5.374  89.708 112.923  0.00  0.00     0.381 N 
ATOM     19  H   LIG d   1       4.787  89.739 112.114  0.00  0.00    -0.090 HD
ATOM     20  H   LIG d   1       6.160  89.115 112.720  0.00  0.00    -0.090 HD
ATOM     21  H   LIG d   1       5.691  90.625 113.149  0.00  0.00    -0.090 HD
ENDBRANCH   5  18
BRANCH   3  22
ATOM     22  C   LIG d   1       3.183  90.679 117.069  0.00  0.00     0.382 C 
ATOM     23  O   LIG d   1       2.906  90.156 118.176  0.00  0.00    -0.241 OA
ATOM     24  O   LIG d   1       3.363  91.910 117.000  0.00  0.00    -0.241 OA
ENDBRANCH   3  22
TORSDOF 7
ENDMDL
MODEL 2
REMARK VINA RESULT:      -5.7     26.167     29.238
REMARK  7 active torsions:
REMARK  status: ('A' for Active; 'I' for Inactive)
REMARK    1  A    between atoms: C_2  and  C_3 
REMARK    2  A    between atoms: C_3  and  O_6 
REMARK    3  A    between atoms: C_3  and  C_4 
REMARK    4  A    between atoms: C_7  and  O_6 
REMARK    5  A    between atoms: C_9  and  C_10 
REMARK    6  A    between atoms: N_15  and  C_14 
REMARK    7  A    between atoms: N_20  and  C_19 
REMARK       I    between atoms: C_22  and  N_20 
ROOT
ATOM      1  C   LIG d   1     -16.435  65.953 113.563  0.00  0.00     0.161 C 
ATOM      2  C   LIG d   1     -15.918  66.757 112.534  0.00  0.00     0.016 C 
ATOM      3  C   LIG d   1     -15.236  67.974 112.765  0.00  0.00     0.038 C 
ATOM      4  C   LIG d   1     -14.891  68.397 114.057  0.00  0.00     0.028 C 
ATOM      5  C   LIG d   1     -15.832  67.874 115.137  0.00  0.00    -0.047 C 
ATOM      6  C   LIG d   1     -15.971  66.342 114.983  0.00  0.00     0.091 C 
ENDROOT
BRANCH   1   7
ATOM      7  O   LIG d   1     -16.135  64.569 113.300  0.00  0.00    -0.368 OA
BRANCH   7   8
ATOM      8  C   LIG d   1     -17.257  63.733 112.923  0.00  0.00     0.119 C 
BRANCH   8   9
ATOM      9  C   LIG d   1     -18.490  64.648 112.788  0.00  0.00     0.028 C 
ATOM     10  C   LIG d   1     -19.308  64.347 111.521  0.00  0.00     0.006 C 
ENDBRANCH   8   9
BRANCH   8  11
ATOM     11  C   LIG d   1     -17.609  62.739 114.034  0.00  0.00     0.028 C 
ATOM     12  C   LIG d   1     -17.748  61.297 113.520  0.00  0.00     0.006 C 
ENDBRANCH   8  11
ENDBRANCH   7   8
ENDBRANCH   1   7
BRANCH   6  13
ATOM     13  N   LIG d   1     -16.940  65.761 115.948  0.00  0.00    -0.311 N 
ATOM     14  C   LIG d   1     -16.624  64.802 116.817  0.00  0.00     0.210 C 
ATOM     15  C   LIG d   1     -17.778  64.331 117.708  0.00  0.00     0.109 C 
ATOM     16  O   LIG d   1     -15.490  64.320 116.957  0.00  0.00    -0.276 OA
ATOM     17  H   LIG d   1     -17.876  66.116 115.924  0.00  0.00     0.149 HD
ENDBRANCH   6  13
BRANCH   5  18
ATOM     18  N   LIG d   1     -15.278  68.275 116.444  0.00  0.00     0.381 N 
ATOM     19  H   LIG d   1     -14.284  68.365 116.377  0.00  0.00    -0.090 HD
ATOM     20  H   LIG d   1     -15.485  67.560 117.119  0.00  0.00    -0.090 HD
ATOM     21  H   LIG d   1     -15.678  69.141 116.733  0.00  0.00    -0.090 HD
ENDBRANCH   5  18
BRANCH   3  22
ATOM     22  C   LIG d   1     -14.927  68.802 111.697  0.00  0.00     0.382 C 
ATOM     23  O   LIG d   1     -13.753  68.849 111.259  0.00  0.00    -0.241 OA
ATOM     24  O   LIG d   1     -15.799  69.536 111.194  0.00  0.00    -0.241 OA
ENDBRANCH   3  22
TORSDOF 7
ENDMDL
MODEL 3
REMARK VINA RESULT:      -5.3     11.730     14.239
REMARK  7 active torsions:
REMARK  status: ('A' for Active; 'I' for Inactive)
REMARK    1  A    between atoms: C_2  and  C_3 
REMARK    2  A    between atoms: C_3  and  O_6 
REMARK    3  A    between atoms: C_3  and  C_4 
REMARK    4  A    between atoms: C_7  and  O_6 
REMARK    5  A    between atoms: C_9  and  C_10 
REMARK    6  A    between atoms: N_15  and  C_14 
REMARK    7  A    between atoms: N_20  and  C_19 
REMARK       I    between atoms: C_22  and  N_20 
ROOT
ATOM      1  C   LIG d   1      -6.678  77.410 117.376  0.00  0.00     0.161 C 
ATOM      2  C   LIG d   1      -7.991  77.753 117.741  0.00  0.00     0.016 C 
ATOM      3  C   LIG d   1      -8.419  79.086 117.941  0.00  0.00     0.038 C 
ATOM      4  C   LIG d   1      -7.597  80.182 117.639  0.00  0.00     0.028 C 
ATOM      5  C   LIG d   1      -6.109  79.872 117.752  0.00  0.00    -0.047 C 
ATOM      6  C   LIG d   1      -5.798  78.597 116.935  0.00  0.00     0.091 C 
ENDROOT
BRANCH   1   7
ATOM      7  O   LIG d   1      -6.706  76.398 116.350  0.00  0.00    -0.368 OA
BRANCH   7   8
ATOM      8  C   LIG d   1      -6.071  75.138 116.680  0.00  0.00     0.119 C 
BRANCH   8   9
ATOM      9  C   LIG d   1      -5.463  74.572 115.382  0.00  0.00     0.028 C 
ATOM     10  C   LIG d   1      -5.413  75.615 114.254  0.00  0.00     0.006 C 
ENDBRANCH   8   9
BRANCH   8  11
ATOM     11  C   LIG d   1      -7.100  74.098 117.133  0.00  0.00     0.028 C 
ATOM     12  C   LIG d   1      -6.905  72.732 116.456  0.00  0.00     0.006 C 
ENDBRANCH   8  11
ENDBRANCH   7   8
ENDBRANCH   1   7
BRANCH   6  13
ATOM     13  N   LIG d   1      -4.378  78.176 117.060  0.00  0.00    -0.311 N 
ATOM     14  C   LIG d   1      -3.505  78.236 116.056  0.00  0.00     0.210 C 
ATOM     15  C   LIG d   1      -2.097  77.733 116.393  0.00  0.00     0.109 C 
ATOM     16  O   LIG d   1      -3.753  78.689 114.929  0.00  0.00    -0.276 OA
ATOM     17  H   LIG d   1      -4.083  77.825 117.950  0.00  0.00     0.149 HD
ENDBRANCH   6  13
BRANCH   5  18
ATOM     18  N   LIG d   1      -5.369  81.057 117.278  0.00  0.00     0.381 N 
ATOM     19  H   LIG d   1      -4.563  80.769 116.760  0.00  0.00    -0.090 HD
ATOM     20  H   LIG d   1      -5.060  81.587 118.074  0.00  0.00    -0.090 HD
ATOM     21  H   LIG d   1      -5.958  81.620 116.705  0.00  0.00    -0.090 HD
ENDBRANCH   5  18
BRANCH   3  22
ATOM     22  C   LIG d   1      -9.670  79.331 118.486  0.00  0.00     0.382 C 
ATOM     23  O   LIG d   1      -9.907  80.429 119.045  0.00  0.00    -0.241 OA
ATOM     24  O   LIG d   1     -10.552  78.451 118.464  0.00  0.00    -0.241 OA
ENDBRANCH   3  22
TORSDOF 7
ENDMDL
MODEL 4
REMARK VINA RESULT:      -5.3      3.591      6.826
REMARK  7 active torsions:
REMARK  status: ('A' for Active; 'I' for Inactive)
REMARK    1  A    between atoms: C_2  and  C_3 
REMARK    2  A    between atoms: C_3  and  O_6 
REMARK    3  A    between atoms: C_3  and  C_4 
REMARK    4  A    between atoms: C_7  and  O_6 
REMARK    5  A    between atoms: C_9  and  C_10 
REMARK    6  A    between atoms: N_15  and  C_14 
REMARK    7  A    between atoms: N_20  and  C_19 
REMARK       I    between atoms: C_22  and  N_20 
ROOT
ATOM      1  C   LIG d   1      -0.245  84.485 112.993  0.00  0.00     0.161 C 
ATOM      2  C   LIG d   1      -1.172  83.430 112.986  0.00  0.00     0.016 C 
ATOM      3  C   LIG d   1      -0.874  82.135 112.504  0.00  0.00     0.038 C 
ATOM      4  C   LIG d   1       0.427  81.764 112.132  0.00  0.00     0.028 C 
ATOM      5  C   LIG d   1       1.275  82.934 111.647  0.00  0.00    -0.047 C 
ATOM      6  C   LIG d   1       1.210  84.069 112.694  0.00  0.00     0.091 C 
ENDROOT
BRANCH   1   7
ATOM      7  O   LIG d   1      -0.317  85.191 114.247  0.00  0.00    -0.368 OA
BRANCH   7   8
ATOM      8  C   LIG d   1       0.510  84.674 115.318  0.00  0.00     0.119 C 
BRANCH   8   9
ATOM      9  C   LIG d   1      -0.427  84.019 116.352  0.00  0.00     0.028 C 
ATOM     10  C   LIG d   1       0.179  84.003 117.765  0.00  0.00     0.006 C 
ENDBRANCH   8   9
BRANCH   8  11
ATOM     11  C   LIG d   1       1.218  85.805 116.071  0.00  0.00     0.028 C 
ATOM     12  C   LIG d   1       1.099  87.161 115.359  0.00  0.00     0.006 C 
ENDBRANCH   8  11
ENDBRANCH   7   8
ENDBRANCH   1   7
BRANCH   6  13
ATOM     13  N   LIG d   1       1.945  85.285 112.259  0.00  0.00    -0.311 N 
ATOM     14  C   LIG d   1       3.203  85.546 112.610  0.00  0.00     0.210 C 
ATOM     15  C   LIG d   1       3.765  86.865 112.068  0.00  0.00     0.109 C 
ATOM     16  O   LIG d   1       3.918  84.796 113.291  0.00  0.00    -0.276 OA
ATOM     17  H   LIG d   1       1.451  85.934 111.677  0.00  0.00     0.149 HD
ENDBRANCH   6  13
BRANCH   5  18
ATOM     18  N   LIG d   1       2.644  82.431 111.424  0.00  0.00     0.381 N 
ATOM     19  H   LIG d   1       2.635  81.733 110.707  0.00  0.00    -0.090 HD
ATOM     20  H   LIG d   1       2.976  82.007 112.272  0.00  0.00    -0.090 HD
ATOM     21  H   LIG d   1       3.245  83.181 111.161  0.00  0.00    -0.090 HD
ENDBRANCH   5  18
BRANCH   3  22
ATOM     22  C   LIG d   1      -1.893  81.207 112.352  0.00  0.00     0.382 C 
ATOM     23  O   LIG d   1      -1.635  79.980 112.400  0.00  0.00    -0.241 OA
ATOM     24  O   LIG d   1      -3.059  81.580 112.123  0.00  0.00    -0.241 OA
ENDBRANCH   3  22
TORSDOF 7
ENDMDL
MODEL 5
REMARK VINA RESULT:      -5.2      2.706      3.910
REMARK  7 active torsions:
REMARK  status: ('A' for Active; 'I' for Inactive)
REMARK    1  A    between atoms: C_2  and  C_3 
REMARK    2  A    between atoms: C_3  and  O_6 
REMARK    3  A    between atoms: C_3  and  C_4 
REMARK    4  A    between atoms: C_7  and  O_6 
REMARK    5  A    between atoms: C_9  and  C_10 
REMARK    6  A    between atoms: N_15  and  C_14 
REMARK    7  A    between atoms: N_20  and  C_19 
REMARK       I    between atoms: C_22  and  N_20 
ROOT
ATOM      1  C   LIG d   1       3.746  86.089 114.522  0.00  0.00     0.161 C 
ATOM      2  C   LIG d   1       4.267  87.390 114.432  0.00  0.00     0.016 C 
ATOM      3  C   LIG d   1       4.064  88.234 113.316  0.00  0.00     0.038 C 
ATOM      4  C   LIG d   1       3.194  87.887 112.272  0.00  0.00     0.028 C 
ATOM      5  C   LIG d   1       3.048  86.381 112.081  0.00  0.00    -0.047 C 
ATOM      6  C   LIG d   1       2.703  85.734 113.441  0.00  0.00     0.091 C 
ENDROOT
BRANCH   1   7
ATOM      7  O   LIG d   1       3.199  85.871 115.837  0.00  0.00    -0.368 OA
BRANCH   7   8
ATOM      8  C   LIG d   1       2.190  86.815 116.273  0.00  0.00     0.119 C 
BRANCH   8   9
ATOM      9  C   LIG d   1       2.545  87.241 117.710  0.00  0.00     0.028 C 
ATOM     10  C   LIG d   1       3.124  88.665 117.775  0.00  0.00     0.006 C 
ENDBRANCH   8   9
BRANCH   8  11
ATOM     11  C   LIG d   1       0.813  86.153 116.374  0.00  0.00     0.028 C 
ATOM     12  C   LIG d   1       0.896  84.656 116.713  0.00  0.00     0.006 C 
ENDBRANCH   8  11
ENDBRANCH   7   8
ENDBRANCH   1   7
BRANCH   6  13
ATOM     13  N   LIG d   1       2.625  84.252 113.361  0.00  0.00    -0.311 N 
ATOM     14  C   LIG d   1       1.489  83.587 113.157  0.00  0.00     0.210 C 
ATOM     15  C   LIG d   1       1.628  82.062 113.128  0.00  0.00     0.109 C 
ATOM     16  O   LIG d   1       0.384  84.117 112.965  0.00  0.00    -0.276 OA
ATOM     17  H   LIG d   1       3.480  83.743 113.474  0.00  0.00     0.149 HD
ENDBRANCH   6  13
BRANCH   5  18
ATOM     18  N   LIG d   1       2.011  86.160 111.055  0.00  0.00     0.381 N 
ATOM     19  H   LIG d   1       1.221  85.705 111.466  0.00  0.00    -0.090 HD
ATOM     20  H   LIG d   1       2.384  85.562 110.340  0.00  0.00    -0.090 HD
ATOM     21  H   LIG d   1       1.733  87.031 110.659  0.00  0.00    -0.090 HD
ENDBRANCH   5  18
BRANCH   3  22
ATOM     22  C   LIG d   1       4.768  89.425 113.219  0.00  0.00     0.382 C 
ATOM     23  O   LIG d   1       4.149  90.514 113.138  0.00  0.00    -0.241 OA
ATOM     24  O   LIG d   1       6.012  89.422 113.166  0.00  0.00    -0.241 OA
ENDBRANCH   3  22
TORSDOF 7
ENDMDL
MODEL 6
REMARK VINA RESULT:      -5.1      2.692      4.879
REMARK  7 active torsions:
REMARK  status: ('A' for Active; 'I' for Inactive)
REMARK    1  A    between atoms: C_2  and  C_3 
REMARK    2  A    between atoms: C_3  and  O_6 
REMARK    3  A    between atoms: C_3  and  C_4 
REMARK    4  A    between atoms: C_7  and  O_6 
REMARK    5  A    between atoms: C_9  and  C_10 
REMARK    6  A    between atoms: N_15  and  C_14 
REMARK    7  A    between atoms: N_20  and  C_19 
REMARK       I    between atoms: C_22  and  N_20 
ROOT
ATOM      1  C   LIG d   1       3.228  85.204 114.737  0.00  0.00     0.161 C 
ATOM      2  C   LIG d   1       2.346  84.410 115.488  0.00  0.00     0.016 C 
ATOM      3  C   LIG d   1       1.204  84.924 116.145  0.00  0.00     0.038 C 
ATOM      4  C   LIG d   1       0.781  86.250 115.969  0.00  0.00     0.028 C 
ATOM      5  C   LIG d   1       1.918  87.208 115.629  0.00  0.00    -0.047 C 
ATOM      6  C   LIG d   1       2.722  86.631 114.442  0.00  0.00     0.091 C 
ENDROOT
BRANCH   1   7
ATOM      7  O   LIG d   1       3.568  84.529 113.509  0.00  0.00    -0.368 OA
BRANCH   7   8
ATOM      8  C   LIG d   1       2.462  84.216 112.627  0.00  0.00     0.119 C 
BRANCH   8   9
ATOM      9  C   LIG d   1       2.306  82.683 112.606  0.00  0.00     0.028 C 
ATOM     10  C   LIG d   1       2.782  82.062 111.282  0.00  0.00     0.006 C 
ENDBRANCH   8   9
BRANCH   8  11
ATOM     11  C   LIG d   1       2.774  84.611 111.181  0.00  0.00     0.028 C 
ATOM     12  C   LIG d   1       3.991  85.543 111.067  0.00  0.00     0.006 C 
ENDBRANCH   8  11
ENDBRANCH   7   8
ENDBRANCH   1   7
BRANCH   6  13
ATOM     13  N   LIG d   1       3.903  87.465 114.099  0.00  0.00    -0.311 N 
ATOM     14  C   LIG d   1       3.873  88.442 113.194  0.00  0.00     0.210 C 
ATOM     15  C   LIG d   1       5.207  89.165 112.978  0.00  0.00     0.109 C 
ATOM     16  O   LIG d   1       2.861  88.800 112.572  0.00  0.00    -0.276 OA
ATOM     17  H   LIG d   1       4.759  87.264 114.578  0.00  0.00     0.149 HD
ENDBRANCH   6  13
BRANCH   5  18
ATOM     18  N   LIG d   1       1.319  88.524 115.338  0.00  0.00     0.381 N 
ATOM     19  H   LIG d   1       1.661  88.865 114.462  0.00  0.00    -0.090 HD
ATOM     20  H   LIG d   1       1.592  89.171 116.056  0.00  0.00    -0.090 HD
ATOM     21  H   LIG d   1       0.326  88.448 115.308  0.00  0.00    -0.090 HD
ENDBRANCH   5  18
BRANCH   3  22
ATOM     22  C   LIG d   1       0.494  84.117 117.022  0.00  0.00     0.382 C 
ATOM     23  O   LIG d   1       1.103  83.453 117.895  0.00  0.00    -0.241 OA
ATOM     24  O   LIG d   1      -0.743  84.011 116.922  0.00  0.00    -0.241 OA
ENDBRANCH   3  22
TORSDOF 7
ENDMDL
MODEL 7
REMARK VINA RESULT:      -5.1      2.454      4.285
REMARK  7 active torsions:
REMARK  status: ('A' for Active; 'I' for Inactive)
REMARK    1  A    between atoms: C_2  and  C_3 
REMARK    2  A    between atoms: C_3  and  O_6 
REMARK    3  A    between atoms: C_3  and  C_4 
REMARK    4  A    between atoms: C_7  and  O_6 
REMARK    5  A    between atoms: C_9  and  C_10 
REMARK    6  A    between atoms: N_15  and  C_14 
REMARK    7  A    between atoms: N_20  and  C_19 
REMARK       I    between atoms: C_22  and  N_20 
ROOT
ATOM      1  C   LIG d   1       1.554  87.624 115.175  0.00  0.00     0.161 C 
ATOM      2  C   LIG d   1       1.841  88.974 115.434  0.00  0.00     0.016 C 
ATOM      3  C   LIG d   1       2.466  89.423 116.621  0.00  0.00     0.038 C 
ATOM      4  C   LIG d   1       2.986  88.529 117.569  0.00  0.00     0.028 C 
ATOM      5  C   LIG d   1       2.270  87.182 117.588  0.00  0.00    -0.047 C 
ATOM      6  C   LIG d   1       2.214  86.624 116.147  0.00  0.00     0.091 C 
ENDROOT
BRANCH   1   7
ATOM      7  O   LIG d   1       1.903  87.303 113.814  0.00  0.00    -0.368 OA
BRANCH   7   8
ATOM      8  C   LIG d   1       3.295  86.984 113.570  0.00  0.00     0.119 C 
BRANCH   8   9
ATOM      9  C   LIG d   1       3.843  88.029 112.579  0.00  0.00     0.028 C 
ATOM     10  C   LIG d   1       4.815  89.017 113.246  0.00  0.00     0.006 C 
ENDBRANCH   8   9
BRANCH   8  11
ATOM     11  C   LIG d   1       3.442  85.635 112.860  0.00  0.00     0.028 C 
ATOM     12  C   LIG d   1       3.855  85.780 111.387  0.00  0.00     0.006 C 
ENDBRANCH   8  11
ENDBRANCH   7   8
ENDBRANCH   1   7
BRANCH   6  13
ATOM     13  N   LIG d   1       1.456  85.348 116.064  0.00  0.00    -0.311 N 
ATOM     14  C   LIG d   1       2.035  84.149 116.073  0.00  0.00     0.210 C 
ATOM     15  C   LIG d   1       1.072  82.964 115.957  0.00  0.00     0.109 C 
ATOM     16  O   LIG d   1       3.254  83.953 116.199  0.00  0.00    -0.276 OA
ATOM     17  H   LIG d   1       0.459  85.413 115.990  0.00  0.00     0.149 HD
ENDBRANCH   6  13
BRANCH   5  18
ATOM     18  N   LIG d   1       3.000  86.303 118.521  0.00  0.00     0.381 N 
ATOM     19  H   LIG d   1       3.797  85.910 118.062  0.00  0.00    -0.090 HD
ATOM     20  H   LIG d   1       2.394  85.552 118.800  0.00  0.00    -0.090 HD
ATOM     21  H   LIG d   1       3.289  86.821 119.321  0.00  0.00    -0.090 HD
ENDBRANCH   5  18
BRANCH   3  22
ATOM     22  C   LIG d   1       2.540  90.782 116.887  0.00  0.00     0.382 C 
ATOM     23  O   LIG d   1       3.484  91.462 116.418  0.00  0.00    -0.241 OA
ATOM     24  O   LIG d   1       1.699  91.327 117.626  0.00  0.00    -0.241 OA
ENDBRANCH   3  22
TORSDOF 7
ENDMDL
MODEL 8
REMARK VINA RESULT:      -5.1      2.129      5.114
REMARK  7 active torsions:
REMARK  status: ('A' for Active; 'I' for Inactive)
REMARK    1  A    between atoms: C_2  and  C_3 
REMARK    2  A    between atoms: C_3  and  O_6 
REMARK    3  A    between atoms: C_3  and  C_4 
REMARK    4  A    between atoms: C_7  and  O_6 
REMARK    5  A    between atoms: C_9  and  C_10 
REMARK    6  A    between atoms: N_15  and  C_14 
REMARK    7  A    between atoms: N_20  and  C_19 
REMARK       I    between atoms: C_22  and  N_20 
ROOT
ATOM      1  C   LIG d   1       1.999  86.876 114.664  0.00  0.00     0.161 C 
ATOM      2  C   LIG d   1       0.767  86.231 114.466  0.00  0.00     0.016 C 
ATOM      3  C   LIG d   1       0.490  85.408 113.350  0.00  0.00     0.038 C 
ATOM      4  C   LIG d   1       1.484  85.050 112.428  0.00  0.00     0.028 C 
ATOM      5  C   LIG d   1       2.602  86.080 112.312  0.00  0.00    -0.047 C 
ATOM      6  C   LIG d   1       3.132  86.408 113.727  0.00  0.00     0.091 C 
ENDROOT
BRANCH   1   7
ATOM      7  O   LIG d   1       2.403  86.745 116.042  0.00  0.00    -0.368 OA
BRANCH   7   8
ATOM      8  C   LIG d   1       2.138  87.886 116.894  0.00  0.00     0.119 C 
BRANCH   8   9
ATOM      9  C   LIG d   1       2.150  89.143 116.003  0.00  0.00     0.028 C 
ATOM     10  C   LIG d   1       2.274  90.440 116.820  0.00  0.00     0.006 C 
ENDBRANCH   8   9
BRANCH   8  11
ATOM     11  C   LIG d   1       3.265  88.097 117.909  0.00  0.00     0.028 C 
ATOM     12  C   LIG d   1       4.654  87.787 117.330  0.00  0.00     0.006 C 
ENDBRANCH   8  11
ENDBRANCH   7   8
ENDBRANCH   1   7
BRANCH   6  13
ATOM     13  N   LIG d   1       4.171  87.471 113.711  0.00  0.00    -0.311 N 
ATOM     14  C   LIG d   1       4.006  88.648 113.110  0.00  0.00     0.210 C 
ATOM     15  C   LIG d   1       5.210  89.592 113.196  0.00  0.00     0.109 C 
ATOM     16  O   LIG d   1       2.966  89.012 112.541  0.00  0.00    -0.276 OA
ATOM     17  H   LIG d   1       5.035  87.271 114.176  0.00  0.00     0.149 HD
ENDBRANCH   6  13
BRANCH   5  18
ATOM     18  N   LIG d   1       3.636  85.518 111.423  0.00  0.00     0.381 N 
ATOM     19  H   LIG d   1       3.544  85.909 110.506  0.00  0.00    -0.090 HD
ATOM     20  H   LIG d   1       3.503  84.524 111.357  0.00  0.00    -0.090 HD
ATOM     21  H   LIG d   1       4.543  85.715 111.786  0.00  0.00    -0.090 HD
ENDBRANCH   5  18
BRANCH   3  22
ATOM     22  C   LIG d   1      -0.805  84.966 113.127  0.00  0.00     0.382 C 
ATOM     23  O   LIG d   1      -1.054  84.220 112.149  0.00  0.00    -0.241 OA
ATOM     24  O   LIG d   1      -1.736  85.339 113.866  0.00  0.00    -0.241 OA
ENDBRANCH   3  22
TORSDOF 7
ENDMDL
MODEL 9
REMARK VINA RESULT:      -5.0      9.761     12.636
REMARK  7 active torsions:
REMARK  status: ('A' for Active; 'I' for Inactive)
REMARK    1  A    between atoms: C_2  and  C_3 
REMARK    2  A    between atoms: C_3  and  O_6 
REMARK    3  A    between atoms: C_3  and  C_4 
REMARK    4  A    between atoms: C_7  and  O_6 
REMARK    5  A    between atoms: C_9  and  C_10 
REMARK    6  A    between atoms: N_15  and  C_14 
REMARK    7  A    between atoms: N_20  and  C_19 
REMARK       I    between atoms: C_22  and  N_20 
ROOT
ATOM      1  C   LIG d   1      -2.280  76.428 114.912  0.00  0.00     0.161 C 
ATOM      2  C   LIG d   1      -2.328  75.402 115.871  0.00  0.00     0.016 C 
ATOM      3  C   LIG d   1      -1.446  75.326 116.974  0.00  0.00     0.038 C 
ATOM      4  C   LIG d   1      -0.547  76.360 117.277  0.00  0.00     0.028 C 
ATOM      5  C   LIG d   1      -0.119  77.168 116.057  0.00  0.00    -0.047 C 
ATOM      6  C   LIG d   1      -1.380  77.624 115.288  0.00  0.00     0.091 C 
ENDROOT
BRANCH   1   7
ATOM      7  O   LIG d   1      -3.616  76.881 114.614  0.00  0.00    -0.368 OA
BRANCH   7   8
ATOM      8  C   LIG d   1      -4.587  76.748 115.682  0.00  0.00     0.119 C 
BRANCH   8   9
ATOM      9  C   LIG d   1      -5.886  76.200 115.060  0.00  0.00     0.028 C 
ATOM     10  C   LIG d   1      -5.658  75.591 113.666  0.00  0.00     0.006 C 
ENDBRANCH   8   9
BRANCH   8  11
ATOM     11  C   LIG d   1      -4.962  78.114 116.266  0.00  0.00     0.028 C 
ATOM     12  C   LIG d   1      -4.218  78.426 117.574  0.00  0.00     0.006 C 
ENDBRANCH   8  11
ENDBRANCH   7   8
ENDBRANCH   1   7
BRANCH   6  13
ATOM     13  N   LIG d   1      -1.049  78.349 114.034  0.00  0.00    -0.311 N 
ATOM     14  C   LIG d   1      -1.702  79.432 113.619  0.00  0.00     0.210 C 
ATOM     15  C   LIG d   1      -1.212  80.013 112.289  0.00  0.00     0.109 C 
ATOM     16  O   LIG d   1      -2.620  79.987 114.243  0.00  0.00    -0.276 OA
ATOM     17  H   LIG d   1      -0.296  77.986 113.483  0.00  0.00     0.149 HD
ENDBRANCH   6  13
BRANCH   5  18
ATOM     18  N   LIG d   1       0.706  78.294 116.535  0.00  0.00     0.381 N 
ATOM     19  H   LIG d   1       1.550  78.346 116.001  0.00  0.00    -0.090 HD
ATOM     20  H   LIG d   1       0.949  78.133 117.496  0.00  0.00    -0.090 HD
ATOM     21  H   LIG d   1       0.198  79.147 116.451  0.00  0.00    -0.090 HD
ENDBRANCH   5  18
BRANCH   3  22
ATOM     22  C   LIG d   1      -1.430  74.187 117.763  0.00  0.00     0.382 C 
ATOM     23  O   LIG d   1      -0.912  73.130 117.328  0.00  0.00    -0.241 OA
ATOM     24  O   LIG d   1      -1.966  74.190 118.888  0.00  0.00    -0.241 OA
ENDBRANCH   3  22
TORSDOF 7
ENDMDL
