MODEL 1
REMARK VINA RESULT:      -5.3      0.000      0.000
REMARK  7 active torsions:
REMARK  status: ('A' for Active; 'I' for Inactive)
REMARK    1  A    between atoms: C_2  and  C_3 
REMARK    2  A    between atoms: C_3  and  O_6 
REMARK    3  A    between atoms: C_3  and  C_4 
REMARK    4  A    between atoms: C_7  and  O_6 
REMARK    5  A    between atoms: C_9  and  C_10 
REMARK    6  A    between atoms: N_15  and  C_14 
REMARK    7  A    between atoms: N_20  and  C_19 
REMARK       I    between atoms: C_22  and  N_20 
ROOT
ATOM      1  C   LIG d   1      -5.188  75.399 117.752  0.00  0.00     0.161 C 
ATOM      2  C   LIG d   1      -5.352  74.031 117.475  0.00  0.00     0.016 C 
ATOM      3  C   LIG d   1      -6.614  73.419 117.296  0.00  0.00     0.038 C 
ATOM      4  C   LIG d   1      -7.799  74.168 117.231  0.00  0.00     0.028 C 
ATOM      5  C   LIG d   1      -7.730  75.479 118.007  0.00  0.00    -0.047 C 
ATOM      6  C   LIG d   1      -6.462  76.251 117.575  0.00  0.00     0.091 C 
ENDROOT
BRANCH   1   7
ATOM      7  O   LIG d   1      -4.113  75.933 116.955  0.00  0.00    -0.368 OA
BRANCH   7   8
ATOM      8  C   LIG d   1      -3.820  75.227 115.725  0.00  0.00     0.119 C 
BRANCH   8   9
ATOM      9  C   LIG d   1      -2.288  75.195 115.563  0.00  0.00     0.028 C 
ATOM     10  C   LIG d   1      -1.594  74.416 116.693  0.00  0.00     0.006 C 
ENDBRANCH   8   9
BRANCH   8  11
ATOM     11  C   LIG d   1      -4.341  75.993 114.505  0.00  0.00     0.028 C 
ATOM     12  C   LIG d   1      -5.664  75.428 113.967  0.00  0.00     0.006 C 
ENDBRANCH   8  11
ENDBRANCH   7   8
ENDBRANCH   1   7
BRANCH   6  13
ATOM     13  N   LIG d   1      -6.273  77.507 118.347  0.00  0.00    -0.311 N 
ATOM     14  C   LIG d   1      -5.933  78.667 117.788  0.00  0.00     0.210 C 
ATOM     15  C   LIG d   1      -5.771  79.834 118.767  0.00  0.00     0.109 C 
ATOM     16  O   LIG d   1      -5.782  78.848 116.570  0.00  0.00    -0.276 OA
ATOM     17  H   LIG d   1      -6.407  77.458 119.338  0.00  0.00     0.149 HD
ENDBRANCH   6  13
BRANCH   5  18
ATOM     18  N   LIG d   1      -8.977  76.220 117.741  0.00  0.00     0.381 N 
ATOM     19  H   LIG d   1      -9.676  75.594 117.394  0.00  0.00    -0.090 HD
ATOM     20  H   LIG d   1      -8.799  76.915 117.037  0.00  0.00    -0.090 HD
ATOM     21  H   LIG d   1      -9.298  76.658 118.576  0.00  0.00    -0.090 HD
ENDBRANCH   5  18
BRANCH   3  22
ATOM     22  C   LIG d   1      -6.703  72.038 117.218  0.00  0.00     0.382 C 
ATOM     23  O   LIG d   1      -7.826  71.487 117.114  0.00  0.00    -0.241 OA
ATOM     24  O   LIG d   1      -5.679  71.333 117.296  0.00  0.00    -0.241 OA
ENDBRANCH   3  22
TORSDOF 7
ENDMDL
MODEL 2
REMARK VINA RESULT:      -5.2      2.270      4.495
REMARK  7 active torsions:
REMARK  status: ('A' for Active; 'I' for Inactive)
REMARK    1  A    between atoms: C_2  and  C_3 
REMARK    2  A    between atoms: C_3  and  O_6 
REMARK    3  A    between atoms: C_3  and  C_4 
REMARK    4  A    between atoms: C_7  and  O_6 
REMARK    5  A    between atoms: C_9  and  C_10 
REMARK    6  A    between atoms: N_15  and  C_14 
REMARK    7  A    between atoms: N_20  and  C_19 
REMARK       I    between atoms: C_22  and  N_20 
ROOT
ATOM      1  C   LIG d   1      -5.321  75.032 118.040  0.00  0.00     0.161 C 
ATOM      2  C   LIG d   1      -6.668  75.432 118.051  0.00  0.00     0.016 C 
ATOM      3  C   LIG d   1      -7.081  76.775 117.889  0.00  0.00     0.038 C 
ATOM      4  C   LIG d   1      -6.178  77.793 117.552  0.00  0.00     0.028 C 
ATOM      5  C   LIG d   1      -4.755  77.523 118.029  0.00  0.00    -0.047 C 
ATOM      6  C   LIG d   1      -4.329  76.113 117.563  0.00  0.00     0.091 C 
ENDROOT
BRANCH   1   7
ATOM      7  O   LIG d   1      -5.174  73.834 117.252  0.00  0.00    -0.368 OA
BRANCH   7   8
ATOM      8  C   LIG d   1      -6.081  73.693 116.131  0.00  0.00     0.119 C 
BRANCH   8   9
ATOM      9  C   LIG d   1      -6.485  72.208 116.046  0.00  0.00     0.028 C 
ATOM     10  C   LIG d   1      -7.594  71.843 117.047  0.00  0.00     0.006 C 
ENDBRANCH   8   9
BRANCH   8  11
ATOM     11  C   LIG d   1      -5.380  73.999 114.804  0.00  0.00     0.028 C 
ATOM     12  C   LIG d   1      -5.780  75.363 114.220  0.00  0.00     0.006 C 
ENDBRANCH   8  11
ENDBRANCH   7   8
ENDBRANCH   1   7
BRANCH   6  13
ATOM     13  N   LIG d   1      -2.980  75.735 118.059  0.00  0.00    -0.311 N 
ATOM     14  C   LIG d   1      -2.048  75.172 117.292  0.00  0.00     0.210 C 
ATOM     15  C   LIG d   1      -0.733  74.844 118.007  0.00  0.00     0.109 C 
ATOM     16  O   LIG d   1      -2.173  74.941 116.080  0.00  0.00    -0.276 OA
ATOM     17  H   LIG d   1      -2.782  75.915 119.024  0.00  0.00     0.149 HD
ENDBRANCH   6  13
BRANCH   5  18
ATOM     18  N   LIG d   1      -3.894  78.594 117.492  0.00  0.00     0.381 N 
ATOM     19  H   LIG d   1      -4.110  79.461 117.944  0.00  0.00    -0.090 HD
ATOM     20  H   LIG d   1      -4.077  78.697 116.509  0.00  0.00    -0.090 HD
ATOM     21  H   LIG d   1      -2.935  78.366 117.637  0.00  0.00    -0.090 HD
ENDBRANCH   5  18
BRANCH   3  22
ATOM     22  C   LIG d   1      -8.408  77.115 118.104  0.00  0.00     0.382 C 
ATOM     23  O   LIG d   1      -9.292  76.225 118.107  0.00  0.00    -0.241 OA
ATOM     24  O   LIG d   1      -8.738  78.307 118.251  0.00  0.00    -0.241 OA
ENDBRANCH   3  22
TORSDOF 7
ENDMDL
MODEL 3
REMARK VINA RESULT:      -5.1      2.111      4.819
REMARK  7 active torsions:
REMARK  status: ('A' for Active; 'I' for Inactive)
REMARK    1  A    between atoms: C_2  and  C_3 
REMARK    2  A    between atoms: C_3  and  O_6 
REMARK    3  A    between atoms: C_3  and  C_4 
REMARK    4  A    between atoms: C_7  and  O_6 
REMARK    5  A    between atoms: C_9  and  C_10 
REMARK    6  A    between atoms: N_15  and  C_14 
REMARK    7  A    between atoms: N_20  and  C_19 
REMARK       I    between atoms: C_22  and  N_20 
ROOT
ATOM      1  C   LIG d   1      -4.346  75.136 116.731  0.00  0.00     0.161 C 
ATOM      2  C   LIG d   1      -3.254  74.628 116.009  0.00  0.00     0.016 C 
ATOM      3  C   LIG d   1      -1.931  75.103 116.161  0.00  0.00     0.038 C 
ATOM      4  C   LIG d   1      -1.584  76.022 117.162  0.00  0.00     0.028 C 
ATOM      5  C   LIG d   1      -2.736  76.932 117.575  0.00  0.00    -0.047 C 
ATOM      6  C   LIG d   1      -3.969  76.061 117.907  0.00  0.00     0.091 C 
ENDROOT
BRANCH   1   7
ATOM      7  O   LIG d   1      -5.174  74.050 117.193  0.00  0.00    -0.368 OA
BRANCH   7   8
ATOM      8  C   LIG d   1      -6.389  73.811 116.442  0.00  0.00     0.119 C 
BRANCH   8   9
ATOM      9  C   LIG d   1      -7.574  74.241 117.328  0.00  0.00     0.028 C 
ATOM     10  C   LIG d   1      -8.449  75.314 116.659  0.00  0.00     0.006 C 
ENDBRANCH   8   9
BRANCH   8  11
ATOM     11  C   LIG d   1      -6.599  72.316 116.182  0.00  0.00     0.028 C 
ATOM     12  C   LIG d   1      -7.605  71.678 117.153  0.00  0.00     0.006 C 
ENDBRANCH   8  11
ENDBRANCH   7   8
ENDBRANCH   1   7
BRANCH   6  13
ATOM     13  N   LIG d   1      -5.166  76.876 118.239  0.00  0.00    -0.311 N 
ATOM     14  C   LIG d   1      -5.762  77.691 117.371  0.00  0.00     0.210 C 
ATOM     15  C   LIG d   1      -6.970  78.455 117.924  0.00  0.00     0.109 C 
ATOM     16  O   LIG d   1      -5.425  77.830 116.185  0.00  0.00    -0.276 OA
ATOM     17  H   LIG d   1      -5.526  76.801 119.171  0.00  0.00     0.149 HD
ENDBRANCH   6  13
BRANCH   5  18
ATOM     18  N   LIG d   1      -2.276  77.743 118.718  0.00  0.00     0.381 N 
ATOM     19  H   LIG d   1      -1.984  78.645 118.397  0.00  0.00    -0.090 HD
ATOM     20  H   LIG d   1      -1.488  77.288 119.143  0.00  0.00    -0.090 HD
ATOM     21  H   LIG d   1      -3.011  77.842 119.383  0.00  0.00    -0.090 HD
ENDBRANCH   5  18
BRANCH   3  22
ATOM     22  C   LIG d   1      -0.946  74.688 115.278  0.00  0.00     0.382 C 
ATOM     23  O   LIG d   1      -0.808  75.268 114.174  0.00  0.00    -0.241 OA
ATOM     24  O   LIG d   1      -0.222  73.712 115.553  0.00  0.00    -0.241 OA
ENDBRANCH   3  22
TORSDOF 7
ENDMDL
MODEL 4
REMARK VINA RESULT:      -5.0      2.755      3.743
REMARK  7 active torsions:
REMARK  status: ('A' for Active; 'I' for Inactive)
REMARK    1  A    between atoms: C_2  and  C_3 
REMARK    2  A    between atoms: C_3  and  O_6 
REMARK    3  A    between atoms: C_3  and  C_4 
REMARK    4  A    between atoms: C_7  and  O_6 
REMARK    5  A    between atoms: C_9  and  C_10 
REMARK    6  A    between atoms: N_15  and  C_14 
REMARK    7  A    between atoms: N_20  and  C_19 
REMARK       I    between atoms: C_22  and  N_20 
ROOT
ATOM      1  C   LIG d   1      -3.690  75.801 116.499  0.00  0.00     0.161 C 
ATOM      2  C   LIG d   1      -4.370  74.747 117.131  0.00  0.00     0.016 C 
ATOM      3  C   LIG d   1      -5.401  74.003 116.512  0.00  0.00     0.038 C 
ATOM      4  C   LIG d   1      -5.719  74.165 115.155  0.00  0.00     0.028 C 
ATOM      5  C   LIG d   1      -5.406  75.559 114.621  0.00  0.00    -0.047 C 
ATOM      6  C   LIG d   1      -3.947  75.918 114.982  0.00  0.00     0.091 C 
ENDROOT
BRANCH   1   7
ATOM      7  O   LIG d   1      -2.276  75.696 116.761  0.00  0.00    -0.368 OA
BRANCH   7   8
ATOM      8  C   LIG d   1      -1.592  74.584 116.133  0.00  0.00     0.119 C 
BRANCH   8   9
ATOM      9  C   LIG d   1      -0.750  73.887 117.219  0.00  0.00     0.028 C 
ATOM     10  C   LIG d   1      -0.439  74.814 118.406  0.00  0.00     0.006 C 
ENDBRANCH   8   9
BRANCH   8  11
ATOM     11  C   LIG d   1      -0.584  75.068 115.087  0.00  0.00     0.028 C 
ATOM     12  C   LIG d   1       0.298  73.935 114.540  0.00  0.00     0.006 C 
ENDBRANCH   8  11
ENDBRANCH   7   8
ENDBRANCH   1   7
BRANCH   6  13
ATOM     13  N   LIG d   1      -3.585  77.300 114.570  0.00  0.00    -0.311 N 
ATOM     14  C   LIG d   1      -3.022  77.592 113.399  0.00  0.00     0.210 C 
ATOM     15  C   LIG d   1      -2.712  79.077 113.183  0.00  0.00     0.109 C 
ATOM     16  O   LIG d   1      -2.779  76.767 112.505  0.00  0.00    -0.276 OA
ATOM     17  H   LIG d   1      -3.776  78.035 115.222  0.00  0.00     0.149 HD
ENDBRANCH   6  13
BRANCH   5  18
ATOM     18  N   LIG d   1      -5.657  75.546 113.168  0.00  0.00     0.381 N 
ATOM     19  H   LIG d   1      -6.354  76.226 112.938  0.00  0.00    -0.090 HD
ATOM     20  H   LIG d   1      -6.002  74.640 112.905  0.00  0.00    -0.090 HD
ATOM     21  H   LIG d   1      -4.814  75.744 112.675  0.00  0.00    -0.090 HD
ENDBRANCH   5  18
BRANCH   3  22
ATOM     22  C   LIG d   1      -6.152  73.113 117.263  0.00  0.00     0.382 C 
ATOM     23  O   LIG d   1      -7.365  73.346 117.483  0.00  0.00    -0.241 OA
ATOM     24  O   LIG d   1      -5.622  72.101 117.760  0.00  0.00    -0.241 OA
ENDBRANCH   3  22
TORSDOF 7
ENDMDL
MODEL 5
REMARK VINA RESULT:      -4.9      2.530      5.399
REMARK  7 active torsions:
REMARK  status: ('A' for Active; 'I' for Inactive)
REMARK    1  A    between atoms: C_2  and  C_3 
REMARK    2  A    between atoms: C_3  and  O_6 
REMARK    3  A    between atoms: C_3  and  C_4 
REMARK    4  A    between atoms: C_7  and  O_6 
REMARK    5  A    between atoms: C_9  and  C_10 
REMARK    6  A    between atoms: N_15  and  C_14 
REMARK    7  A    between atoms: N_20  and  C_19 
REMARK       I    between atoms: C_22  and  N_20 
ROOT
ATOM      1  C   LIG d   1      -5.155  76.045 118.561  0.00  0.00     0.161 C 
ATOM      2  C   LIG d   1      -6.189  76.981 118.731  0.00  0.00     0.016 C 
ATOM      3  C   LIG d   1      -6.314  78.152 117.948  0.00  0.00     0.038 C 
ATOM      4  C   LIG d   1      -5.494  78.392 116.836  0.00  0.00     0.028 C 
ATOM      5  C   LIG d   1      -4.125  77.728 116.938  0.00  0.00    -0.047 C 
ATOM      6  C   LIG d   1      -4.316  76.233 117.280  0.00  0.00     0.091 C 
ENDROOT
BRANCH   1   7
ATOM      7  O   LIG d   1      -5.692  74.708 118.617  0.00  0.00    -0.368 OA
BRANCH   7   8
ATOM      8  C   LIG d   1      -6.210  74.178 117.372  0.00  0.00     0.119 C 
BRANCH   8   9
ATOM      9  C   LIG d   1      -7.748  74.198 117.466  0.00  0.00     0.028 C 
ATOM     10  C   LIG d   1      -8.375  75.294 116.588  0.00  0.00     0.006 C 
ENDBRANCH   8   9
BRANCH   8  11
ATOM     11  C   LIG d   1      -5.834  72.704 117.195  0.00  0.00     0.028 C 
ATOM     12  C   LIG d   1      -7.059  71.793 117.017  0.00  0.00     0.006 C 
ENDBRANCH   8  11
ENDBRANCH   7   8
ENDBRANCH   1   7
BRANCH   6  13
ATOM     13  N   LIG d   1      -3.023  75.528 117.481  0.00  0.00    -0.311 N 
ATOM     14  C   LIG d   1      -2.390  74.867 116.514  0.00  0.00     0.210 C 
ATOM     15  C   LIG d   1      -1.081  74.194 116.940  0.00  0.00     0.109 C 
ATOM     16  O   LIG d   1      -2.772  74.800 115.336  0.00  0.00    -0.276 OA
ATOM     17  H   LIG d   1      -2.625  75.558 118.400  0.00  0.00     0.149 HD
ENDBRANCH   6  13
BRANCH   5  18
ATOM     18  N   LIG d   1      -3.428  77.944 115.656  0.00  0.00     0.381 N 
ATOM     19  H   LIG d   1      -3.958  78.571 115.084  0.00  0.00    -0.090 HD
ATOM     20  H   LIG d   1      -3.353  77.065 115.175  0.00  0.00    -0.090 HD
ATOM     21  H   LIG d   1      -2.520  78.320 115.820  0.00  0.00    -0.090 HD
ENDBRANCH   5  18
BRANCH   3  22
ATOM     22  C   LIG d   1      -7.244  79.118 118.302  0.00  0.00     0.382 C 
ATOM     23  O   LIG d   1      -7.978  78.945 119.305  0.00  0.00    -0.241 OA
ATOM     24  O   LIG d   1      -7.388  80.140 117.605  0.00  0.00    -0.241 OA
ENDBRANCH   3  22
TORSDOF 7
ENDMDL
MODEL 6
REMARK VINA RESULT:      -4.9      2.726      5.360
REMARK  7 active torsions:
REMARK  status: ('A' for Active; 'I' for Inactive)
REMARK    1  A    between atoms: C_2  and  C_3 
REMARK    2  A    between atoms: C_3  and  O_6 
REMARK    3  A    between atoms: C_3  and  C_4 
REMARK    4  A    between atoms: C_7  and  O_6 
REMARK    5  A    between atoms: C_9  and  C_10 
REMARK    6  A    between atoms: N_15  and  C_14 
REMARK    7  A    between atoms: N_20  and  C_19 
REMARK       I    between atoms: C_22  and  N_20 
ROOT
ATOM      1  C   LIG d   1      -5.072  75.254 115.915  0.00  0.00     0.161 C 
ATOM      2  C   LIG d   1      -5.782  75.417 114.714  0.00  0.00     0.016 C 
ATOM      3  C   LIG d   1      -5.253  76.078 113.581  0.00  0.00     0.038 C 
ATOM      4  C   LIG d   1      -3.914  76.492 113.523  0.00  0.00     0.028 C 
ATOM      5  C   LIG d   1      -3.314  76.799 114.891  0.00  0.00    -0.047 C 
ATOM      6  C   LIG d   1      -3.571  75.601 115.832  0.00  0.00     0.091 C 
ENDROOT
BRANCH   1   7
ATOM      7  O   LIG d   1      -5.250  73.912 116.409  0.00  0.00    -0.368 OA
BRANCH   7   8
ATOM      8  C   LIG d   1      -6.127  73.765 117.553  0.00  0.00     0.119 C 
BRANCH   8   9
ATOM      9  C   LIG d   1      -7.456  73.173 117.045  0.00  0.00     0.028 C 
ATOM     10  C   LIG d   1      -7.475  71.636 117.104  0.00  0.00     0.006 C 
ENDBRANCH   8   9
BRANCH   8  11
ATOM     11  C   LIG d   1      -6.492  75.125 118.154  0.00  0.00     0.028 C 
ATOM     12  C   LIG d   1      -8.006  75.388 118.158  0.00  0.00     0.006 C 
ENDBRANCH   8  11
ENDBRANCH   7   8
ENDBRANCH   1   7
BRANCH   6  13
ATOM     13  N   LIG d   1      -3.090  75.853 117.216  0.00  0.00    -0.311 N 
ATOM     14  C   LIG d   1      -1.878  75.507 117.645  0.00  0.00     0.210 C 
ATOM     15  C   LIG d   1      -1.593  75.841 119.113  0.00  0.00     0.109 C 
ATOM     16  O   LIG d   1      -1.001  74.983 116.942  0.00  0.00    -0.276 OA
ATOM     17  H   LIG d   1      -3.727  76.302 117.845  0.00  0.00     0.149 HD
ENDBRANCH   6  13
BRANCH   5  18
ATOM     18  N   LIG d   1      -1.880  77.084 114.695  0.00  0.00     0.381 N 
ATOM     19  H   LIG d   1      -1.480  77.411 115.552  0.00  0.00    -0.090 HD
ATOM     20  H   LIG d   1      -1.783  77.808 114.005  0.00  0.00    -0.090 HD
ATOM     21  H   LIG d   1      -1.407  76.261 114.392  0.00  0.00    -0.090 HD
ENDBRANCH   5  18
BRANCH   3  22
ATOM     22  C   LIG d   1      -6.079  76.367 112.506  0.00  0.00     0.382 C 
ATOM     23  O   LIG d   1      -5.581  76.712 111.407  0.00  0.00    -0.241 OA
ATOM     24  O   LIG d   1      -7.318  76.332 112.634  0.00  0.00    -0.241 OA
ENDBRANCH   3  22
TORSDOF 7
ENDMDL
MODEL 7
REMARK VINA RESULT:      -4.9     14.220     17.418
REMARK  7 active torsions:
REMARK  status: ('A' for Active; 'I' for Inactive)
REMARK    1  A    between atoms: C_2  and  C_3 
REMARK    2  A    between atoms: C_3  and  O_6 
REMARK    3  A    between atoms: C_3  and  C_4 
REMARK    4  A    between atoms: C_7  and  O_6 
REMARK    5  A    between atoms: C_9  and  C_10 
REMARK    6  A    between atoms: N_15  and  C_14 
REMARK    7  A    between atoms: N_20  and  C_19 
REMARK       I    between atoms: C_22  and  N_20 
ROOT
ATOM      1  C   LIG d   1       3.368  88.533 115.200  0.00  0.00     0.161 C 
ATOM      2  C   LIG d   1       3.769  89.429 116.205  0.00  0.00     0.016 C 
ATOM      3  C   LIG d   1       4.921  90.243 116.107  0.00  0.00     0.038 C 
ATOM      4  C   LIG d   1       5.672  90.326 114.925  0.00  0.00     0.028 C 
ATOM      5  C   LIG d   1       5.597  89.066 114.070  0.00  0.00    -0.047 C 
ATOM      6  C   LIG d   1       4.113  88.691 113.858  0.00  0.00     0.091 C 
ENDROOT
BRANCH   1   7
ATOM      7  O   LIG d   1       1.945  88.630 114.998  0.00  0.00    -0.368 OA
BRANCH   7   8
ATOM      8  C   LIG d   1       1.120  88.444 116.175  0.00  0.00     0.119 C 
BRANCH   8   9
ATOM      9  C   LIG d   1       0.190  87.246 115.903  0.00  0.00     0.028 C 
ATOM     10  C   LIG d   1       0.662  86.394 114.713  0.00  0.00     0.006 C 
ENDBRANCH   8   9
BRANCH   8  11
ATOM     11  C   LIG d   1       0.188  89.639 116.396  0.00  0.00     0.028 C 
ATOM     12  C   LIG d   1      -0.068  89.928 117.884  0.00  0.00     0.006 C 
ENDBRANCH   8  11
ENDBRANCH   7   8
ENDBRANCH   1   7
BRANCH   6  13
ATOM     13  N   LIG d   1       3.951  87.422 113.101  0.00  0.00    -0.311 N 
ATOM     14  C   LIG d   1       3.132  87.289 112.059  0.00  0.00     0.210 C 
ATOM     15  C   LIG d   1       3.101  85.891 111.435  0.00  0.00     0.109 C 
ATOM     16  O   LIG d   1       2.453  88.206 111.572  0.00  0.00    -0.276 OA
ATOM     17  H   LIG d   1       4.488  86.636 113.409  0.00  0.00     0.149 HD
ENDBRANCH   6  13
BRANCH   5  18
ATOM     18  N   LIG d   1       6.310  89.341 112.808  0.00  0.00     0.381 N 
ATOM     19  H   LIG d   1       6.458  88.486 112.310  0.00  0.00    -0.090 HD
ATOM     20  H   LIG d   1       7.207  89.741 113.022  0.00  0.00    -0.090 HD
ATOM     21  H   LIG d   1       5.781  89.973 112.248  0.00  0.00    -0.090 HD
ENDBRANCH   5  18
BRANCH   3  22
ATOM     22  C   LIG d   1       5.356  90.955 117.215  0.00  0.00     0.382 C 
ATOM     23  O   LIG d   1       4.653  91.887 117.676  0.00  0.00    -0.241 OA
ATOM     24  O   LIG d   1       6.461  90.706 117.732  0.00  0.00    -0.241 OA
ENDBRANCH   3  22
TORSDOF 7
ENDMDL
MODEL 8
REMARK VINA RESULT:      -4.8     13.473     16.673
REMARK  7 active torsions:
REMARK  status: ('A' for Active; 'I' for Inactive)
REMARK    1  A    between atoms: C_2  and  C_3 
REMARK    2  A    between atoms: C_3  and  O_6 
REMARK    3  A    between atoms: C_3  and  C_4 
REMARK    4  A    between atoms: C_7  and  O_6 
REMARK    5  A    between atoms: C_9  and  C_10 
REMARK    6  A    between atoms: N_15  and  C_14 
REMARK    7  A    between atoms: N_20  and  C_19 
REMARK       I    between atoms: C_22  and  N_20 
ROOT
ATOM      1  C   LIG d   1       3.123  88.027 114.921  0.00  0.00     0.161 C 
ATOM      2  C   LIG d   1       3.230  89.142 115.769  0.00  0.00     0.016 C 
ATOM      3  C   LIG d   1       4.283  90.082 115.690  0.00  0.00     0.038 C 
ATOM      4  C   LIG d   1       5.226  90.053 114.652  0.00  0.00     0.028 C 
ATOM      5  C   LIG d   1       5.450  88.659 114.076  0.00  0.00    -0.047 C 
ATOM      6  C   LIG d   1       4.081  88.041 113.711  0.00  0.00     0.091 C 
ENDROOT
BRANCH   1   7
ATOM      7  O   LIG d   1       1.760  87.879 114.478  0.00  0.00    -0.368 OA
BRANCH   7   8
ATOM      8  C   LIG d   1       0.972  86.876 115.166  0.00  0.00     0.119 C 
BRANCH   8   9
ATOM      9  C   LIG d   1       1.954  85.922 115.874  0.00  0.00     0.028 C 
ATOM     10  C   LIG d   1       1.647  85.771 117.373  0.00  0.00     0.006 C 
ENDBRANCH   8   9
BRANCH   8  11
ATOM     11  C   LIG d   1       0.199  86.000 114.176  0.00  0.00     0.028 C 
ATOM     12  C   LIG d   1       0.845  84.620 113.970  0.00  0.00     0.006 C 
ENDBRANCH   8  11
ENDBRANCH   7   8
ENDBRANCH   1   7
BRANCH   6  13
ATOM     13  N   LIG d   1       4.203  86.644 113.219  0.00  0.00    -0.311 N 
ATOM     14  C   LIG d   1       3.648  86.215 112.087  0.00  0.00     0.210 C 
ATOM     15  C   LIG d   1       3.880  84.734 111.774  0.00  0.00     0.109 C 
ATOM     16  O   LIG d   1       3.013  86.929 111.296  0.00  0.00    -0.276 OA
ATOM     17  H   LIG d   1       4.729  86.006 113.783  0.00  0.00     0.149 HD
ENDBRANCH   6  13
BRANCH   5  18
ATOM     18  N   LIG d   1       6.350  88.797 112.915  0.00  0.00     0.381 N 
ATOM     19  H   LIG d   1       6.619  89.754 112.806  0.00  0.00    -0.090 HD
ATOM     20  H   LIG d   1       5.858  88.510 112.087  0.00  0.00    -0.090 HD
ATOM     21  H   LIG d   1       7.160  88.230 113.042  0.00  0.00    -0.090 HD
ENDBRANCH   5  18
BRANCH   3  22
ATOM     22  C   LIG d   1       4.424  91.042 116.681  0.00  0.00     0.382 C 
ATOM     23  O   LIG d   1       3.653  92.032 116.709  0.00  0.00    -0.241 OA
ATOM     24  O   LIG d   1       5.339  90.953 117.522  0.00  0.00    -0.241 OA
ENDBRANCH   3  22
TORSDOF 7
ENDMDL
MODEL 9
REMARK VINA RESULT:      -4.7     13.406     16.073
REMARK  7 active torsions:
REMARK  status: ('A' for Active; 'I' for Inactive)
REMARK    1  A    between atoms: C_2  and  C_3 
REMARK    2  A    between atoms: C_3  and  O_6 
REMARK    3  A    between atoms: C_3  and  C_4 
REMARK    4  A    between atoms: C_7  and  O_6 
REMARK    5  A    between atoms: C_9  and  C_10 
REMARK    6  A    between atoms: N_15  and  C_14 
REMARK    7  A    between atoms: N_20  and  C_19 
REMARK       I    between atoms: C_22  and  N_20 
ROOT
ATOM      1  C   LIG d   1       1.420  88.789 116.199  0.00  0.00     0.161 C 
ATOM      2  C   LIG d   1       0.095  88.905 116.651  0.00  0.00     0.016 C 
ATOM      3  C   LIG d   1      -0.409  90.059 117.294  0.00  0.00     0.038 C 
ATOM      4  C   LIG d   1       0.342  91.240 117.394  0.00  0.00     0.028 C 
ATOM      5  C   LIG d   1       1.848  91.001 117.404  0.00  0.00    -0.047 C 
ATOM      6  C   LIG d   1       2.222  90.107 116.199  0.00  0.00     0.091 C 
ENDROOT
BRANCH   1   7
ATOM      7  O   LIG d   1       1.438  88.193 114.886  0.00  0.00    -0.368 OA
BRANCH   7   8
ATOM      8  C   LIG d   1       1.683  86.765 114.838  0.00  0.00     0.119 C 
BRANCH   8   9
ATOM      9  C   LIG d   1       3.011  86.548 114.088  0.00  0.00     0.028 C 
ATOM     10  C   LIG d   1       3.002  87.177 112.685  0.00  0.00     0.006 C 
ENDBRANCH   8   9
BRANCH   8  11
ATOM     11  C   LIG d   1       0.621  86.046 114.001  0.00  0.00     0.028 C 
ATOM     12  C   LIG d   1      -0.646  85.711 114.804  0.00  0.00     0.006 C 
ENDBRANCH   8  11
ENDBRANCH   7   8
ENDBRANCH   1   7
BRANCH   6  13
ATOM     13  N   LIG d   1       3.666  89.756 116.181  0.00  0.00    -0.311 N 
ATOM     14  C   LIG d   1       4.436  89.875 115.101  0.00  0.00     0.210 C 
ATOM     15  C   LIG d   1       5.892  89.438 115.294  0.00  0.00     0.109 C 
ATOM     16  O   LIG d   1       4.059  90.330 114.011  0.00  0.00    -0.276 OA
ATOM     17  H   LIG d   1       4.061  89.407 117.033  0.00  0.00     0.149 HD
ENDBRANCH   6  13
BRANCH   5  18
ATOM     18  N   LIG d   1       2.508  92.320 117.373  0.00  0.00     0.381 N 
ATOM     19  H   LIG d   1       1.848  93.023 117.109  0.00  0.00    -0.090 HD
ATOM     20  H   LIG d   1       3.240  92.301 116.685  0.00  0.00    -0.090 HD
ATOM     21  H   LIG d   1       2.890  92.531 118.268  0.00  0.00    -0.090 HD
ENDBRANCH   5  18
BRANCH   3  22
ATOM     22  C   LIG d   1      -1.665  90.025 117.881  0.00  0.00     0.382 C 
ATOM     23  O   LIG d   1      -2.675  89.765 117.185  0.00  0.00    -0.241 OA
ATOM     24  O   LIG d   1      -1.805  90.295 119.089  0.00  0.00    -0.241 OA
ENDBRANCH   3  22
TORSDOF 7
ENDMDL
