MODEL 1
REMARK VINA RESULT:      -5.6      0.000      0.000
REMARK  7 active torsions:
REMARK  status: ('A' for Active; 'I' for Inactive)
REMARK    1  A    between atoms: C_2  and  C_3 
REMARK    2  A    between atoms: C_3  and  O_6 
REMARK    3  A    between atoms: C_3  and  C_4 
REMARK    4  A    between atoms: C_7  and  O_6 
REMARK    5  A    between atoms: C_9  and  C_10 
REMARK    6  A    between atoms: N_15  and  C_14 
REMARK    7  A    between atoms: N_20  and  C_19 
REMARK       I    between atoms: C_22  and  N_20 
ROOT
ATOM      1  C   LIG d   1      -3.100  76.393 115.716  0.00  0.00     0.161 C 
ATOM      2  C   LIG d   1      -3.493  77.089 114.561  0.00  0.00     0.016 C 
ATOM      3  C   LIG d   1      -2.594  77.466 113.537  0.00  0.00     0.038 C 
ATOM      4  C   LIG d   1      -1.259  77.036 113.527  0.00  0.00     0.028 C 
ATOM      5  C   LIG d   1      -0.701  76.762 114.919  0.00  0.00    -0.047 C 
ATOM      6  C   LIG d   1      -1.669  75.819 115.671  0.00  0.00     0.091 C 
ENDROOT
BRANCH   1   7
ATOM      7  O   LIG d   1      -4.050  75.348 116.003  0.00  0.00    -0.368 OA
BRANCH   7   8
ATOM      8  C   LIG d   1      -5.232  75.313 115.165  0.00  0.00     0.119 C 
BRANCH   8   9
ATOM      9  C   LIG d   1      -6.456  75.207 116.095  0.00  0.00     0.028 C 
ATOM     10  C   LIG d   1      -6.553  76.389 117.074  0.00  0.00     0.006 C 
ENDBRANCH   8   9
BRANCH   8  11
ATOM     11  C   LIG d   1      -5.266  74.046 114.304  0.00  0.00     0.028 C 
ATOM     12  C   LIG d   1      -5.917  72.854 115.023  0.00  0.00     0.006 C 
ENDBRANCH   8  11
ENDBRANCH   7   8
ENDBRANCH   1   7
BRANCH   6  13
ATOM     13  N   LIG d   1      -1.241  75.567 117.071  0.00  0.00    -0.311 N 
ATOM     14  C   LIG d   1      -0.472  74.540 117.429  0.00  0.00     0.210 C 
ATOM     15  C   LIG d   1      -0.165  74.453 118.927  0.00  0.00     0.109 C 
ATOM     16  O   LIG d   1       0.012  73.711 116.643  0.00  0.00    -0.276 OA
ATOM     17  H   LIG d   1      -1.562  76.208 117.769  0.00  0.00     0.149 HD
ENDBRANCH   6  13
BRANCH   5  18
ATOM     18  N   LIG d   1       0.649  76.191 114.754  0.00  0.00     0.381 N 
ATOM     19  H   LIG d   1       0.835  76.037 113.783  0.00  0.00    -0.090 HD
ATOM     20  H   LIG d   1       0.688  75.305 115.227  0.00  0.00    -0.090 HD
ATOM     21  H   LIG d   1       1.330  76.810 115.136  0.00  0.00    -0.090 HD
ENDBRANCH   5  18
BRANCH   3  22
ATOM     22  C   LIG d   1      -3.020  78.315 112.526  0.00  0.00     0.382 C 
ATOM     23  O   LIG d   1      -2.740  79.537 112.575  0.00  0.00    -0.241 OA
ATOM     24  O   LIG d   1      -3.719  77.882 111.590  0.00  0.00    -0.241 OA
ENDBRANCH   3  22
TORSDOF 7
ENDMDL
MODEL 2
REMARK VINA RESULT:      -5.5      1.842      5.005
REMARK  7 active torsions:
REMARK  status: ('A' for Active; 'I' for Inactive)
REMARK    1  A    between atoms: C_2  and  C_3 
REMARK    2  A    between atoms: C_3  and  O_6 
REMARK    3  A    between atoms: C_3  and  C_4 
REMARK    4  A    between atoms: C_7  and  O_6 
REMARK    5  A    between atoms: C_9  and  C_10 
REMARK    6  A    between atoms: N_15  and  C_14 
REMARK    7  A    between atoms: N_20  and  C_19 
REMARK       I    between atoms: C_22  and  N_20 
ROOT
ATOM      1  C   LIG d   1      -1.510  76.091 114.873  0.00  0.00     0.161 C 
ATOM      2  C   LIG d   1      -1.370  75.161 115.917  0.00  0.00     0.016 C 
ATOM      3  C   LIG d   1      -0.727  75.456 117.141  0.00  0.00     0.038 C 
ATOM      4  C   LIG d   1      -0.311  76.756 117.465  0.00  0.00     0.028 C 
ATOM      5  C   LIG d   1       0.021  77.607 116.245  0.00  0.00    -0.047 C 
ATOM      6  C   LIG d   1      -1.161  77.545 115.252  0.00  0.00     0.091 C 
ENDROOT
BRANCH   1   7
ATOM      7  O   LIG d   1      -2.844  76.020 114.332  0.00  0.00    -0.368 OA
BRANCH   7   8
ATOM      8  C   LIG d   1      -3.878  75.569 115.241  0.00  0.00     0.119 C 
BRANCH   8   9
ATOM      9  C   LIG d   1      -4.779  74.587 114.467  0.00  0.00     0.028 C 
ATOM     10  C   LIG d   1      -5.983  74.115 115.300  0.00  0.00     0.006 C 
ENDBRANCH   8   9
BRANCH   8  11
ATOM     11  C   LIG d   1      -4.797  76.722 115.655  0.00  0.00     0.028 C 
ATOM     12  C   LIG d   1      -4.372  77.377 116.979  0.00  0.00     0.006 C 
ENDBRANCH   8  11
ENDBRANCH   7   8
ENDBRANCH   1   7
BRANCH   6  13
ATOM     13  N   LIG d   1      -0.884  78.284 113.992  0.00  0.00    -0.311 N 
ATOM     14  C   LIG d   1      -1.704  79.202 113.485  0.00  0.00     0.210 C 
ATOM     15  C   LIG d   1      -1.237  79.828 112.167  0.00  0.00     0.109 C 
ATOM     16  O   LIG d   1      -2.759  79.580 114.017  0.00  0.00    -0.276 OA
ATOM     17  H   LIG d   1      -0.034  78.062 113.512  0.00  0.00     0.149 HD
ENDBRANCH   6  13
BRANCH   5  18
ATOM     18  N   LIG d   1       0.306  78.975 116.720  0.00  0.00     0.381 N 
ATOM     19  H   LIG d   1       1.209  79.002 117.151  0.00  0.00    -0.090 HD
ATOM     20  H   LIG d   1      -0.380  79.229 117.409  0.00  0.00    -0.090 HD
ATOM     21  H   LIG d   1       0.275  79.614 115.957  0.00  0.00    -0.090 HD
ENDBRANCH   5  18
BRANCH   3  22
ATOM     22  C   LIG d   1      -0.459  74.435 118.040  0.00  0.00     0.382 C 
ATOM     23  O   LIG d   1       0.117  74.690 119.125  0.00  0.00    -0.241 OA
ATOM     24  O   LIG d   1      -0.745  73.255 117.760  0.00  0.00    -0.241 OA
ENDBRANCH   3  22
TORSDOF 7
ENDMDL
MODEL 3
REMARK VINA RESULT:      -5.2     11.998     14.090
REMARK  7 active torsions:
REMARK  status: ('A' for Active; 'I' for Inactive)
REMARK    1  A    between atoms: C_2  and  C_3 
REMARK    2  A    between atoms: C_3  and  O_6 
REMARK    3  A    between atoms: C_3  and  C_4 
REMARK    4  A    between atoms: C_7  and  O_6 
REMARK    5  A    between atoms: C_9  and  C_10 
REMARK    6  A    between atoms: N_15  and  C_14 
REMARK    7  A    between atoms: N_20  and  C_19 
REMARK       I    between atoms: C_22  and  N_20 
ROOT
ATOM      1  C   LIG d   1       1.389  88.290 116.174  0.00  0.00     0.161 C 
ATOM      2  C   LIG d   1       0.082  88.309 116.690  0.00  0.00     0.016 C 
ATOM      3  C   LIG d   1      -0.518  89.462 117.247  0.00  0.00     0.038 C 
ATOM      4  C   LIG d   1       0.098  90.721 117.187  0.00  0.00     0.028 C 
ATOM      5  C   LIG d   1       1.620  90.648 117.131  0.00  0.00    -0.047 C 
ATOM      6  C   LIG d   1       2.035  89.680 116.000  0.00  0.00     0.091 C 
ENDROOT
BRANCH   1   7
ATOM      7  O   LIG d   1       1.411  87.567 114.928  0.00  0.00    -0.368 OA
BRANCH   7   8
ATOM      8  C   LIG d   1       1.938  86.218 114.983  0.00  0.00     0.119 C 
BRANCH   8   9
ATOM      9  C   LIG d   1       3.177  86.168 114.068  0.00  0.00     0.028 C 
ATOM     10  C   LIG d   1       2.975  86.954 112.762  0.00  0.00     0.006 C 
ENDBRANCH   8   9
BRANCH   8  11
ATOM     11  C   LIG d   1       0.952  85.210 114.385  0.00  0.00     0.028 C 
ATOM     12  C   LIG d   1       0.332  84.284 115.444  0.00  0.00     0.006 C 
ENDBRANCH   8  11
ENDBRANCH   7   8
ENDBRANCH   1   7
BRANCH   6  13
ATOM     13  N   LIG d   1       3.507  89.486 115.931  0.00  0.00    -0.311 N 
ATOM     14  C   LIG d   1       4.233  89.763 114.849  0.00  0.00     0.210 C 
ATOM     15  C   LIG d   1       5.731  89.471 114.984  0.00  0.00     0.109 C 
ATOM     16  O   LIG d   1       3.784  90.253 113.802  0.00  0.00    -0.276 OA
ATOM     17  H   LIG d   1       3.958  89.121 116.747  0.00  0.00     0.149 HD
ENDBRANCH   6  13
BRANCH   5  18
ATOM     18  N   LIG d   1       2.125  92.020 116.933  0.00  0.00     0.381 N 
ATOM     19  H   LIG d   1       3.098  92.059 117.163  0.00  0.00    -0.090 HD
ATOM     20  H   LIG d   1       1.630  92.640 117.549  0.00  0.00    -0.090 HD
ATOM     21  H   LIG d   1       1.989  92.300 115.987  0.00  0.00    -0.090 HD
ENDBRANCH   5  18
BRANCH   3  22
ATOM     22  C   LIG d   1      -1.732  89.353 117.908  0.00  0.00     0.382 C 
ATOM     23  O   LIG d   1      -2.717  88.836 117.328  0.00  0.00    -0.241 OA
ATOM     24  O   LIG d   1      -1.867  89.807 119.060  0.00  0.00    -0.241 OA
ENDBRANCH   3  22
TORSDOF 7
ENDMDL
MODEL 4
REMARK VINA RESULT:      -5.1      3.260      4.182
REMARK  7 active torsions:
REMARK  status: ('A' for Active; 'I' for Inactive)
REMARK    1  A    between atoms: C_2  and  C_3 
REMARK    2  A    between atoms: C_3  and  O_6 
REMARK    3  A    between atoms: C_3  and  C_4 
REMARK    4  A    between atoms: C_7  and  O_6 
REMARK    5  A    between atoms: C_9  and  C_10 
REMARK    6  A    between atoms: N_15  and  C_14 
REMARK    7  A    between atoms: N_20  and  C_19 
REMARK       I    between atoms: C_22  and  N_20 
ROOT
ATOM      1  C   LIG d   1      -3.247  78.103 116.176  0.00  0.00     0.161 C 
ATOM      2  C   LIG d   1      -3.980  79.147 116.765  0.00  0.00     0.016 C 
ATOM      3  C   LIG d   1      -3.483  80.462 116.910  0.00  0.00     0.038 C 
ATOM      4  C   LIG d   1      -2.268  80.863 116.335  0.00  0.00     0.028 C 
ATOM      5  C   LIG d   1      -1.270  79.722 116.171  0.00  0.00    -0.047 C 
ATOM      6  C   LIG d   1      -1.964  78.548 115.443  0.00  0.00     0.091 C 
ENDROOT
BRANCH   1   7
ATOM      7  O   LIG d   1      -4.096  77.351 115.287  0.00  0.00    -0.368 OA
BRANCH   7   8
ATOM      8  C   LIG d   1      -4.625  76.107 115.811  0.00  0.00     0.119 C 
BRANCH   8   9
ATOM      9  C   LIG d   1      -4.115  74.970 114.905  0.00  0.00     0.028 C 
ATOM     10  C   LIG d   1      -5.261  74.224 114.199  0.00  0.00     0.006 C 
ENDBRANCH   8   9
BRANCH   8  11
ATOM     11  C   LIG d   1      -6.151  76.061 115.701  0.00  0.00     0.028 C 
ATOM     12  C   LIG d   1      -6.847  76.048 117.071  0.00  0.00     0.006 C 
ENDBRANCH   8  11
ENDBRANCH   7   8
ENDBRANCH   1   7
BRANCH   6  13
ATOM     13  N   LIG d   1      -1.083  77.358 115.317  0.00  0.00    -0.311 N 
ATOM     14  C   LIG d   1      -0.926  76.679 114.182  0.00  0.00     0.210 C 
ATOM     15  C   LIG d   1       0.014  75.472 114.275  0.00  0.00     0.109 C 
ATOM     16  O   LIG d   1      -1.449  76.981 113.099  0.00  0.00    -0.276 OA
ATOM     17  H   LIG d   1      -0.595  77.063 116.140  0.00  0.00     0.149 HD
ENDBRANCH   6  13
BRANCH   5  18
ATOM     18  N   LIG d   1      -0.105  80.250 115.436  0.00  0.00     0.381 N 
ATOM     19  H   LIG d   1       0.734  80.050 115.943  0.00  0.00    -0.090 HD
ATOM     20  H   LIG d   1      -0.196  81.248 115.357  0.00  0.00    -0.090 HD
ATOM     21  H   LIG d   1      -0.060  79.840 114.529  0.00  0.00    -0.090 HD
ENDBRANCH   5  18
BRANCH   3  22
ATOM     22  C   LIG d   1      -4.187  81.383 117.671  0.00  0.00     0.382 C 
ATOM     23  O   LIG d   1      -5.307  81.793 117.282  0.00  0.00    -0.241 OA
ATOM     24  O   LIG d   1      -3.696  81.842 118.720  0.00  0.00    -0.241 OA
ENDBRANCH   3  22
TORSDOF 7
ENDMDL
MODEL 5
REMARK VINA RESULT:      -5.1     10.707     12.912
REMARK  7 active torsions:
REMARK  status: ('A' for Active; 'I' for Inactive)
REMARK    1  A    between atoms: C_2  and  C_3 
REMARK    2  A    between atoms: C_3  and  O_6 
REMARK    3  A    between atoms: C_3  and  C_4 
REMARK    4  A    between atoms: C_7  and  O_6 
REMARK    5  A    between atoms: C_9  and  C_10 
REMARK    6  A    between atoms: N_15  and  C_14 
REMARK    7  A    between atoms: N_20  and  C_19 
REMARK       I    between atoms: C_22  and  N_20 
ROOT
ATOM      1  C   LIG d   1       2.078  87.030 114.822  0.00  0.00     0.161 C 
ATOM      2  C   LIG d   1       2.890  88.094 114.397  0.00  0.00     0.016 C 
ATOM      3  C   LIG d   1       3.397  88.209 113.082  0.00  0.00     0.038 C 
ATOM      4  C   LIG d   1       2.999  87.340 112.055  0.00  0.00     0.028 C 
ATOM      5  C   LIG d   1       2.583  85.961 112.557  0.00  0.00    -0.047 C 
ATOM      6  C   LIG d   1       1.543  86.131 113.688  0.00  0.00     0.091 C 
ENDROOT
BRANCH   1   7
ATOM      7  O   LIG d   1       0.987  87.534 115.618  0.00  0.00    -0.368 OA
BRANCH   7   8
ATOM      8  C   LIG d   1       1.294  88.659 116.478  0.00  0.00     0.119 C 
BRANCH   8   9
ATOM      9  C   LIG d   1       1.728  88.093 117.844  0.00  0.00     0.028 C 
ATOM     10  C   LIG d   1       3.209  88.372 118.151  0.00  0.00     0.006 C 
ENDBRANCH   8   9
BRANCH   8  11
ATOM     11  C   LIG d   1       0.044  89.497 116.766  0.00  0.00     0.028 C 
ATOM     12  C   LIG d   1      -0.266  89.608 118.267  0.00  0.00     0.006 C 
ENDBRANCH   8  11
ENDBRANCH   7   8
ENDBRANCH   1   7
BRANCH   6  13
ATOM     13  N   LIG d   1       1.145  84.833 114.292  0.00  0.00    -0.311 N 
ATOM     14  C   LIG d   1       0.045  84.168 113.943  0.00  0.00     0.210 C 
ATOM     15  C   LIG d   1      -0.189  82.860 114.704  0.00  0.00     0.109 C 
ATOM     16  O   LIG d   1      -0.743  84.523 113.053  0.00  0.00    -0.276 OA
ATOM     17  H   LIG d   1       1.744  84.457 115.000  0.00  0.00     0.149 HD
ENDBRANCH   6  13
BRANCH   5  18
ATOM     18  N   LIG d   1       2.063  85.205 111.402  0.00  0.00     0.381 N 
ATOM     19  H   LIG d   1       1.302  84.624 111.692  0.00  0.00    -0.090 HD
ATOM     20  H   LIG d   1       2.793  84.613 111.045  0.00  0.00    -0.090 HD
ATOM     21  H   LIG d   1       1.759  85.834 110.692  0.00  0.00    -0.090 HD
ENDBRANCH   5  18
BRANCH   3  22
ATOM     22  C   LIG d   1       4.344  89.180 112.793  0.00  0.00     0.382 C 
ATOM     23  O   LIG d   1       5.502  88.843 112.449  0.00  0.00    -0.241 OA
ATOM     24  O   LIG d   1       4.067  90.388 112.915  0.00  0.00    -0.241 OA
ENDBRANCH   3  22
TORSDOF 7
ENDMDL
MODEL 6
REMARK VINA RESULT:      -4.9      2.229      4.906
REMARK  7 active torsions:
REMARK  status: ('A' for Active; 'I' for Inactive)
REMARK    1  A    between atoms: C_2  and  C_3 
REMARK    2  A    between atoms: C_3  and  O_6 
REMARK    3  A    between atoms: C_3  and  C_4 
REMARK    4  A    between atoms: C_7  and  O_6 
REMARK    5  A    between atoms: C_9  and  C_10 
REMARK    6  A    between atoms: N_15  and  C_14 
REMARK    7  A    between atoms: N_20  and  C_19 
REMARK       I    between atoms: C_22  and  N_20 
ROOT
ATOM      1  C   LIG d   1      -2.349  76.353 114.536  0.00  0.00     0.161 C 
ATOM      2  C   LIG d   1      -1.889  77.661 114.313  0.00  0.00     0.016 C 
ATOM      3  C   LIG d   1      -2.449  78.800 114.936  0.00  0.00     0.038 C 
ATOM      4  C   LIG d   1      -3.416  78.692 115.946  0.00  0.00     0.028 C 
ATOM      5  C   LIG d   1      -4.265  77.430 115.840  0.00  0.00    -0.047 C 
ATOM      6  C   LIG d   1      -3.330  76.205 115.718  0.00  0.00     0.091 C 
ENDROOT
BRANCH   1   7
ATOM      7  O   LIG d   1      -1.229  75.461 114.700  0.00  0.00    -0.368 OA
BRANCH   7   8
ATOM      8  C   LIG d   1      -0.045  76.031 115.312  0.00  0.00     0.119 C 
BRANCH   8   9
ATOM      9  C   LIG d   1       1.171  75.240 114.792  0.00  0.00     0.028 C 
ATOM     10  C   LIG d   1       0.777  74.168 113.762  0.00  0.00     0.006 C 
ENDBRANCH   8   9
BRANCH   8  11
ATOM     11  C   LIG d   1      -0.047  75.821 116.829  0.00  0.00     0.028 C 
ATOM     12  C   LIG d   1      -0.471  74.401 117.234  0.00  0.00     0.006 C 
ENDBRANCH   8  11
ENDBRANCH   7   8
ENDBRANCH   1   7
BRANCH   6  13
ATOM     13  N   LIG d   1      -4.079  74.936 115.525  0.00  0.00    -0.311 N 
ATOM     14  C   LIG d   1      -4.839  74.688 114.459  0.00  0.00     0.210 C 
ATOM     15  C   LIG d   1      -5.540  73.327 114.468  0.00  0.00     0.109 C 
ATOM     16  O   LIG d   1      -4.972  75.454 113.492  0.00  0.00    -0.276 OA
ATOM     17  H   LIG d   1      -4.003  74.247 116.247  0.00  0.00     0.149 HD
ENDBRANCH   6  13
BRANCH   5  18
ATOM     18  N   LIG d   1      -5.136  77.376 117.029  0.00  0.00     0.381 N 
ATOM     19  H   LIG d   1      -5.774  76.610 116.948  0.00  0.00    -0.090 HD
ATOM     20  H   LIG d   1      -5.670  78.226 117.079  0.00  0.00    -0.090 HD
ATOM     21  H   LIG d   1      -4.584  77.273 117.852  0.00  0.00    -0.090 HD
ENDBRANCH   5  18
BRANCH   3  22
ATOM     22  C   LIG d   1      -2.069  80.067 114.520  0.00  0.00     0.382 C 
ATOM     23  O   LIG d   1      -2.898  80.811 113.942  0.00  0.00    -0.241 OA
ATOM     24  O   LIG d   1      -0.897  80.458 114.676  0.00  0.00    -0.241 OA
ENDBRANCH   3  22
TORSDOF 7
ENDMDL
MODEL 7
REMARK VINA RESULT:      -4.7     12.159     14.869
REMARK  7 active torsions:
REMARK  status: ('A' for Active; 'I' for Inactive)
REMARK    1  A    between atoms: C_2  and  C_3 
REMARK    2  A    between atoms: C_3  and  O_6 
REMARK    3  A    between atoms: C_3  and  C_4 
REMARK    4  A    between atoms: C_7  and  O_6 
REMARK    5  A    between atoms: C_9  and  C_10 
REMARK    6  A    between atoms: N_15  and  C_14 
REMARK    7  A    between atoms: N_20  and  C_19 
REMARK       I    between atoms: C_22  and  N_20 
ROOT
ATOM      1  C   LIG d   1      10.715  78.976 114.476  0.00  0.00     0.161 C 
ATOM      2  C   LIG d   1       9.366  79.237 114.770  0.00  0.00     0.016 C 
ATOM      3  C   LIG d   1       8.474  78.258 115.265  0.00  0.00     0.038 C 
ATOM      4  C   LIG d   1       8.911  76.981 115.645  0.00  0.00     0.028 C 
ATOM      5  C   LIG d   1      10.155  76.518 114.893  0.00  0.00    -0.047 C 
ATOM      6  C   LIG d   1      11.237  77.618 114.989  0.00  0.00     0.091 C 
ENDROOT
BRANCH   1   7
ATOM      7  O   LIG d   1      11.539  80.049 114.971  0.00  0.00    -0.368 OA
BRANCH   7   8
ATOM      8  C   LIG d   1      11.852  81.101 114.026  0.00  0.00     0.119 C 
BRANCH   8   9
ATOM      9  C   LIG d   1      11.959  80.454 112.631  0.00  0.00     0.028 C 
ATOM     10  C   LIG d   1      11.176  81.233 111.561  0.00  0.00     0.006 C 
ENDBRANCH   8   9
BRANCH   8  11
ATOM     11  C   LIG d   1      13.234  81.704 114.299  0.00  0.00     0.028 C 
ATOM     12  C   LIG d   1      14.382  80.810 113.805  0.00  0.00     0.006 C 
ENDBRANCH   8  11
ENDBRANCH   7   8
ENDBRANCH   1   7
BRANCH   6  13
ATOM     13  N   LIG d   1      12.457  77.282 114.209  0.00  0.00    -0.311 N 
ATOM     14  C   LIG d   1      13.688  77.338 114.714  0.00  0.00     0.210 C 
ATOM     15  C   LIG d   1      14.807  76.970 113.734  0.00  0.00     0.109 C 
ATOM     16  O   LIG d   1      13.958  77.627 115.890  0.00  0.00    -0.276 OA
ATOM     17  H   LIG d   1      12.328  77.007 113.255  0.00  0.00     0.149 HD
ENDBRANCH   6  13
BRANCH   5  18
ATOM     18  N   LIG d   1      10.581  75.235 115.484  0.00  0.00     0.381 N 
ATOM     19  H   LIG d   1       9.914  74.523 115.263  0.00  0.00    -0.090 HD
ATOM     20  H   LIG d   1      10.618  75.333 116.483  0.00  0.00    -0.090 HD
ATOM     21  H   LIG d   1      11.478  74.980 115.134  0.00  0.00    -0.090 HD
ENDBRANCH   5  18
BRANCH   3  22
ATOM     22  C   LIG d   1       7.119  78.542 115.346  0.00  0.00     0.382 C 
ATOM     23  O   LIG d   1       6.281  77.744 114.861  0.00  0.00    -0.241 OA
ATOM     24  O   LIG d   1       6.726  79.606 115.860  0.00  0.00    -0.241 OA
ENDBRANCH   3  22
TORSDOF 7
ENDMDL
MODEL 8
REMARK VINA RESULT:      -4.6      9.883     11.854
REMARK  7 active torsions:
REMARK  status: ('A' for Active; 'I' for Inactive)
REMARK    1  A    between atoms: C_2  and  C_3 
REMARK    2  A    between atoms: C_3  and  O_6 
REMARK    3  A    between atoms: C_3  and  C_4 
REMARK    4  A    between atoms: C_7  and  O_6 
REMARK    5  A    between atoms: C_9  and  C_10 
REMARK    6  A    between atoms: N_15  and  C_14 
REMARK    7  A    between atoms: N_20  and  C_19 
REMARK       I    between atoms: C_22  and  N_20 
ROOT
ATOM      1  C   LIG d   1       2.800  86.098 113.779  0.00  0.00     0.161 C 
ATOM      2  C   LIG d   1       3.031  87.443 113.447  0.00  0.00     0.016 C 
ATOM      3  C   LIG d   1       3.752  88.336 114.273  0.00  0.00     0.038 C 
ATOM      4  C   LIG d   1       4.426  87.901 115.424  0.00  0.00     0.028 C 
ATOM      5  C   LIG d   1       3.799  86.665 116.062  0.00  0.00    -0.047 C 
ATOM      6  C   LIG d   1       3.620  85.578 114.978  0.00  0.00     0.091 C 
ENDROOT
BRANCH   1   7
ATOM      7  O   LIG d   1       3.017  85.265 112.624  0.00  0.00    -0.368 OA
BRANCH   7   8
ATOM      8  C   LIG d   1       1.840  84.630 112.065  0.00  0.00     0.119 C 
BRANCH   8   9
ATOM      9  C   LIG d   1       0.619  85.150 112.847  0.00  0.00     0.028 C 
ATOM     10  C   LIG d   1      -0.440  85.784 111.929  0.00  0.00     0.006 C 
ENDBRANCH   8   9
BRANCH   8  11
ATOM     11  C   LIG d   1       1.859  83.117 112.300  0.00  0.00     0.028 C 
ATOM     12  C   LIG d   1       1.445  82.316 111.055  0.00  0.00     0.006 C 
ENDBRANCH   8  11
ENDBRANCH   7   8
ENDBRANCH   1   7
BRANCH   6  13
ATOM     13  N   LIG d   1       2.937  84.365 115.499  0.00  0.00    -0.311 N 
ATOM     14  C   LIG d   1       3.587  83.305 115.976  0.00  0.00     0.210 C 
ATOM     15  C   LIG d   1       2.690  82.154 116.444  0.00  0.00     0.109 C 
ATOM     16  O   LIG d   1       4.819  83.222 116.087  0.00  0.00    -0.276 OA
ATOM     17  H   LIG d   1       1.936  84.361 115.476  0.00  0.00     0.149 HD
ENDBRANCH   6  13
BRANCH   5  18
ATOM     18  N   LIG d   1       4.678  86.240 117.168  0.00  0.00     0.381 N 
ATOM     19  H   LIG d   1       5.356  85.587 116.830  0.00  0.00    -0.090 HD
ATOM     20  H   LIG d   1       4.121  85.783 117.868  0.00  0.00    -0.090 HD
ATOM     21  H   LIG d   1       5.137  87.032 117.562  0.00  0.00    -0.090 HD
ENDBRANCH   5  18
BRANCH   3  22
ATOM     22  C   LIG d   1       3.772  89.689 113.970  0.00  0.00     0.382 C 
ATOM     23  O   LIG d   1       3.416  90.529 114.830  0.00  0.00    -0.241 OA
ATOM     24  O   LIG d   1       4.099  90.076 112.832  0.00  0.00    -0.241 OA
ENDBRANCH   3  22
TORSDOF 7
ENDMDL
MODEL 9
REMARK VINA RESULT:      -4.5      2.665      4.947
REMARK  7 active torsions:
REMARK  status: ('A' for Active; 'I' for Inactive)
REMARK    1  A    between atoms: C_2  and  C_3 
REMARK    2  A    between atoms: C_3  and  O_6 
REMARK    3  A    between atoms: C_3  and  C_4 
REMARK    4  A    between atoms: C_7  and  O_6 
REMARK    5  A    between atoms: C_9  and  C_10 
REMARK    6  A    between atoms: N_15  and  C_14 
REMARK    7  A    between atoms: N_20  and  C_19 
REMARK       I    between atoms: C_22  and  N_20 
ROOT
ATOM      1  C   LIG d   1      -2.577  77.373 115.228  0.00  0.00     0.161 C 
ATOM      2  C   LIG d   1      -2.145  76.072 115.536  0.00  0.00     0.016 C 
ATOM      3  C   LIG d   1      -1.117  75.793 116.466  0.00  0.00     0.038 C 
ATOM      4  C   LIG d   1      -0.552  76.795 117.269  0.00  0.00     0.028 C 
ATOM      5  C   LIG d   1      -0.602  78.181 116.634  0.00  0.00    -0.047 C 
ATOM      6  C   LIG d   1      -2.050  78.471 116.175  0.00  0.00     0.091 C 
ENDROOT
BRANCH   1   7
ATOM      7  O   LIG d   1      -4.017  77.409 115.173  0.00  0.00    -0.368 OA
BRANCH   7   8
ATOM      8  C   LIG d   1      -4.713  76.788 116.282  0.00  0.00     0.119 C 
BRANCH   8   9
ATOM      9  C   LIG d   1      -5.824  75.898 115.691  0.00  0.00     0.028 C 
ATOM     10  C   LIG d   1      -6.973  75.656 116.684  0.00  0.00     0.006 C 
ENDBRANCH   8   9
BRANCH   8  11
ATOM     11  C   LIG d   1      -5.441  77.831 117.136  0.00  0.00     0.028 C 
ATOM     12  C   LIG d   1      -4.762  78.068 118.494  0.00  0.00     0.006 C 
ENDBRANCH   8  11
ENDBRANCH   7   8
ENDBRANCH   1   7
BRANCH   6  13
ATOM     13  N   LIG d   1      -2.170  79.772 115.467  0.00  0.00    -0.311 N 
ATOM     14  C   LIG d   1      -2.515  80.907 116.072  0.00  0.00     0.210 C 
ATOM     15  C   LIG d   1      -2.600  82.130 115.153  0.00  0.00     0.109 C 
ATOM     16  O   LIG d   1      -2.728  81.024 117.288  0.00  0.00    -0.276 OA
ATOM     17  H   LIG d   1      -1.985  79.774 114.483  0.00  0.00     0.149 HD
ENDBRANCH   6  13
BRANCH   5  18
ATOM     18  N   LIG d   1      -0.107  79.147 117.632  0.00  0.00     0.381 N 
ATOM     19  H   LIG d   1       0.273  79.949 117.169  0.00  0.00    -0.090 HD
ATOM     20  H   LIG d   1       0.626  78.715 118.167  0.00  0.00    -0.090 HD
ATOM     21  H   LIG d   1      -0.850  79.424 118.236  0.00  0.00    -0.090 HD
ENDBRANCH   5  18
BRANCH   3  22
ATOM     22  C   LIG d   1      -0.617  74.505 116.572  0.00  0.00     0.382 C 
ATOM     23  O   LIG d   1      -0.901  73.802 117.572  0.00  0.00    -0.241 OA
ATOM     24  O   LIG d   1       0.151  74.052 115.702  0.00  0.00    -0.241 OA
ENDBRANCH   3  22
TORSDOF 7
ENDMDL
