MODEL 1
REMARK VINA RESULT:      -5.6      0.000      0.000
REMARK  7 active torsions:
REMARK  status: ('A' for Active; 'I' for Inactive)
REMARK    1  A    between atoms: C_2  and  C_3 
REMARK    2  A    between atoms: C_3  and  O_6 
REMARK    3  A    between atoms: C_3  and  C_4 
REMARK    4  A    between atoms: C_7  and  O_6 
REMARK    5  A    between atoms: C_9  and  C_10 
REMARK    6  A    between atoms: N_15  and  C_14 
REMARK    7  A    between atoms: N_20  and  C_19 
REMARK       I    between atoms: C_22  and  N_20 
ROOT
ATOM      1  C   LIG d   1      -2.622  77.315 116.532  0.00  0.00     0.161 C 
ATOM      2  C   LIG d   1      -3.002  78.081 115.418  0.00  0.00     0.016 C 
ATOM      3  C   LIG d   1      -2.270  78.112 114.209  0.00  0.00     0.038 C 
ATOM      4  C   LIG d   1      -1.183  77.256 113.978  0.00  0.00     0.028 C 
ATOM      5  C   LIG d   1      -0.462  76.835 115.254  0.00  0.00    -0.047 C 
ATOM      6  C   LIG d   1      -1.501  76.290 116.260  0.00  0.00     0.091 C 
ENDROOT
BRANCH   1   7
ATOM      7  O   LIG d   1      -3.777  76.658 117.091  0.00  0.00    -0.368 OA
BRANCH   7   8
ATOM      8  C   LIG d   1      -4.828  76.314 116.156  0.00  0.00     0.119 C 
BRANCH   8   9
ATOM      9  C   LIG d   1      -6.169  76.420 116.908  0.00  0.00     0.028 C 
ATOM     10  C   LIG d   1      -7.343  75.842 116.100  0.00  0.00     0.006 C 
ENDBRANCH   8   9
BRANCH   8  11
ATOM     11  C   LIG d   1      -4.725  74.850 115.716  0.00  0.00     0.028 C 
ATOM     12  C   LIG d   1      -4.440  74.699 114.213  0.00  0.00     0.006 C 
ENDBRANCH   8  11
ENDBRANCH   7   8
ENDBRANCH   1   7
BRANCH   6  13
ATOM     13  N   LIG d   1      -0.890  75.933 117.568  0.00  0.00    -0.311 N 
ATOM     14  C   LIG d   1      -0.542  74.691 117.900  0.00  0.00     0.210 C 
ATOM     15  C   LIG d   1       0.052  74.540 119.304  0.00  0.00     0.109 C 
ATOM     16  O   LIG d   1      -0.640  73.706 117.154  0.00  0.00    -0.276 OA
ATOM     17  H   LIG d   1      -0.746  76.678 118.222  0.00  0.00     0.149 HD
ENDBRANCH   6  13
BRANCH   5  18
ATOM     18  N   LIG d   1       0.559  75.838 114.880  0.00  0.00     0.381 N 
ATOM     19  H   LIG d   1       0.195  75.227 114.176  0.00  0.00    -0.090 HD
ATOM     20  H   LIG d   1       0.787  75.287 115.689  0.00  0.00    -0.090 HD
ATOM     21  H   LIG d   1       1.376  76.297 114.542  0.00  0.00    -0.090 HD
ENDBRANCH   5  18
BRANCH   3  22
ATOM     22  C   LIG d   1      -2.601  79.036 113.229  0.00  0.00     0.382 C 
ATOM     23  O   LIG d   1      -2.701  80.252 113.522  0.00  0.00    -0.241 OA
ATOM     24  O   LIG d   1      -2.844  78.663 112.065  0.00  0.00    -0.241 OA
ENDBRANCH   3  22
TORSDOF 7
ENDMDL
MODEL 2
REMARK VINA RESULT:      -5.4      1.733      4.928
REMARK  7 active torsions:
REMARK  status: ('A' for Active; 'I' for Inactive)
REMARK    1  A    between atoms: C_2  and  C_3 
REMARK    2  A    between atoms: C_3  and  O_6 
REMARK    3  A    between atoms: C_3  and  C_4 
REMARK    4  A    between atoms: C_7  and  O_6 
REMARK    5  A    between atoms: C_9  and  C_10 
REMARK    6  A    between atoms: N_15  and  C_14 
REMARK    7  A    between atoms: N_20  and  C_19 
REMARK       I    between atoms: C_22  and  N_20 
ROOT
ATOM      1  C   LIG d   1      -1.758  75.279 114.936  0.00  0.00     0.161 C 
ATOM      2  C   LIG d   1      -1.528  74.625 116.157  0.00  0.00     0.016 C 
ATOM      3  C   LIG d   1      -0.744  75.174 117.198  0.00  0.00     0.038 C 
ATOM      4  C   LIG d   1      -0.259  76.489 117.147  0.00  0.00     0.028 C 
ATOM      5  C   LIG d   1      -0.042  76.999 115.727  0.00  0.00    -0.047 C 
ATOM      6  C   LIG d   1      -1.330  76.761 114.905  0.00  0.00     0.091 C 
ENDROOT
BRANCH   1   7
ATOM      7  O   LIG d   1      -3.146  75.151 114.567  0.00  0.00    -0.368 OA
BRANCH   7   8
ATOM      8  C   LIG d   1      -4.079  74.949 115.657  0.00  0.00     0.119 C 
BRANCH   8   9
ATOM      9  C   LIG d   1      -5.118  73.911 115.190  0.00  0.00     0.028 C 
ATOM     10  C   LIG d   1      -6.000  73.404 116.343  0.00  0.00     0.006 C 
ENDBRANCH   8   9
BRANCH   8  11
ATOM     11  C   LIG d   1      -4.879  76.221 115.949  0.00  0.00     0.028 C 
ATOM     12  C   LIG d   1      -4.269  77.063 117.081  0.00  0.00     0.006 C 
ENDBRANCH   8  11
ENDBRANCH   7   8
ENDBRANCH   1   7
BRANCH   6  13
ATOM     13  N   LIG d   1      -1.174  77.155 113.481  0.00  0.00    -0.311 N 
ATOM     14  C   LIG d   1      -1.885  78.125 112.907  0.00  0.00     0.210 C 
ATOM     15  C   LIG d   1      -1.582  78.356 111.423  0.00  0.00     0.109 C 
ATOM     16  O   LIG d   1      -2.715  78.836 113.493  0.00  0.00    -0.276 OA
ATOM     17  H   LIG d   1      -0.500  76.651 112.939  0.00  0.00     0.149 HD
ENDBRANCH   6  13
BRANCH   5  18
ATOM     18  N   LIG d   1       0.332  78.423 115.817  0.00  0.00     0.381 N 
ATOM     19  H   LIG d   1       0.433  78.687 116.777  0.00  0.00    -0.090 HD
ATOM     20  H   LIG d   1      -0.402  78.978 115.413  0.00  0.00    -0.090 HD
ATOM     21  H   LIG d   1       1.186  78.584 115.329  0.00  0.00    -0.090 HD
ENDBRANCH   5  18
BRANCH   3  22
ATOM     22  C   LIG d   1      -0.405  74.389 118.290  0.00  0.00     0.382 C 
ATOM     23  O   LIG d   1       0.365  74.840 119.172  0.00  0.00    -0.241 OA
ATOM     24  O   LIG d   1      -0.823  73.219 118.381  0.00  0.00    -0.241 OA
ENDBRANCH   3  22
TORSDOF 7
ENDMDL
MODEL 3
REMARK VINA RESULT:      -5.3      3.088      5.134
REMARK  7 active torsions:
REMARK  status: ('A' for Active; 'I' for Inactive)
REMARK    1  A    between atoms: C_2  and  C_3 
REMARK    2  A    between atoms: C_3  and  O_6 
REMARK    3  A    between atoms: C_3  and  C_4 
REMARK    4  A    between atoms: C_7  and  O_6 
REMARK    5  A    between atoms: C_9  and  C_10 
REMARK    6  A    between atoms: N_15  and  C_14 
REMARK    7  A    between atoms: N_20  and  C_19 
REMARK       I    between atoms: C_22  and  N_20 
ROOT
ATOM      1  C   LIG d   1      -6.044  76.924 116.954  0.00  0.00     0.161 C 
ATOM      2  C   LIG d   1      -7.286  77.515 117.240  0.00  0.00     0.016 C 
ATOM      3  C   LIG d   1      -7.435  78.649 118.071  0.00  0.00     0.038 C 
ATOM      4  C   LIG d   1      -6.330  79.365 118.554  0.00  0.00     0.028 C 
ATOM      5  C   LIG d   1      -5.075  78.512 118.706  0.00  0.00    -0.047 C 
ATOM      6  C   LIG d   1      -4.818  77.757 117.381  0.00  0.00     0.091 C 
ENDROOT
BRANCH   1   7
ATOM      7  O   LIG d   1      -5.967  76.603 115.550  0.00  0.00    -0.368 OA
BRANCH   7   8
ATOM      8  C   LIG d   1      -6.222  75.221 115.198  0.00  0.00     0.119 C 
BRANCH   8   9
ATOM      9  C   LIG d   1      -6.170  74.395 116.497  0.00  0.00     0.028 C 
ATOM     10  C   LIG d   1      -6.145  72.881 116.228  0.00  0.00     0.006 C 
ENDBRANCH   8   9
BRANCH   8  11
ATOM     11  C   LIG d   1      -5.107  74.657 114.313  0.00  0.00     0.028 C 
ATOM     12  C   LIG d   1      -3.941  75.641 114.124  0.00  0.00     0.006 C 
ENDBRANCH   8  11
ENDBRANCH   7   8
ENDBRANCH   1   7
BRANCH   6  13
ATOM     13  N   LIG d   1      -3.656  76.835 117.471  0.00  0.00    -0.311 N 
ATOM     14  C   LIG d   1      -2.437  77.147 117.036  0.00  0.00     0.210 C 
ATOM     15  C   LIG d   1      -1.388  76.043 117.206  0.00  0.00     0.109 C 
ATOM     16  O   LIG d   1      -2.117  78.244 116.555  0.00  0.00    -0.276 OA
ATOM     17  H   LIG d   1      -3.819  75.934 117.877  0.00  0.00     0.149 HD
ENDBRANCH   6  13
BRANCH   5  18
ATOM     18  N   LIG d   1      -3.968  79.410 119.084  0.00  0.00     0.381 N 
ATOM     19  H   LIG d   1      -3.321  78.923 119.671  0.00  0.00    -0.090 HD
ATOM     20  H   LIG d   1      -4.342  80.186 119.602  0.00  0.00    -0.090 HD
ATOM     21  H   LIG d   1      -3.503  79.741 118.267  0.00  0.00    -0.090 HD
ENDBRANCH   5  18
BRANCH   3  22
ATOM     22  C   LIG d   1      -8.703  79.054 118.459  0.00  0.00     0.382 C 
ATOM     23  O   LIG d   1      -8.842  80.060 119.196  0.00  0.00    -0.241 OA
ATOM     24  O   LIG d   1      -9.707  78.400 118.118  0.00  0.00    -0.241 OA
ENDBRANCH   3  22
TORSDOF 7
ENDMDL
MODEL 4
REMARK VINA RESULT:      -5.3      8.776     11.652
REMARK  7 active torsions:
REMARK  status: ('A' for Active; 'I' for Inactive)
REMARK    1  A    between atoms: C_2  and  C_3 
REMARK    2  A    between atoms: C_3  and  O_6 
REMARK    3  A    between atoms: C_3  and  C_4 
REMARK    4  A    between atoms: C_7  and  O_6 
REMARK    5  A    between atoms: C_9  and  C_10 
REMARK    6  A    between atoms: N_15  and  C_14 
REMARK    7  A    between atoms: N_20  and  C_19 
REMARK       I    between atoms: C_22  and  N_20 
ROOT
ATOM      1  C   LIG d   1       2.026  85.335 114.021  0.00  0.00     0.161 C 
ATOM      2  C   LIG d   1       1.290  84.235 113.550  0.00  0.00     0.016 C 
ATOM      3  C   LIG d   1      -0.053  83.984 113.916  0.00  0.00     0.038 C 
ATOM      4  C   LIG d   1      -0.802  84.904 114.663  0.00  0.00     0.028 C 
ATOM      5  C   LIG d   1       0.049  85.779 115.577  0.00  0.00    -0.047 C 
ATOM      6  C   LIG d   1       1.191  86.409 114.748  0.00  0.00     0.091 C 
ENDROOT
BRANCH   1   7
ATOM      7  O   LIG d   1       2.768  85.926 112.936  0.00  0.00    -0.368 OA
BRANCH   7   8
ATOM      8  C   LIG d   1       4.211  85.839 113.028  0.00  0.00     0.119 C 
BRANCH   8   9
ATOM      9  C   LIG d   1       4.801  86.936 112.120  0.00  0.00     0.028 C 
ATOM     10  C   LIG d   1       5.553  88.015 112.916  0.00  0.00     0.006 C 
ENDBRANCH   8   9
BRANCH   8  11
ATOM     11  C   LIG d   1       4.728  84.516 112.454  0.00  0.00     0.028 C 
ATOM     12  C   LIG d   1       4.159  84.210 111.060  0.00  0.00     0.006 C 
ENDBRANCH   8  11
ENDBRANCH   7   8
ENDBRANCH   1   7
BRANCH   6  13
ATOM     13  N   LIG d   1       2.121  87.213 115.583  0.00  0.00    -0.311 N 
ATOM     14  C   LIG d   1       2.626  88.384 115.198  0.00  0.00     0.210 C 
ATOM     15  C   LIG d   1       3.581  89.038 116.202  0.00  0.00     0.109 C 
ATOM     16  O   LIG d   1       2.348  88.959 114.135  0.00  0.00    -0.276 OA
ATOM     17  H   LIG d   1       2.375  86.836 116.475  0.00  0.00     0.149 HD
ENDBRANCH   6  13
BRANCH   5  18
ATOM     18  N   LIG d   1      -0.842  86.782 116.191  0.00  0.00     0.381 N 
ATOM     19  H   LIG d   1      -1.232  87.368 115.481  0.00  0.00    -0.090 HD
ATOM     20  H   LIG d   1      -0.303  87.357 116.814  0.00  0.00    -0.090 HD
ATOM     21  H   LIG d   1      -1.571  86.327 116.694  0.00  0.00    -0.090 HD
ENDBRANCH   5  18
BRANCH   3  22
ATOM     22  C   LIG d   1      -0.646  82.780 113.566  0.00  0.00     0.382 C 
ATOM     23  O   LIG d   1       0.022  81.719 113.596  0.00  0.00    -0.241 OA
ATOM     24  O   LIG d   1      -1.830  82.749 113.178  0.00  0.00    -0.241 OA
ENDBRANCH   3  22
TORSDOF 7
ENDMDL
MODEL 5
REMARK VINA RESULT:      -5.2      2.440      4.319
REMARK  7 active torsions:
REMARK  status: ('A' for Active; 'I' for Inactive)
REMARK    1  A    between atoms: C_2  and  C_3 
REMARK    2  A    between atoms: C_3  and  O_6 
REMARK    3  A    between atoms: C_3  and  C_4 
REMARK    4  A    between atoms: C_7  and  O_6 
REMARK    5  A    between atoms: C_9  and  C_10 
REMARK    6  A    between atoms: N_15  and  C_14 
REMARK    7  A    between atoms: N_20  and  C_19 
REMARK       I    between atoms: C_22  and  N_20 
ROOT
ATOM      1  C   LIG d   1      -2.997  77.035 117.040  0.00  0.00     0.161 C 
ATOM      2  C   LIG d   1      -2.112  77.795 117.823  0.00  0.00     0.016 C 
ATOM      3  C   LIG d   1      -0.705  77.713 117.709  0.00  0.00     0.038 C 
ATOM      4  C   LIG d   1      -0.085  76.972 116.692  0.00  0.00     0.028 C 
ATOM      5  C   LIG d   1      -0.924  75.797 116.202  0.00  0.00    -0.047 C 
ATOM      6  C   LIG d   1      -2.341  76.304 115.849  0.00  0.00     0.091 C 
ENDROOT
BRANCH   1   7
ATOM      7  O   LIG d   1      -4.081  77.867 116.581  0.00  0.00    -0.368 OA
BRANCH   7   8
ATOM      8  C   LIG d   1      -5.287  77.841 117.384  0.00  0.00     0.119 C 
BRANCH   8   9
ATOM      9  C   LIG d   1      -6.315  76.961 116.647  0.00  0.00     0.028 C 
ATOM     10  C   LIG d   1      -6.415  75.548 117.247  0.00  0.00     0.006 C 
ENDBRANCH   8   9
BRANCH   8  11
ATOM     11  C   LIG d   1      -5.929  79.229 117.469  0.00  0.00     0.028 C 
ATOM     12  C   LIG d   1      -7.374  79.186 117.990  0.00  0.00     0.006 C 
ENDBRANCH   8  11
ENDBRANCH   7   8
ENDBRANCH   1   7
BRANCH   6  13
ATOM     13  N   LIG d   1      -3.252  75.203 115.441  0.00  0.00    -0.311 N 
ATOM     14  C   LIG d   1      -3.999  75.241 114.338  0.00  0.00     0.210 C 
ATOM     15  C   LIG d   1      -4.883  74.010 114.114  0.00  0.00     0.109 C 
ATOM     16  O   LIG d   1      -3.989  76.162 113.508  0.00  0.00    -0.276 OA
ATOM     17  H   LIG d   1      -3.299  74.403 116.041  0.00  0.00     0.149 HD
ENDBRANCH   6  13
BRANCH   5  18
ATOM     18  N   LIG d   1      -0.222  75.197 115.052  0.00  0.00     0.381 N 
ATOM     19  H   LIG d   1       0.723  74.987 115.304  0.00  0.00    -0.090 HD
ATOM     20  H   LIG d   1      -0.207  75.860 114.298  0.00  0.00    -0.090 HD
ATOM     21  H   LIG d   1      -0.689  74.365 114.763  0.00  0.00    -0.090 HD
ENDBRANCH   5  18
BRANCH   3  22
ATOM     22  C   LIG d   1       0.098  78.347 118.645  0.00  0.00     0.382 C 
ATOM     23  O   LIG d   1       0.992  77.701 119.244  0.00  0.00    -0.241 OA
ATOM     24  O   LIG d   1      -0.090  79.544 118.931  0.00  0.00    -0.241 OA
ENDBRANCH   3  22
TORSDOF 7
ENDMDL
MODEL 6
REMARK VINA RESULT:      -5.2     10.697     12.996
REMARK  7 active torsions:
REMARK  status: ('A' for Active; 'I' for Inactive)
REMARK    1  A    between atoms: C_2  and  C_3 
REMARK    2  A    between atoms: C_3  and  O_6 
REMARK    3  A    between atoms: C_3  and  C_4 
REMARK    4  A    between atoms: C_7  and  O_6 
REMARK    5  A    between atoms: C_9  and  C_10 
REMARK    6  A    between atoms: N_15  and  C_14 
REMARK    7  A    between atoms: N_20  and  C_19 
REMARK       I    between atoms: C_22  and  N_20 
ROOT
ATOM      1  C   LIG d   1       2.975  87.551 114.637  0.00  0.00     0.161 C 
ATOM      2  C   LIG d   1       2.941  88.569 115.605  0.00  0.00     0.016 C 
ATOM      3  C   LIG d   1       3.830  89.668 115.609  0.00  0.00     0.038 C 
ATOM      4  C   LIG d   1       4.721  89.905 114.552  0.00  0.00     0.028 C 
ATOM      5  C   LIG d   1       5.136  88.637 113.814  0.00  0.00    -0.047 C 
ATOM      6  C   LIG d   1       3.867  87.851 113.414  0.00  0.00     0.091 C 
ENDROOT
BRANCH   1   7
ATOM      7  O   LIG d   1       1.634  87.235 114.213  0.00  0.00    -0.368 OA
BRANCH   7   8
ATOM      8  C   LIG d   1       1.116  85.951 114.640  0.00  0.00     0.119 C 
BRANCH   8   9
ATOM      9  C   LIG d   1       0.451  85.291 113.418  0.00  0.00     0.028 C 
ATOM     10  C   LIG d   1       0.950  83.855 113.181  0.00  0.00     0.006 C 
ENDBRANCH   8   9
BRANCH   8  11
ATOM     11  C   LIG d   1      -0.004  86.117 115.672  0.00  0.00     0.028 C 
ATOM     12  C   LIG d   1      -1.405  85.966 115.059  0.00  0.00     0.006 C 
ENDBRANCH   8  11
ENDBRANCH   7   8
ENDBRANCH   1   7
BRANCH   6  13
ATOM     13  N   LIG d   1       4.185  86.554 112.761  0.00  0.00    -0.311 N 
ATOM     14  C   LIG d   1       3.559  86.108 111.674  0.00  0.00     0.210 C 
ATOM     15  C   LIG d   1       4.028  84.738 111.174  0.00  0.00     0.109 C 
ATOM     16  O   LIG d   1       2.683  86.732 111.056  0.00  0.00    -0.276 OA
ATOM     17  H   LIG d   1       4.906  85.998 113.178  0.00  0.00     0.149 HD
ENDBRANCH   6  13
BRANCH   5  18
ATOM     18  N   LIG d   1       5.954  89.043 112.656  0.00  0.00     0.381 N 
ATOM     19  H   LIG d   1       6.390  88.239 112.250  0.00  0.00    -0.090 HD
ATOM     20  H   LIG d   1       6.676  89.668 112.970  0.00  0.00    -0.090 HD
ATOM     21  H   LIG d   1       5.383  89.498 111.978  0.00  0.00    -0.090 HD
ENDBRANCH   5  18
BRANCH   3  22
ATOM     22  C   LIG d   1       3.860  90.523 116.701  0.00  0.00     0.382 C 
ATOM     23  O   LIG d   1       4.321  91.683 116.575  0.00  0.00    -0.241 OA
ATOM     24  O   LIG d   1       3.473  90.134 117.819  0.00  0.00    -0.241 OA
ENDBRANCH   3  22
TORSDOF 7
ENDMDL
MODEL 7
REMARK VINA RESULT:      -5.1      6.196      9.094
REMARK  7 active torsions:
REMARK  status: ('A' for Active; 'I' for Inactive)
REMARK    1  A    between atoms: C_2  and  C_3 
REMARK    2  A    between atoms: C_3  and  O_6 
REMARK    3  A    between atoms: C_3  and  C_4 
REMARK    4  A    between atoms: C_7  and  O_6 
REMARK    5  A    between atoms: C_9  and  C_10 
REMARK    6  A    between atoms: N_15  and  C_14 
REMARK    7  A    between atoms: N_20  and  C_19 
REMARK       I    between atoms: C_22  and  N_20 
ROOT
ATOM      1  C   LIG d   1       0.158  83.425 113.070  0.00  0.00     0.161 C 
ATOM      2  C   LIG d   1      -0.975  82.636 113.330  0.00  0.00     0.016 C 
ATOM      3  C   LIG d   1      -1.115  81.304 112.879  0.00  0.00     0.038 C 
ATOM      4  C   LIG d   1      -0.061  80.614 112.262  0.00  0.00     0.028 C 
ATOM      5  C   LIG d   1       0.917  81.530 111.532  0.00  0.00    -0.047 C 
ATOM      6  C   LIG d   1       1.365  82.654 112.494  0.00  0.00     0.091 C 
ENDROOT
BRANCH   1   7
ATOM      7  O   LIG d   1       0.542  84.137 114.263  0.00  0.00    -0.368 OA
BRANCH   7   8
ATOM      8  C   LIG d   1       0.361  85.574 114.233  0.00  0.00     0.119 C 
BRANCH   8   9
ATOM      9  C   LIG d   1       1.749  86.219 114.415  0.00  0.00     0.028 C 
ATOM     10  C   LIG d   1       2.592  85.505 115.485  0.00  0.00     0.006 C 
ENDBRANCH   8   9
BRANCH   8  11
ATOM     11  C   LIG d   1      -0.469  86.057 115.425  0.00  0.00     0.028 C 
ATOM     12  C   LIG d   1      -1.982  85.987 115.165  0.00  0.00     0.006 C 
ENDBRANCH   8  11
ENDBRANCH   7   8
ENDBRANCH   1   7
BRANCH   6  13
ATOM     13  N   LIG d   1       2.257  83.642 111.835  0.00  0.00    -0.311 N 
ATOM     14  C   LIG d   1       3.490  83.914 112.259  0.00  0.00     0.210 C 
ATOM     15  C   LIG d   1       4.232  84.981 111.447  0.00  0.00     0.109 C 
ATOM     16  O   LIG d   1       4.051  83.351 113.210  0.00  0.00    -0.276 OA
ATOM     17  H   LIG d   1       1.893  84.124 111.036  0.00  0.00     0.149 HD
ENDBRANCH   6  13
BRANCH   5  18
ATOM     18  N   LIG d   1       2.036  80.697 111.055  0.00  0.00     0.381 N 
ATOM     19  H   LIG d   1       1.899  80.464 110.092  0.00  0.00    -0.090 HD
ATOM     20  H   LIG d   1       2.056  79.844 111.586  0.00  0.00    -0.090 HD
ATOM     21  H   LIG d   1       2.897  81.186 111.167  0.00  0.00    -0.090 HD
ENDBRANCH   5  18
BRANCH   3  22
ATOM     22  C   LIG d   1      -2.336  80.659 113.008  0.00  0.00     0.382 C 
ATOM     23  O   LIG d   1      -2.444  79.667 113.768  0.00  0.00    -0.241 OA
ATOM     24  O   LIG d   1      -3.320  81.031 112.341  0.00  0.00    -0.241 OA
ENDBRANCH   3  22
TORSDOF 7
ENDMDL
MODEL 8
REMARK VINA RESULT:      -4.9      3.409      5.534
REMARK  7 active torsions:
REMARK  status: ('A' for Active; 'I' for Inactive)
REMARK    1  A    between atoms: C_2  and  C_3 
REMARK    2  A    between atoms: C_3  and  O_6 
REMARK    3  A    between atoms: C_3  and  C_4 
REMARK    4  A    between atoms: C_7  and  O_6 
REMARK    5  A    between atoms: C_9  and  C_10 
REMARK    6  A    between atoms: N_15  and  C_14 
REMARK    7  A    between atoms: N_20  and  C_19 
REMARK       I    between atoms: C_22  and  N_20 
ROOT
ATOM      1  C   LIG d   1      -5.975  77.225 117.532  0.00  0.00     0.161 C 
ATOM      2  C   LIG d   1      -7.338  77.566 117.492  0.00  0.00     0.016 C 
ATOM      3  C   LIG d   1      -7.852  78.777 118.008  0.00  0.00     0.038 C 
ATOM      4  C   LIG d   1      -7.013  79.804 118.465  0.00  0.00     0.028 C 
ATOM      5  C   LIG d   1      -5.672  79.302 118.990  0.00  0.00    -0.047 C 
ATOM      6  C   LIG d   1      -5.031  78.380 117.927  0.00  0.00     0.091 C 
ENDROOT
BRANCH   1   7
ATOM      7  O   LIG d   1      -5.575  76.661 116.267  0.00  0.00    -0.368 OA
BRANCH   7   8
ATOM      8  C   LIG d   1      -5.024  75.322 116.312  0.00  0.00     0.119 C 
BRANCH   8   9
ATOM      9  C   LIG d   1      -4.524  74.980 114.896  0.00  0.00     0.028 C 
ATOM     10  C   LIG d   1      -3.108  75.518 114.628  0.00  0.00     0.006 C 
ENDBRANCH   8   9
BRANCH   8  11
ATOM     11  C   LIG d   1      -6.107  74.284 116.621  0.00  0.00     0.028 C 
ATOM     12  C   LIG d   1      -6.011  73.038 115.727  0.00  0.00     0.006 C 
ENDBRANCH   8  11
ENDBRANCH   7   8
ENDBRANCH   1   7
BRANCH   6  13
ATOM     13  N   LIG d   1      -3.755  77.778 118.394  0.00  0.00    -0.311 N 
ATOM     14  C   LIG d   1      -2.637  77.779 117.671  0.00  0.00     0.210 C 
ATOM     15  C   LIG d   1      -1.440  77.087 118.331  0.00  0.00     0.109 C 
ATOM     16  O   LIG d   1      -2.513  78.314 116.559  0.00  0.00    -0.276 OA
ATOM     17  H   LIG d   1      -3.757  77.350 119.299  0.00  0.00     0.149 HD
ENDBRANCH   6  13
BRANCH   5  18
ATOM     18  N   LIG d   1      -4.846  80.483 119.305  0.00  0.00     0.381 N 
ATOM     19  H   LIG d   1      -4.332  80.763 118.493  0.00  0.00    -0.090 HD
ATOM     20  H   LIG d   1      -4.190  80.238 120.025  0.00  0.00    -0.090 HD
ATOM     21  H   LIG d   1      -5.426  81.232 119.614  0.00  0.00    -0.090 HD
ENDBRANCH   5  18
BRANCH   3  22
ATOM     22  C   LIG d   1      -9.224  78.955 118.105  0.00  0.00     0.382 C 
ATOM     23  O   LIG d   1      -9.716  80.105 118.008  0.00  0.00    -0.241 OA
ATOM     24  O   LIG d   1      -9.972  77.985 118.333  0.00  0.00    -0.241 OA
ENDBRANCH   3  22
TORSDOF 7
ENDMDL
MODEL 9
REMARK VINA RESULT:      -4.8      9.808     11.951
REMARK  7 active torsions:
REMARK  status: ('A' for Active; 'I' for Inactive)
REMARK    1  A    between atoms: C_2  and  C_3 
REMARK    2  A    between atoms: C_3  and  O_6 
REMARK    3  A    between atoms: C_3  and  C_4 
REMARK    4  A    between atoms: C_7  and  O_6 
REMARK    5  A    between atoms: C_9  and  C_10 
REMARK    6  A    between atoms: N_15  and  C_14 
REMARK    7  A    between atoms: N_20  and  C_19 
REMARK       I    between atoms: C_22  and  N_20 
ROOT
ATOM      1  C   LIG d   1       3.452  86.343 113.416  0.00  0.00     0.161 C 
ATOM      2  C   LIG d   1       3.680  87.716 113.220  0.00  0.00     0.016 C 
ATOM      3  C   LIG d   1       4.674  88.446 113.912  0.00  0.00     0.038 C 
ATOM      4  C   LIG d   1       5.613  87.817 114.742  0.00  0.00     0.028 C 
ATOM      5  C   LIG d   1       5.104  86.518 115.358  0.00  0.00    -0.047 C 
ATOM      6  C   LIG d   1       4.540  85.618 114.236  0.00  0.00     0.091 C 
ENDROOT
BRANCH   1   7
ATOM      7  O   LIG d   1       3.265  85.692 112.144  0.00  0.00    -0.368 OA
BRANCH   7   8
ATOM      8  C   LIG d   1       1.956  85.119 111.908  0.00  0.00     0.119 C 
BRANCH   8   9
ATOM      9  C   LIG d   1       2.153  83.851 111.055  0.00  0.00     0.028 C 
ATOM     10  C   LIG d   1       1.402  82.636 111.628  0.00  0.00     0.006 C 
ENDBRANCH   8   9
BRANCH   8  11
ATOM     11  C   LIG d   1       1.086  86.049 111.056  0.00  0.00     0.028 C 
ATOM     12  C   LIG d   1      -0.408  85.949 111.402  0.00  0.00     0.006 C 
ENDBRANCH   8  11
ENDBRANCH   7   8
ENDBRANCH   1   7
BRANCH   6  13
ATOM     13  N   LIG d   1       3.944  84.362 114.762  0.00  0.00    -0.311 N 
ATOM     14  C   LIG d   1       4.249  83.153 114.294  0.00  0.00     0.210 C 
ATOM     15  C   LIG d   1       3.505  81.993 114.963  0.00  0.00     0.109 C 
ATOM     16  O   LIG d   1       5.089  82.928 113.409  0.00  0.00    -0.276 OA
ATOM     17  H   LIG d   1       3.275  84.450 115.502  0.00  0.00     0.149 HD
ENDBRANCH   6  13
BRANCH   5  18
ATOM     18  N   LIG d   1       6.227  85.899 116.086  0.00  0.00     0.381 N 
ATOM     19  H   LIG d   1       5.951  85.694 117.026  0.00  0.00    -0.090 HD
ATOM     20  H   LIG d   1       6.992  86.550 116.118  0.00  0.00    -0.090 HD
ATOM     21  H   LIG d   1       6.512  85.063 115.627  0.00  0.00    -0.090 HD
ENDBRANCH   5  18
BRANCH   3  22
ATOM     22  C   LIG d   1       4.709  89.828 113.807  0.00  0.00     0.382 C 
ATOM     23  O   LIG d   1       4.593  90.538 114.835  0.00  0.00    -0.241 OA
ATOM     24  O   LIG d   1       4.810  90.374 112.692  0.00  0.00    -0.241 OA
ENDBRANCH   3  22
TORSDOF 7
ENDMDL
