MODEL 1
REMARK VINA RESULT:      -5.5      0.000      0.000
REMARK  7 active torsions:
REMARK  status: ('A' for Active; 'I' for Inactive)
REMARK    1  A    between atoms: C_2  and  C_3 
REMARK    2  A    between atoms: C_3  and  O_6 
REMARK    3  A    between atoms: C_3  and  C_4 
REMARK    4  A    between atoms: C_7  and  O_6 
REMARK    5  A    between atoms: C_9  and  C_10 
REMARK    6  A    between atoms: N_15  and  C_14 
REMARK    7  A    between atoms: N_20  and  C_19 
REMARK       I    between atoms: C_22  and  N_20 
ROOT
ATOM      1  C   LIG d   1      -3.216  77.111 116.523  0.00  0.00     0.161 C 
ATOM      2  C   LIG d   1      -3.451  78.058 115.513  0.00  0.00     0.016 C 
ATOM      3  C   LIG d   1      -2.555  78.295 114.445  0.00  0.00     0.038 C 
ATOM      4  C   LIG d   1      -1.427  77.488 114.231  0.00  0.00     0.028 C 
ATOM      5  C   LIG d   1      -0.887  76.851 115.507  0.00  0.00    -0.047 C 
ATOM      6  C   LIG d   1      -2.046  76.144 116.245  0.00  0.00     0.091 C 
ENDROOT
BRANCH   1   7
ATOM      7  O   LIG d   1      -4.424  76.371 116.789  0.00  0.00    -0.368 OA
BRANCH   7   8
ATOM      8  C   LIG d   1      -5.598  76.778 116.044  0.00  0.00     0.119 C 
BRANCH   8   9
ATOM      9  C   LIG d   1      -6.681  77.176 117.066  0.00  0.00     0.028 C 
ATOM     10  C   LIG d   1      -7.946  76.310 116.948  0.00  0.00     0.006 C 
ENDBRANCH   8   9
BRANCH   8  11
ATOM     11  C   LIG d   1      -6.194  75.606 115.258  0.00  0.00     0.028 C 
ATOM     12  C   LIG d   1      -5.132  74.592 114.805  0.00  0.00     0.006 C 
ENDBRANCH   8  11
ENDBRANCH   7   8
ENDBRANCH   1   7
BRANCH   6  13
ATOM     13  N   LIG d   1      -1.620  75.567 117.547  0.00  0.00    -0.311 N 
ATOM     14  C   LIG d   1      -1.185  74.316 117.686  0.00  0.00     0.210 C 
ATOM     15  C   LIG d   1      -0.816  73.915 119.118  0.00  0.00     0.109 C 
ATOM     16  O   LIG d   1      -1.039  73.510 116.755  0.00  0.00    -0.276 OA
ATOM     17  H   LIG d   1      -1.677  76.161 118.350  0.00  0.00     0.149 HD
ENDBRANCH   6  13
BRANCH   5  18
ATOM     18  N   LIG d   1       0.199  75.931 115.120  0.00  0.00     0.381 N 
ATOM     19  H   LIG d   1      -0.160  75.219 114.516  0.00  0.00    -0.090 HD
ATOM     20  H   LIG d   1       0.562  75.490 115.947  0.00  0.00    -0.090 HD
ATOM     21  H   LIG d   1       0.924  76.434 114.657  0.00  0.00    -0.090 HD
ENDBRANCH   5  18
BRANCH   3  22
ATOM     22  C   LIG d   1      -2.762  79.374 113.600  0.00  0.00     0.382 C 
ATOM     23  O   LIG d   1      -3.376  80.387 114.016  0.00  0.00    -0.241 OA
ATOM     24  O   LIG d   1      -2.382  79.331 112.415  0.00  0.00    -0.241 OA
ENDBRANCH   3  22
TORSDOF 7
ENDMDL
MODEL 2
REMARK VINA RESULT:      -5.3      9.156     11.819
REMARK  7 active torsions:
REMARK  status: ('A' for Active; 'I' for Inactive)
REMARK    1  A    between atoms: C_2  and  C_3 
REMARK    2  A    between atoms: C_3  and  O_6 
REMARK    3  A    between atoms: C_3  and  C_4 
REMARK    4  A    between atoms: C_7  and  O_6 
REMARK    5  A    between atoms: C_9  and  C_10 
REMARK    6  A    between atoms: N_15  and  C_14 
REMARK    7  A    between atoms: N_20  and  C_19 
REMARK       I    between atoms: C_22  and  N_20 
ROOT
ATOM      1  C   LIG d   1       3.472  85.391 113.083  0.00  0.00     0.161 C 
ATOM      2  C   LIG d   1       4.155  86.552 113.482  0.00  0.00     0.016 C 
ATOM      3  C   LIG d   1       3.620  87.854 113.352  0.00  0.00     0.038 C 
ATOM      4  C   LIG d   1       2.294  88.073 112.950  0.00  0.00     0.028 C 
ATOM      5  C   LIG d   1       1.740  86.966 112.059  0.00  0.00    -0.047 C 
ATOM      6  C   LIG d   1       1.981  85.602 112.746  0.00  0.00     0.091 C 
ENDROOT
BRANCH   1   7
ATOM      7  O   LIG d   1       3.618  84.368 114.088  0.00  0.00    -0.368 OA
BRANCH   7   8
ATOM      8  C   LIG d   1       3.026  84.655 115.380  0.00  0.00     0.119 C 
BRANCH   8   9
ATOM      9  C   LIG d   1       4.113  84.422 116.448  0.00  0.00     0.028 C 
ATOM     10  C   LIG d   1       4.571  85.731 117.113  0.00  0.00     0.006 C 
ENDBRANCH   8   9
BRANCH   8  11
ATOM     11  C   LIG d   1       1.910  83.661 115.714  0.00  0.00     0.028 C 
ATOM     12  C   LIG d   1       2.018  82.352 114.915  0.00  0.00     0.006 C 
ENDBRANCH   8  11
ENDBRANCH   7   8
ENDBRANCH   1   7
BRANCH   6  13
ATOM     13  N   LIG d   1       1.544  84.458 111.903  0.00  0.00    -0.311 N 
ATOM     14  C   LIG d   1       0.344  83.889 112.005  0.00  0.00     0.210 C 
ATOM     15  C   LIG d   1       0.105  82.711 111.055  0.00  0.00     0.109 C 
ATOM     16  O   LIG d   1      -0.556  84.269 112.768  0.00  0.00    -0.276 OA
ATOM     17  H   LIG d   1       2.202  84.107 111.235  0.00  0.00     0.149 HD
ENDBRANCH   6  13
BRANCH   5  18
ATOM     18  N   LIG d   1       0.311  87.253 111.829  0.00  0.00     0.381 N 
ATOM     19  H   LIG d   1      -0.074  87.717 112.627  0.00  0.00    -0.090 HD
ATOM     20  H   LIG d   1      -0.178  86.384 111.702  0.00  0.00    -0.090 HD
ATOM     21  H   LIG d   1       0.204  87.823 111.019  0.00  0.00    -0.090 HD
ENDBRANCH   5  18
BRANCH   3  22
ATOM     22  C   LIG d   1       4.428  88.956 113.587  0.00  0.00     0.382 C 
ATOM     23  O   LIG d   1       3.945  89.984 114.119  0.00  0.00    -0.241 OA
ATOM     24  O   LIG d   1       5.622  88.951 113.234  0.00  0.00    -0.241 OA
ENDBRANCH   3  22
TORSDOF 7
ENDMDL
MODEL 3
REMARK VINA RESULT:      -5.1     10.927     13.428
REMARK  7 active torsions:
REMARK  status: ('A' for Active; 'I' for Inactive)
REMARK    1  A    between atoms: C_2  and  C_3 
REMARK    2  A    between atoms: C_3  and  O_6 
REMARK    3  A    between atoms: C_3  and  C_4 
REMARK    4  A    between atoms: C_7  and  O_6 
REMARK    5  A    between atoms: C_9  and  C_10 
REMARK    6  A    between atoms: N_15  and  C_14 
REMARK    7  A    between atoms: N_20  and  C_19 
REMARK       I    between atoms: C_22  and  N_20 
ROOT
ATOM      1  C   LIG d   1       2.897  87.974 114.724  0.00  0.00     0.161 C 
ATOM      2  C   LIG d   1       2.800  88.992 115.687  0.00  0.00     0.016 C 
ATOM      3  C   LIG d   1       3.747  90.034 115.816  0.00  0.00     0.038 C 
ATOM      4  C   LIG d   1       4.782  90.215 114.887  0.00  0.00     0.028 C 
ATOM      5  C   LIG d   1       5.211  88.923 114.199  0.00  0.00    -0.047 C 
ATOM      6  C   LIG d   1       3.959  88.217 113.631  0.00  0.00     0.091 C 
ENDROOT
BRANCH   1   7
ATOM      7  O   LIG d   1       1.607  87.742 114.126  0.00  0.00    -0.368 OA
BRANCH   7   8
ATOM      8  C   LIG d   1       0.912  86.545 114.554  0.00  0.00     0.119 C 
BRANCH   8   9
ATOM      9  C   LIG d   1       1.951  85.617 115.214  0.00  0.00     0.028 C 
ATOM     10  C   LIG d   1       1.619  85.317 116.685  0.00  0.00     0.006 C 
ENDBRANCH   8   9
BRANCH   8  11
ATOM     11  C   LIG d   1       0.369  85.758 113.357  0.00  0.00     0.028 C 
ATOM     12  C   LIG d   1       0.958  84.342 113.257  0.00  0.00     0.006 C 
ENDBRANCH   8  11
ENDBRANCH   7   8
ENDBRANCH   1   7
BRANCH   6  13
ATOM     13  N   LIG d   1       4.280  86.903 113.015  0.00  0.00    -0.311 N 
ATOM     14  C   LIG d   1       3.701  86.454 111.903  0.00  0.00     0.210 C 
ATOM     15  C   LIG d   1       4.162  85.065 111.449  0.00  0.00     0.109 C 
ATOM     16  O   LIG d   1       2.873  87.088 111.231  0.00  0.00    -0.276 OA
ATOM     17  H   LIG d   1       4.964  86.337 113.478  0.00  0.00     0.149 HD
ENDBRANCH   6  13
BRANCH   5  18
ATOM     18  N   LIG d   1       6.197  89.277 113.161  0.00  0.00     0.381 N 
ATOM     19  H   LIG d   1       6.050  88.713 112.348  0.00  0.00    -0.090 HD
ATOM     20  H   LIG d   1       7.120  89.090 113.511  0.00  0.00    -0.090 HD
ATOM     21  H   LIG d   1       6.113  90.241 112.925  0.00  0.00    -0.090 HD
ENDBRANCH   5  18
BRANCH   3  22
ATOM     22  C   LIG d   1       3.686  90.886 116.908  0.00  0.00     0.382 C 
ATOM     23  O   LIG d   1       3.489  92.113 116.736  0.00  0.00    -0.241 OA
ATOM     24  O   LIG d   1       3.871  90.450 118.061  0.00  0.00    -0.241 OA
ENDBRANCH   3  22
TORSDOF 7
ENDMDL
MODEL 4
REMARK VINA RESULT:      -5.1      9.654     11.900
REMARK  7 active torsions:
REMARK  status: ('A' for Active; 'I' for Inactive)
REMARK    1  A    between atoms: C_2  and  C_3 
REMARK    2  A    between atoms: C_3  and  O_6 
REMARK    3  A    between atoms: C_3  and  C_4 
REMARK    4  A    between atoms: C_7  and  O_6 
REMARK    5  A    between atoms: C_9  and  C_10 
REMARK    6  A    between atoms: N_15  and  C_14 
REMARK    7  A    between atoms: N_20  and  C_19 
REMARK       I    between atoms: C_22  and  N_20 
ROOT
ATOM      1  C   LIG d   1       2.039  86.657 114.764  0.00  0.00     0.161 C 
ATOM      2  C   LIG d   1       2.507  87.920 114.367  0.00  0.00     0.016 C 
ATOM      3  C   LIG d   1       3.766  88.439 114.748  0.00  0.00     0.038 C 
ATOM      4  C   LIG d   1       4.711  87.662 115.433  0.00  0.00     0.028 C 
ATOM      5  C   LIG d   1       4.088  86.563 116.287  0.00  0.00    -0.047 C 
ATOM      6  C   LIG d   1       3.102  85.750 115.418  0.00  0.00     0.091 C 
ENDROOT
BRANCH   1   7
ATOM      7  O   LIG d   1       1.430  85.987 113.642  0.00  0.00    -0.368 OA
BRANCH   7   8
ATOM      8  C   LIG d   1       1.576  86.637 112.355  0.00  0.00     0.119 C 
BRANCH   8   9
ATOM      9  C   LIG d   1       0.178  86.707 111.711  0.00  0.00     0.028 C 
ATOM     10  C   LIG d   1      -0.840  85.796 112.418  0.00  0.00     0.006 C 
ENDBRANCH   8   9
BRANCH   8  11
ATOM     11  C   LIG d   1       2.423  85.793 111.397  0.00  0.00     0.028 C 
ATOM     12  C   LIG d   1       3.929  86.061 111.539  0.00  0.00     0.006 C 
ENDBRANCH   8  11
ENDBRANCH   7   8
ENDBRANCH   1   7
BRANCH   6  13
ATOM     13  N   LIG d   1       2.385  84.708 116.198  0.00  0.00    -0.311 N 
ATOM     14  C   LIG d   1       2.825  83.457 116.328  0.00  0.00     0.210 C 
ATOM     15  C   LIG d   1       1.923  82.538 117.159  0.00  0.00     0.109 C 
ATOM     16  O   LIG d   1       3.892  83.030 115.862  0.00  0.00    -0.276 OA
ATOM     17  H   LIG d   1       1.526  84.976 116.637  0.00  0.00     0.149 HD
ENDBRANCH   6  13
BRANCH   5  18
ATOM     18  N   LIG d   1       5.187  85.745 116.834  0.00  0.00     0.381 N 
ATOM     19  H   LIG d   1       4.891  85.300 117.679  0.00  0.00    -0.090 HD
ATOM     20  H   LIG d   1       5.963  86.346 117.050  0.00  0.00    -0.090 HD
ATOM     21  H   LIG d   1       5.465  85.059 116.168  0.00  0.00    -0.090 HD
ENDBRANCH   5  18
BRANCH   3  22
ATOM     22  C   LIG d   1       4.073  89.764 114.478  0.00  0.00     0.382 C 
ATOM     23  O   LIG d   1       3.885  90.642 115.354  0.00  0.00    -0.241 OA
ATOM     24  O   LIG d   1       4.495  90.099 113.355  0.00  0.00    -0.241 OA
ENDBRANCH   3  22
TORSDOF 7
ENDMDL
MODEL 5
REMARK VINA RESULT:      -5.0     12.299     14.757
REMARK  7 active torsions:
REMARK  status: ('A' for Active; 'I' for Inactive)
REMARK    1  A    between atoms: C_2  and  C_3 
REMARK    2  A    between atoms: C_3  and  O_6 
REMARK    3  A    between atoms: C_3  and  C_4 
REMARK    4  A    between atoms: C_7  and  O_6 
REMARK    5  A    between atoms: C_9  and  C_10 
REMARK    6  A    between atoms: N_15  and  C_14 
REMARK    7  A    between atoms: N_20  and  C_19 
REMARK       I    between atoms: C_22  and  N_20 
ROOT
ATOM      1  C   LIG d   1      10.493  79.250 114.911  0.00  0.00     0.161 C 
ATOM      2  C   LIG d   1       9.178  79.681 115.156  0.00  0.00     0.016 C 
ATOM      3  C   LIG d   1       8.158  78.829 115.638  0.00  0.00     0.038 C 
ATOM      4  C   LIG d   1       8.423  77.516 116.055  0.00  0.00     0.028 C 
ATOM      5  C   LIG d   1       9.623  76.889 115.353  0.00  0.00    -0.047 C 
ATOM      6  C   LIG d   1      10.828  77.850 115.465  0.00  0.00     0.091 C 
ENDROOT
BRANCH   1   7
ATOM      7  O   LIG d   1      11.427  80.225 115.414  0.00  0.00    -0.368 OA
BRANCH   7   8
ATOM      8  C   LIG d   1      12.082  81.053 114.421  0.00  0.00     0.119 C 
BRANCH   8   9
ATOM      9  C   LIG d   1      11.805  80.426 113.041  0.00  0.00     0.028 C 
ATOM     10  C   LIG d   1      11.075  81.393 112.093  0.00  0.00     0.006 C 
ENDBRANCH   8   9
BRANCH   8  11
ATOM     11  C   LIG d   1      13.604  81.019 114.583  0.00  0.00     0.028 C 
ATOM     12  C   LIG d   1      14.323  80.453 113.348  0.00  0.00     0.006 C 
ENDBRANCH   8  11
ENDBRANCH   7   8
ENDBRANCH   1   7
BRANCH   6  13
ATOM     13  N   LIG d   1      12.021  77.351 114.732  0.00  0.00    -0.311 N 
ATOM     14  C   LIG d   1      13.250  77.352 115.245  0.00  0.00     0.210 C 
ATOM     15  C   LIG d   1      14.340  76.811 114.313  0.00  0.00     0.109 C 
ATOM     16  O   LIG d   1      13.537  77.719 116.394  0.00  0.00    -0.276 OA
ATOM     17  H   LIG d   1      11.874  77.005 113.803  0.00  0.00     0.149 HD
ENDBRANCH   6  13
BRANCH   5  18
ATOM     18  N   LIG d   1       9.869  75.576 115.979  0.00  0.00     0.381 N 
ATOM     19  H   LIG d   1      10.847  75.465 116.158  0.00  0.00    -0.090 HD
ATOM     20  H   LIG d   1       9.580  74.854 115.344  0.00  0.00    -0.090 HD
ATOM     21  H   LIG d   1       9.358  75.504 116.832  0.00  0.00    -0.090 HD
ENDBRANCH   5  18
BRANCH   3  22
ATOM     22  C   LIG d   1       6.846  79.278 115.670  0.00  0.00     0.382 C 
ATOM     23  O   LIG d   1       6.446  79.978 116.631  0.00  0.00    -0.241 OA
ATOM     24  O   LIG d   1       6.046  78.954 114.772  0.00  0.00    -0.241 OA
ENDBRANCH   3  22
TORSDOF 7
ENDMDL
MODEL 6
REMARK VINA RESULT:      -4.8      9.929     12.241
REMARK  7 active torsions:
REMARK  status: ('A' for Active; 'I' for Inactive)
REMARK    1  A    between atoms: C_2  and  C_3 
REMARK    2  A    between atoms: C_3  and  O_6 
REMARK    3  A    between atoms: C_3  and  C_4 
REMARK    4  A    between atoms: C_7  and  O_6 
REMARK    5  A    between atoms: C_9  and  C_10 
REMARK    6  A    between atoms: N_15  and  C_14 
REMARK    7  A    between atoms: N_20  and  C_19 
REMARK       I    between atoms: C_22  and  N_20 
ROOT
ATOM      1  C   LIG d   1       1.750  86.548 114.159  0.00  0.00     0.161 C 
ATOM      2  C   LIG d   1       0.569  85.945 113.694  0.00  0.00     0.016 C 
ATOM      3  C   LIG d   1       0.474  85.276 112.453  0.00  0.00     0.038 C 
ATOM      4  C   LIG d   1       1.601  85.032 111.653  0.00  0.00     0.028 C 
ATOM      5  C   LIG d   1       2.711  86.059 111.842  0.00  0.00    -0.047 C 
ATOM      6  C   LIG d   1       3.017  86.196 113.351  0.00  0.00     0.091 C 
ENDROOT
BRANCH   1   7
ATOM      7  O   LIG d   1       1.942  86.237 115.553  0.00  0.00    -0.368 OA
BRANCH   7   8
ATOM      8  C   LIG d   1       1.710  87.321 116.486  0.00  0.00     0.119 C 
BRANCH   8   9
ATOM      9  C   LIG d   1       3.045  87.612 117.198  0.00  0.00     0.028 C 
ATOM     10  C   LIG d   1       3.380  89.113 117.226  0.00  0.00     0.006 C 
ENDBRANCH   8   9
BRANCH   8  11
ATOM     11  C   LIG d   1       0.740  86.903 117.596  0.00  0.00     0.028 C 
ATOM     12  C   LIG d   1      -0.282  87.998 117.937  0.00  0.00     0.006 C 
ENDBRANCH   8  11
ENDBRANCH   7   8
ENDBRANCH   1   7
BRANCH   6  13
ATOM     13  N   LIG d   1       4.034  87.243 113.631  0.00  0.00    -0.311 N 
ATOM     14  C   LIG d   1       3.795  88.548 113.511  0.00  0.00     0.210 C 
ATOM     15  C   LIG d   1       4.988  89.455 113.829  0.00  0.00     0.109 C 
ATOM     16  O   LIG d   1       2.700  89.041 113.202  0.00  0.00    -0.276 OA
ATOM     17  H   LIG d   1       4.942  86.932 113.918  0.00  0.00     0.149 HD
ENDBRANCH   6  13
BRANCH   5  18
ATOM     18  N   LIG d   1       3.875  85.608 111.056  0.00  0.00     0.381 N 
ATOM     19  H   LIG d   1       3.566  85.216 110.189  0.00  0.00    -0.090 HD
ATOM     20  H   LIG d   1       4.358  84.893 111.571  0.00  0.00    -0.090 HD
ATOM     21  H   LIG d   1       4.487  86.375 110.882  0.00  0.00    -0.090 HD
ENDBRANCH   5  18
BRANCH   3  22
ATOM     22  C   LIG d   1      -0.768  84.878 111.980  0.00  0.00     0.382 C 
ATOM     23  O   LIG d   1      -1.217  83.745 112.277  0.00  0.00    -0.241 OA
ATOM     24  O   LIG d   1      -1.424  85.619 111.224  0.00  0.00    -0.241 OA
ENDBRANCH   3  22
TORSDOF 7
ENDMDL
MODEL 7
REMARK VINA RESULT:      -4.7      2.728      3.944
REMARK  7 active torsions:
REMARK  status: ('A' for Active; 'I' for Inactive)
REMARK    1  A    between atoms: C_2  and  C_3 
REMARK    2  A    between atoms: C_3  and  O_6 
REMARK    3  A    between atoms: C_3  and  C_4 
REMARK    4  A    between atoms: C_7  and  O_6 
REMARK    5  A    between atoms: C_9  and  C_10 
REMARK    6  A    between atoms: N_15  and  C_14 
REMARK    7  A    between atoms: N_20  and  C_19 
REMARK       I    between atoms: C_22  and  N_20 
ROOT
ATOM      1  C   LIG d   1      -3.900  78.250 116.983  0.00  0.00     0.161 C 
ATOM      2  C   LIG d   1      -3.233  79.350 117.547  0.00  0.00     0.016 C 
ATOM      3  C   LIG d   1      -1.932  79.752 117.164  0.00  0.00     0.038 C 
ATOM      4  C   LIG d   1      -1.266  79.168 116.076  0.00  0.00     0.028 C 
ATOM      5  C   LIG d   1      -1.692  77.729 115.807  0.00  0.00    -0.047 C 
ATOM      6  C   LIG d   1      -3.234  77.670 115.717  0.00  0.00     0.091 C 
ENDROOT
BRANCH   1   7
ATOM      7  O   LIG d   1      -5.272  78.598 116.712  0.00  0.00    -0.368 OA
BRANCH   7   8
ATOM      8  C   LIG d   1      -6.255  78.087 117.646  0.00  0.00     0.119 C 
BRANCH   8   9
ATOM      9  C   LIG d   1      -7.050  76.983 116.923  0.00  0.00     0.028 C 
ATOM     10  C   LIG d   1      -8.402  76.695 117.598  0.00  0.00     0.006 C 
ENDBRANCH   8   9
BRANCH   8  11
ATOM     11  C   LIG d   1      -7.288  79.158 118.009  0.00  0.00     0.028 C 
ATOM     12  C   LIG d   1      -6.755  80.588 117.822  0.00  0.00     0.006 C 
ENDBRANCH   8  11
ENDBRANCH   7   8
ENDBRANCH   1   7
BRANCH   6  13
ATOM     13  N   LIG d   1      -3.739  76.283 115.539  0.00  0.00    -0.311 N 
ATOM     14  C   LIG d   1      -4.503  75.907 114.515  0.00  0.00     0.210 C 
ATOM     15  C   LIG d   1      -4.931  74.436 114.533  0.00  0.00     0.109 C 
ATOM     16  O   LIG d   1      -4.840  76.644 113.576  0.00  0.00    -0.276 OA
ATOM     17  H   LIG d   1      -3.487  75.613 116.239  0.00  0.00     0.149 HD
ENDBRANCH   6  13
BRANCH   5  18
ATOM     18  N   LIG d   1      -1.024  77.291 114.567  0.00  0.00     0.381 N 
ATOM     19  H   LIG d   1      -0.711  76.346 114.666  0.00  0.00    -0.090 HD
ATOM     20  H   LIG d   1      -0.221  77.874 114.407  0.00  0.00    -0.090 HD
ATOM     21  H   LIG d   1      -1.653  77.360 113.797  0.00  0.00    -0.090 HD
ENDBRANCH   5  18
BRANCH   3  22
ATOM     22  C   LIG d   1      -1.268  80.722 117.899  0.00  0.00     0.382 C 
ATOM     23  O   LIG d   1      -0.198  81.214 117.466  0.00  0.00    -0.241 OA
ATOM     24  O   LIG d   1      -1.702  81.080 119.010  0.00  0.00    -0.241 OA
ENDBRANCH   3  22
TORSDOF 7
ENDMDL
MODEL 8
REMARK VINA RESULT:      -4.7      8.836     11.179
REMARK  7 active torsions:
REMARK  status: ('A' for Active; 'I' for Inactive)
REMARK    1  A    between atoms: C_2  and  C_3 
REMARK    2  A    between atoms: C_3  and  O_6 
REMARK    3  A    between atoms: C_3  and  C_4 
REMARK    4  A    between atoms: C_7  and  O_6 
REMARK    5  A    between atoms: C_9  and  C_10 
REMARK    6  A    between atoms: N_15  and  C_14 
REMARK    7  A    between atoms: N_20  and  C_19 
REMARK       I    between atoms: C_22  and  N_20 
ROOT
ATOM      1  C   LIG d   1       1.814  86.262 114.256  0.00  0.00     0.161 C 
ATOM      2  C   LIG d   1       0.645  85.666 113.753  0.00  0.00     0.016 C 
ATOM      3  C   LIG d   1       0.551  85.107 112.458  0.00  0.00     0.038 C 
ATOM      4  C   LIG d   1       1.673  84.970 111.627  0.00  0.00     0.028 C 
ATOM      5  C   LIG d   1       2.755  86.011 111.894  0.00  0.00    -0.047 C 
ATOM      6  C   LIG d   1       3.079  86.023 113.405  0.00  0.00     0.091 C 
ENDROOT
BRANCH   1   7
ATOM      7  O   LIG d   1       2.035  85.835 115.614  0.00  0.00    -0.368 OA
BRANCH   7   8
ATOM      8  C   LIG d   1       1.449  84.563 115.986  0.00  0.00     0.119 C 
BRANCH   8   9
ATOM      9  C   LIG d   1       1.150  84.614 117.496  0.00  0.00     0.028 C 
ATOM     10  C   LIG d   1       0.739  83.244 118.060  0.00  0.00     0.006 C 
ENDBRANCH   8   9
BRANCH   8  11
ATOM     11  C   LIG d   1       2.449  83.416 115.809  0.00  0.00     0.028 C 
ATOM     12  C   LIG d   1       2.038  82.432 114.702  0.00  0.00     0.006 C 
ENDBRANCH   8  11
ENDBRANCH   7   8
ENDBRANCH   1   7
BRANCH   6  13
ATOM     13  N   LIG d   1       4.068  87.072 113.765  0.00  0.00    -0.311 N 
ATOM     14  C   LIG d   1       3.877  88.370 113.533  0.00  0.00     0.210 C 
ATOM     15  C   LIG d   1       5.032  89.280 113.964  0.00  0.00     0.109 C 
ATOM     16  O   LIG d   1       2.849  88.857 113.040  0.00  0.00    -0.276 OA
ATOM     17  H   LIG d   1       4.918  86.768 114.198  0.00  0.00     0.149 HD
ENDBRANCH   6  13
BRANCH   5  18
ATOM     18  N   LIG d   1       3.920  85.668 111.056  0.00  0.00     0.381 N 
ATOM     19  H   LIG d   1       3.700  84.883 110.475  0.00  0.00    -0.090 HD
ATOM     20  H   LIG d   1       4.686  85.414 111.653  0.00  0.00    -0.090 HD
ATOM     21  H   LIG d   1       4.174  86.448 110.490  0.00  0.00    -0.090 HD
ENDBRANCH   5  18
BRANCH   3  22
ATOM     22  C   LIG d   1      -0.684  84.714 111.967  0.00  0.00     0.382 C 
ATOM     23  O   LIG d   1      -1.282  85.429 111.128  0.00  0.00    -0.241 OA
ATOM     24  O   LIG d   1      -1.229  83.675 112.386  0.00  0.00    -0.241 OA
ENDBRANCH   3  22
TORSDOF 7
ENDMDL
MODEL 9
REMARK VINA RESULT:      -4.6     11.087     13.489
REMARK  7 active torsions:
REMARK  status: ('A' for Active; 'I' for Inactive)
REMARK    1  A    between atoms: C_2  and  C_3 
REMARK    2  A    between atoms: C_3  and  O_6 
REMARK    3  A    between atoms: C_3  and  C_4 
REMARK    4  A    between atoms: C_7  and  O_6 
REMARK    5  A    between atoms: C_9  and  C_10 
REMARK    6  A    between atoms: N_15  and  C_14 
REMARK    7  A    between atoms: N_20  and  C_19 
REMARK       I    between atoms: C_22  and  N_20 
ROOT
ATOM      1  C   LIG d   1       2.463  88.023 115.054  0.00  0.00     0.161 C 
ATOM      2  C   LIG d   1       2.646  86.999 114.109  0.00  0.00     0.016 C 
ATOM      3  C   LIG d   1       3.706  86.985 113.173  0.00  0.00     0.038 C 
ATOM      4  C   LIG d   1       4.749  87.923 113.219  0.00  0.00     0.028 C 
ATOM      5  C   LIG d   1       4.336  89.257 113.830  0.00  0.00    -0.047 C 
ATOM      6  C   LIG d   1       3.652  88.996 115.192  0.00  0.00     0.091 C 
ENDROOT
BRANCH   1   7
ATOM      7  O   LIG d   1       2.132  87.451 116.335  0.00  0.00    -0.368 OA
BRANCH   7   8
ATOM      8  C   LIG d   1       2.578  86.091 116.560  0.00  0.00     0.119 C 
BRANCH   8   9
ATOM      9  C   LIG d   1       1.485  85.375 117.376  0.00  0.00     0.028 C 
ATOM     10  C   LIG d   1       1.386  83.878 117.037  0.00  0.00     0.006 C 
ENDBRANCH   8   9
BRANCH   8  11
ATOM     11  C   LIG d   1       3.831  86.055 117.441  0.00  0.00     0.028 C 
ATOM     12  C   LIG d   1       5.106  85.724 116.650  0.00  0.00     0.006 C 
ENDBRANCH   8  11
ENDBRANCH   7   8
ENDBRANCH   1   7
BRANCH   6  13
ATOM     13  N   LIG d   1       3.142  90.243 115.819  0.00  0.00    -0.311 N 
ATOM     14  C   LIG d   1       3.639  90.754 116.944  0.00  0.00     0.210 C 
ATOM     15  C   LIG d   1       2.955  92.036 117.430  0.00  0.00     0.109 C 
ATOM     16  O   LIG d   1       4.603  90.286 117.569  0.00  0.00    -0.276 OA
ATOM     17  H   LIG d   1       2.381  90.706 115.361  0.00  0.00     0.149 HD
ENDBRANCH   6  13
BRANCH   5  18
ATOM     18  N   LIG d   1       5.548  90.090 113.943  0.00  0.00     0.381 N 
ATOM     19  H   LIG d   1       6.330  89.605 113.549  0.00  0.00    -0.090 HD
ATOM     20  H   LIG d   1       5.738  90.258 114.915  0.00  0.00    -0.090 HD
ATOM     21  H   LIG d   1       5.413  90.956 113.469  0.00  0.00    -0.090 HD
ENDBRANCH   5  18
BRANCH   3  22
ATOM     22  C   LIG d   1       3.709  86.047 112.152  0.00  0.00     0.382 C 
ATOM     23  O   LIG d   1       3.161  86.312 111.055  0.00  0.00    -0.241 OA
ATOM     24  O   LIG d   1       4.213  84.922 112.329  0.00  0.00    -0.241 OA
ENDBRANCH   3  22
TORSDOF 7
ENDMDL
