MODEL 1
REMARK VINA RESULT:      -5.4      0.000      0.000
REMARK  7 active torsions:
REMARK  status: ('A' for Active; 'I' for Inactive)
REMARK    1  A    between atoms: C_2  and  C_3 
REMARK    2  A    between atoms: C_3  and  O_6 
REMARK    3  A    between atoms: C_3  and  C_4 
REMARK    4  A    between atoms: C_7  and  O_6 
REMARK    5  A    between atoms: C_9  and  C_10 
REMARK    6  A    between atoms: N_15  and  C_14 
REMARK    7  A    between atoms: N_20  and  C_19 
REMARK       I    between atoms: C_22  and  N_20 
ROOT
ATOM      1  C   LIG d   1      -2.205  78.211 115.157  0.00  0.00     0.161 C 
ATOM      2  C   LIG d   1      -2.624  79.408 114.553  0.00  0.00     0.016 C 
ATOM      3  C   LIG d   1      -2.425  79.700 113.184  0.00  0.00     0.038 C 
ATOM      4  C   LIG d   1      -1.924  78.745 112.287  0.00  0.00     0.028 C 
ATOM      5  C   LIG d   1      -1.022  77.707 112.949  0.00  0.00    -0.047 C 
ATOM      6  C   LIG d   1      -1.757  77.111 114.171  0.00  0.00     0.091 C 
ENDROOT
BRANCH   1   7
ATOM      7  O   LIG d   1      -3.242  77.712 116.025  0.00  0.00    -0.368 OA
BRANCH   7   8
ATOM      8  C   LIG d   1      -3.417  78.417 117.279  0.00  0.00     0.119 C 
BRANCH   8   9
ATOM      9  C   LIG d   1      -2.277  77.980 118.219  0.00  0.00     0.028 C 
ATOM     10  C   LIG d   1      -2.384  76.500 118.622  0.00  0.00     0.006 C 
ENDBRANCH   8   9
BRANCH   8  11
ATOM     11  C   LIG d   1      -4.709  77.991 117.982  0.00  0.00     0.028 C 
ATOM     12  C   LIG d   1      -5.827  77.614 116.997  0.00  0.00     0.006 C 
ENDBRANCH   8  11
ENDBRANCH   7   8
ENDBRANCH   1   7
BRANCH   6  13
ATOM     13  N   LIG d   1      -0.912  76.148 114.925  0.00  0.00    -0.311 N 
ATOM     14  C   LIG d   1      -1.370  74.995 115.410  0.00  0.00     0.210 C 
ATOM     15  C   LIG d   1      -0.337  74.160 116.173  0.00  0.00     0.109 C 
ATOM     16  O   LIG d   1      -2.524  74.570 115.252  0.00  0.00    -0.276 OA
ATOM     17  H   LIG d   1       0.046  76.400 115.073  0.00  0.00     0.149 HD
ENDBRANCH   6  13
BRANCH   5  18
ATOM     18  N   LIG d   1      -0.683  76.697 111.929  0.00  0.00     0.381 N 
ATOM     19  H   LIG d   1      -1.475  76.109 111.758  0.00  0.00    -0.090 HD
ATOM     20  H   LIG d   1       0.066  76.124 112.275  0.00  0.00    -0.090 HD
ATOM     21  H   LIG d   1      -0.405  77.145 111.084  0.00  0.00    -0.090 HD
ENDBRANCH   5  18
BRANCH   3  22
ATOM     22  C   LIG d   1      -2.692  80.975 112.708  0.00  0.00     0.382 C 
ATOM     23  O   LIG d   1      -1.754  81.698 112.294  0.00  0.00    -0.241 OA
ATOM     24  O   LIG d   1      -3.852  81.427 112.728  0.00  0.00    -0.241 OA
ENDBRANCH   3  22
TORSDOF 7
ENDMDL
MODEL 2
REMARK VINA RESULT:      -5.2      8.820     11.057
REMARK  7 active torsions:
REMARK  status: ('A' for Active; 'I' for Inactive)
REMARK    1  A    between atoms: C_2  and  C_3 
REMARK    2  A    between atoms: C_3  and  O_6 
REMARK    3  A    between atoms: C_3  and  C_4 
REMARK    4  A    between atoms: C_7  and  O_6 
REMARK    5  A    between atoms: C_9  and  C_10 
REMARK    6  A    between atoms: N_15  and  C_14 
REMARK    7  A    between atoms: N_20  and  C_19 
REMARK       I    between atoms: C_22  and  N_20 
ROOT
ATOM      1  C   LIG d   1       2.697  86.362 114.344  0.00  0.00     0.161 C 
ATOM      2  C   LIG d   1       3.044  87.685 114.022  0.00  0.00     0.016 C 
ATOM      3  C   LIG d   1       4.131  88.370 114.612  0.00  0.00     0.038 C 
ATOM      4  C   LIG d   1       5.043  87.723 115.460  0.00  0.00     0.028 C 
ATOM      5  C   LIG d   1       4.440  86.536 116.204  0.00  0.00    -0.047 C 
ATOM      6  C   LIG d   1       3.746  85.605 115.185  0.00  0.00     0.091 C 
ENDROOT
BRANCH   1   7
ATOM      7  O   LIG d   1       2.394  85.629 113.141  0.00  0.00    -0.368 OA
BRANCH   7   8
ATOM      8  C   LIG d   1       2.756  86.273 111.894  0.00  0.00     0.119 C 
BRANCH   8   9
ATOM      9  C   LIG d   1       1.472  86.413 111.055  0.00  0.00     0.028 C 
ATOM     10  C   LIG d   1       0.234  85.856 111.779  0.00  0.00     0.006 C 
ENDBRANCH   8   9
BRANCH   8  11
ATOM     11  C   LIG d   1       3.691  85.390 111.062  0.00  0.00     0.028 C 
ATOM     12  C   LIG d   1       4.006  84.048 111.743  0.00  0.00     0.006 C 
ENDBRANCH   8  11
ENDBRANCH   7   8
ENDBRANCH   1   7
BRANCH   6  13
ATOM     13  N   LIG d   1       3.058  84.461 115.839  0.00  0.00    -0.311 N 
ATOM     14  C   LIG d   1       3.626  83.270 116.019  0.00  0.00     0.210 C 
ATOM     15  C   LIG d   1       2.734  82.225 116.697  0.00  0.00     0.109 C 
ATOM     16  O   LIG d   1       4.794  82.990 115.712  0.00  0.00    -0.276 OA
ATOM     17  H   LIG d   1       2.117  84.611 116.147  0.00  0.00     0.149 HD
ENDBRANCH   6  13
BRANCH   5  18
ATOM     18  N   LIG d   1       5.531  85.873 116.943  0.00  0.00     0.381 N 
ATOM     19  H   LIG d   1       6.390  86.364 116.791  0.00  0.00    -0.090 HD
ATOM     20  H   LIG d   1       5.637  84.937 116.596  0.00  0.00    -0.090 HD
ATOM     21  H   LIG d   1       5.320  85.852 117.917  0.00  0.00    -0.090 HD
ENDBRANCH   5  18
BRANCH   3  22
ATOM     22  C   LIG d   1       4.292  89.728 114.386  0.00  0.00     0.382 C 
ATOM     23  O   LIG d   1       4.273  90.531 115.350  0.00  0.00    -0.241 OA
ATOM     24  O   LIG d   1       4.411  90.166 113.226  0.00  0.00    -0.241 OA
ENDBRANCH   3  22
TORSDOF 7
ENDMDL
MODEL 3
REMARK VINA RESULT:      -5.1      1.728      2.515
REMARK  7 active torsions:
REMARK  status: ('A' for Active; 'I' for Inactive)
REMARK    1  A    between atoms: C_2  and  C_3 
REMARK    2  A    between atoms: C_3  and  O_6 
REMARK    3  A    between atoms: C_3  and  C_4 
REMARK    4  A    between atoms: C_7  and  O_6 
REMARK    5  A    between atoms: C_9  and  C_10 
REMARK    6  A    between atoms: N_15  and  C_14 
REMARK    7  A    between atoms: N_20  and  C_19 
REMARK       I    between atoms: C_22  and  N_20 
ROOT
ATOM      1  C   LIG d   1      -2.740  77.337 116.154  0.00  0.00     0.161 C 
ATOM      2  C   LIG d   1      -3.081  78.228 115.124  0.00  0.00     0.016 C 
ATOM      3  C   LIG d   1      -2.313  78.389 113.948  0.00  0.00     0.038 C 
ATOM      4  C   LIG d   1      -1.224  77.554 113.653  0.00  0.00     0.028 C 
ATOM      5  C   LIG d   1      -0.546  76.984 114.894  0.00  0.00    -0.047 C 
ATOM      6  C   LIG d   1      -1.618  76.339 115.801  0.00  0.00     0.091 C 
ENDROOT
BRANCH   1   7
ATOM      7  O   LIG d   1      -3.916  76.633 116.600  0.00  0.00    -0.368 OA
BRANCH   7   8
ATOM      8  C   LIG d   1      -5.186  77.158 116.142  0.00  0.00     0.119 C 
BRANCH   8   9
ATOM      9  C   LIG d   1      -5.944  77.682 117.377  0.00  0.00     0.028 C 
ATOM     10  C   LIG d   1      -7.197  76.849 117.693  0.00  0.00     0.006 C 
ENDBRANCH   8   9
BRANCH   8  11
ATOM     11  C   LIG d   1      -6.070  76.050 115.563  0.00  0.00     0.028 C 
ATOM     12  C   LIG d   1      -5.362  75.230 114.473  0.00  0.00     0.006 C 
ENDBRANCH   8  11
ENDBRANCH   7   8
ENDBRANCH   1   7
BRANCH   6  13
ATOM     13  N   LIG d   1      -1.050  75.830 117.077  0.00  0.00    -0.311 N 
ATOM     14  C   LIG d   1      -0.659  74.569 117.254  0.00  0.00     0.210 C 
ATOM     15  C   LIG d   1      -0.121  74.250 118.653  0.00  0.00     0.109 C 
ATOM     16  O   LIG d   1      -0.676  73.693 116.377  0.00  0.00    -0.276 OA
ATOM     17  H   LIG d   1      -0.971  76.482 117.833  0.00  0.00     0.149 HD
ENDBRANCH   6  13
BRANCH   5  18
ATOM     18  N   LIG d   1       0.480  76.026 114.440  0.00  0.00     0.381 N 
ATOM     19  H   LIG d   1       0.220  75.098 114.709  0.00  0.00    -0.090 HD
ATOM     20  H   LIG d   1       1.353  76.250 114.885  0.00  0.00    -0.090 HD
ATOM     21  H   LIG d   1       0.580  76.077 113.450  0.00  0.00    -0.090 HD
ENDBRANCH   5  18
BRANCH   3  22
ATOM     22  C   LIG d   1      -2.607  79.422 113.070  0.00  0.00     0.382 C 
ATOM     23  O   LIG d   1      -2.130  79.413 111.910  0.00  0.00    -0.241 OA
ATOM     24  O   LIG d   1      -3.307  80.383 113.438  0.00  0.00    -0.241 OA
ENDBRANCH   3  22
TORSDOF 7
ENDMDL
MODEL 4
REMARK VINA RESULT:      -5.0      2.250      5.362
REMARK  7 active torsions:
REMARK  status: ('A' for Active; 'I' for Inactive)
REMARK    1  A    between atoms: C_2  and  C_3 
REMARK    2  A    between atoms: C_3  and  O_6 
REMARK    3  A    between atoms: C_3  and  C_4 
REMARK    4  A    between atoms: C_7  and  O_6 
REMARK    5  A    between atoms: C_9  and  C_10 
REMARK    6  A    between atoms: N_15  and  C_14 
REMARK    7  A    between atoms: N_20  and  C_19 
REMARK       I    between atoms: C_22  and  N_20 
ROOT
ATOM      1  C   LIG d   1      -2.682  75.351 115.195  0.00  0.00     0.161 C 
ATOM      2  C   LIG d   1      -2.316  74.689 116.379  0.00  0.00     0.016 C 
ATOM      3  C   LIG d   1      -1.151  75.001 117.117  0.00  0.00     0.038 C 
ATOM      4  C   LIG d   1      -0.347  76.107 116.800  0.00  0.00     0.028 C 
ATOM      5  C   LIG d   1      -0.399  76.491 115.326  0.00  0.00    -0.047 C 
ATOM      6  C   LIG d   1      -1.877  76.633 114.896  0.00  0.00     0.091 C 
ENDROOT
BRANCH   1   7
ATOM      7  O   LIG d   1      -4.094  75.639 115.214  0.00  0.00    -0.368 OA
BRANCH   7   8
ATOM      8  C   LIG d   1      -4.670  75.921 116.513  0.00  0.00     0.119 C 
BRANCH   8   9
ATOM      9  C   LIG d   1      -6.087  75.315 116.533  0.00  0.00     0.028 C 
ATOM     10  C   LIG d   1      -6.108  73.854 116.052  0.00  0.00     0.006 C 
ENDBRANCH   8   9
BRANCH   8  11
ATOM     11  C   LIG d   1      -4.870  77.425 116.720  0.00  0.00     0.028 C 
ATOM     12  C   LIG d   1      -3.889  78.021 117.743  0.00  0.00     0.006 C 
ENDBRANCH   8  11
ENDBRANCH   7   8
ENDBRANCH   1   7
BRANCH   6  13
ATOM     13  N   LIG d   1      -2.021  76.925 113.446  0.00  0.00    -0.311 N 
ATOM     14  C   LIG d   1      -2.689  77.975 112.972  0.00  0.00     0.210 C 
ATOM     15  C   LIG d   1      -2.732  78.079 111.444  0.00  0.00     0.109 C 
ATOM     16  O   LIG d   1      -3.224  78.848 113.672  0.00  0.00    -0.276 OA
ATOM     17  H   LIG d   1      -1.591  76.285 112.807  0.00  0.00     0.149 HD
ENDBRANCH   6  13
BRANCH   5  18
ATOM     18  N   LIG d   1       0.372  77.738 115.163  0.00  0.00     0.381 N 
ATOM     19  H   LIG d   1      -0.053  78.472 115.694  0.00  0.00    -0.090 HD
ATOM     20  H   LIG d   1       0.361  78.003 114.193  0.00  0.00    -0.090 HD
ATOM     21  H   LIG d   1       1.311  77.600 115.466  0.00  0.00    -0.090 HD
ENDBRANCH   5  18
BRANCH   3  22
ATOM     22  C   LIG d   1      -0.758  74.179 118.162  0.00  0.00     0.382 C 
ATOM     23  O   LIG d   1      -1.458  73.186 118.475  0.00  0.00    -0.241 OA
ATOM     24  O   LIG d   1       0.264  74.443 118.823  0.00  0.00    -0.241 OA
ENDBRANCH   3  22
TORSDOF 7
ENDMDL
MODEL 5
REMARK VINA RESULT:      -5.0     22.381     24.775
REMARK  7 active torsions:
REMARK  status: ('A' for Active; 'I' for Inactive)
REMARK    1  A    between atoms: C_2  and  C_3 
REMARK    2  A    between atoms: C_3  and  O_6 
REMARK    3  A    between atoms: C_3  and  C_4 
REMARK    4  A    between atoms: C_7  and  O_6 
REMARK    5  A    between atoms: C_9  and  C_10 
REMARK    6  A    between atoms: N_15  and  C_14 
REMARK    7  A    between atoms: N_20  and  C_19 
REMARK       I    between atoms: C_22  and  N_20 
ROOT
ATOM      1  C   LIG d   1     -25.637  85.628 113.207  0.00  0.00     0.161 C 
ATOM      2  C   LIG d   1     -24.494  86.417 113.417  0.00  0.00     0.016 C 
ATOM      3  C   LIG d   1     -23.211  85.878 113.664  0.00  0.00     0.038 C 
ATOM      4  C   LIG d   1     -22.954  84.502 113.568  0.00  0.00     0.028 C 
ATOM      5  C   LIG d   1     -24.175  83.636 113.857  0.00  0.00    -0.047 C 
ATOM      6  C   LIG d   1     -25.356  84.127 112.988  0.00  0.00     0.091 C 
ENDROOT
BRANCH   1   7
ATOM      7  O   LIG d   1     -26.403  86.160 112.108  0.00  0.00    -0.368 OA
BRANCH   7   8
ATOM      8  C   LIG d   1     -26.938  87.494 112.289  0.00  0.00     0.119 C 
BRANCH   8   9
ATOM      9  C   LIG d   1     -28.474  87.385 112.256  0.00  0.00     0.028 C 
ATOM     10  C   LIG d   1     -28.970  86.403 111.182  0.00  0.00     0.006 C 
ENDBRANCH   8   9
BRANCH   8  11
ATOM     11  C   LIG d   1     -26.570  88.407 111.116  0.00  0.00     0.028 C 
ATOM     12  C   LIG d   1     -27.234  89.790 111.205  0.00  0.00     0.006 C 
ENDBRANCH   8  11
ENDBRANCH   7   8
ENDBRANCH   1   7
BRANCH   6  13
ATOM     13  N   LIG d   1     -26.613  83.388 113.271  0.00  0.00    -0.311 N 
ATOM     14  C   LIG d   1     -27.344  82.797 112.327  0.00  0.00     0.210 C 
ATOM     15  C   LIG d   1     -28.615  82.105 112.831  0.00  0.00     0.109 C 
ATOM     16  O   LIG d   1     -27.044  82.751 111.124  0.00  0.00    -0.276 OA
ATOM     17  H   LIG d   1     -26.915  83.348 114.225  0.00  0.00     0.149 HD
ENDBRANCH   6  13
BRANCH   5  18
ATOM     18  N   LIG d   1     -23.802  82.235 113.587  0.00  0.00     0.381 N 
ATOM     19  H   LIG d   1     -23.635  81.756 114.449  0.00  0.00    -0.090 HD
ATOM     20  H   LIG d   1     -22.953  82.222 113.050  0.00  0.00    -0.090 HD
ATOM     21  H   LIG d   1     -24.530  81.779 113.082  0.00  0.00    -0.090 HD
ENDBRANCH   5  18
BRANCH   3  22
ATOM     22  C   LIG d   1     -22.176  86.716 114.052  0.00  0.00     0.382 C 
ATOM     23  O   LIG d   1     -21.072  86.664 113.458  0.00  0.00    -0.241 OA
ATOM     24  O   LIG d   1     -22.319  87.492 115.016  0.00  0.00    -0.241 OA
ENDBRANCH   3  22
TORSDOF 7
ENDMDL
MODEL 6
REMARK VINA RESULT:      -4.9      9.143     11.043
REMARK  7 active torsions:
REMARK  status: ('A' for Active; 'I' for Inactive)
REMARK    1  A    between atoms: C_2  and  C_3 
REMARK    2  A    between atoms: C_3  and  O_6 
REMARK    3  A    between atoms: C_3  and  C_4 
REMARK    4  A    between atoms: C_7  and  O_6 
REMARK    5  A    between atoms: C_9  and  C_10 
REMARK    6  A    between atoms: N_15  and  C_14 
REMARK    7  A    between atoms: N_20  and  C_19 
REMARK       I    between atoms: C_22  and  N_20 
ROOT
ATOM      1  C   LIG d   1       3.003  85.982 115.159  0.00  0.00     0.161 C 
ATOM      2  C   LIG d   1       3.109  87.245 114.552  0.00  0.00     0.016 C 
ATOM      3  C   LIG d   1       4.142  88.165 114.844  0.00  0.00     0.038 C 
ATOM      4  C   LIG d   1       5.232  87.822 115.658  0.00  0.00     0.028 C 
ATOM      5  C   LIG d   1       4.905  86.745 116.686  0.00  0.00    -0.047 C 
ATOM      6  C   LIG d   1       4.245  85.547 115.966  0.00  0.00     0.091 C 
ENDROOT
BRANCH   1   7
ATOM      7  O   LIG d   1       2.677  84.989 114.167  0.00  0.00    -0.368 OA
BRANCH   7   8
ATOM      8  C   LIG d   1       3.786  84.481 113.384  0.00  0.00     0.119 C 
BRANCH   8   9
ATOM      9  C   LIG d   1       3.473  84.764 111.902  0.00  0.00     0.028 C 
ATOM     10  C   LIG d   1       4.175  86.031 111.385  0.00  0.00     0.006 C 
ENDBRANCH   8   9
BRANCH   8  11
ATOM     11  C   LIG d   1       3.893  82.958 113.492  0.00  0.00     0.028 C 
ATOM     12  C   LIG d   1       4.994  82.373 112.593  0.00  0.00     0.006 C 
ENDBRANCH   8  11
ENDBRANCH   7   8
ENDBRANCH   1   7
BRANCH   6  13
ATOM     13  N   LIG d   1       3.816  84.483 116.911  0.00  0.00    -0.311 N 
ATOM     14  C   LIG d   1       4.547  83.402 117.178  0.00  0.00     0.210 C 
ATOM     15  C   LIG d   1       3.911  82.419 118.166  0.00  0.00     0.109 C 
ATOM     16  O   LIG d   1       5.675  83.179 116.714  0.00  0.00    -0.276 OA
ATOM     17  H   LIG d   1       2.927  84.599 117.356  0.00  0.00     0.149 HD
ENDBRANCH   6  13
BRANCH   5  18
ATOM     18  N   LIG d   1       6.161  86.386 117.371  0.00  0.00     0.381 N 
ATOM     19  H   LIG d   1       6.652  85.696 116.839  0.00  0.00    -0.090 HD
ATOM     20  H   LIG d   1       5.941  85.994 118.270  0.00  0.00    -0.090 HD
ATOM     21  H   LIG d   1       6.731  87.196 117.485  0.00  0.00    -0.090 HD
ENDBRANCH   5  18
BRANCH   3  22
ATOM     22  C   LIG d   1       4.069  89.459 114.351  0.00  0.00     0.382 C 
ATOM     23  O   LIG d   1       4.396  89.696 113.163  0.00  0.00    -0.241 OA
ATOM     24  O   LIG d   1       3.724  90.399 115.091  0.00  0.00    -0.241 OA
ENDBRANCH   3  22
TORSDOF 7
ENDMDL
MODEL 7
REMARK VINA RESULT:      -4.8      3.072      4.455
REMARK  7 active torsions:
REMARK  status: ('A' for Active; 'I' for Inactive)
REMARK    1  A    between atoms: C_2  and  C_3 
REMARK    2  A    between atoms: C_3  and  O_6 
REMARK    3  A    between atoms: C_3  and  C_4 
REMARK    4  A    between atoms: C_7  and  O_6 
REMARK    5  A    between atoms: C_9  and  C_10 
REMARK    6  A    between atoms: N_15  and  C_14 
REMARK    7  A    between atoms: N_20  and  C_19 
REMARK       I    between atoms: C_22  and  N_20 
ROOT
ATOM      1  C   LIG d   1      -4.461  76.921 117.481  0.00  0.00     0.161 C 
ATOM      2  C   LIG d   1      -5.227  78.039 117.852  0.00  0.00     0.016 C 
ATOM      3  C   LIG d   1      -4.886  79.366 117.506  0.00  0.00     0.038 C 
ATOM      4  C   LIG d   1      -3.829  79.655 116.630  0.00  0.00     0.028 C 
ATOM      5  C   LIG d   1      -2.728  78.600 116.640  0.00  0.00    -0.047 C 
ATOM      6  C   LIG d   1      -3.366  77.207 116.432  0.00  0.00     0.091 C 
ENDROOT
BRANCH   1   7
ATOM      7  O   LIG d   1      -5.328  75.864 117.025  0.00  0.00    -0.368 OA
BRANCH   7   8
ATOM      8  C   LIG d   1      -6.447  76.270 116.199  0.00  0.00     0.119 C 
BRANCH   8   9
ATOM      9  C   LIG d   1      -7.688  75.499 116.690  0.00  0.00     0.028 C 
ATOM     10  C   LIG d   1      -8.498  76.292 117.729  0.00  0.00     0.006 C 
ENDBRANCH   8   9
BRANCH   8  11
ATOM     11  C   LIG d   1      -6.251  75.837 114.743  0.00  0.00     0.028 C 
ATOM     12  C   LIG d   1      -5.310  74.630 114.602  0.00  0.00     0.006 C 
ENDBRANCH   8  11
ENDBRANCH   7   8
ENDBRANCH   1   7
BRANCH   6  13
ATOM     13  N   LIG d   1      -2.368  76.109 116.513  0.00  0.00    -0.311 N 
ATOM     14  C   LIG d   1      -1.767  75.585 115.446  0.00  0.00     0.210 C 
ATOM     15  C   LIG d   1      -0.787  74.447 115.750  0.00  0.00     0.109 C 
ATOM     16  O   LIG d   1      -1.929  75.975 114.280  0.00  0.00    -0.276 OA
ATOM     17  H   LIG d   1      -2.154  75.753 117.424  0.00  0.00     0.149 HD
ENDBRANCH   6  13
BRANCH   5  18
ATOM     18  N   LIG d   1      -1.760  78.955 115.585  0.00  0.00     0.381 N 
ATOM     19  H   LIG d   1      -1.444  79.895 115.718  0.00  0.00    -0.090 HD
ATOM     20  H   LIG d   1      -2.217  78.899 114.692  0.00  0.00    -0.090 HD
ATOM     21  H   LIG d   1      -0.984  78.330 115.610  0.00  0.00    -0.090 HD
ENDBRANCH   5  18
BRANCH   3  22
ATOM     22  C   LIG d   1      -5.582  80.424 118.070  0.00  0.00     0.382 C 
ATOM     23  O   LIG d   1      -6.575  80.910 117.475  0.00  0.00    -0.241 OA
ATOM     24  O   LIG d   1      -5.203  80.929 119.144  0.00  0.00    -0.241 OA
ENDBRANCH   3  22
TORSDOF 7
ENDMDL
MODEL 8
REMARK VINA RESULT:      -4.8      8.031     10.232
REMARK  7 active torsions:
REMARK  status: ('A' for Active; 'I' for Inactive)
REMARK    1  A    between atoms: C_2  and  C_3 
REMARK    2  A    between atoms: C_3  and  O_6 
REMARK    3  A    between atoms: C_3  and  C_4 
REMARK    4  A    between atoms: C_7  and  O_6 
REMARK    5  A    between atoms: C_9  and  C_10 
REMARK    6  A    between atoms: N_15  and  C_14 
REMARK    7  A    between atoms: N_20  and  C_19 
REMARK       I    between atoms: C_22  and  N_20 
ROOT
ATOM      1  C   LIG d   1       2.732  85.713 113.940  0.00  0.00     0.161 C 
ATOM      2  C   LIG d   1       2.601  87.109 114.028  0.00  0.00     0.016 C 
ATOM      3  C   LIG d   1       3.267  87.893 114.998  0.00  0.00     0.038 C 
ATOM      4  C   LIG d   1       4.234  87.348 115.856  0.00  0.00     0.028 C 
ATOM      5  C   LIG d   1       4.026  85.864 116.139  0.00  0.00    -0.047 C 
ATOM      6  C   LIG d   1       3.868  85.114 114.796  0.00  0.00     0.091 C 
ENDROOT
BRANCH   1   7
ATOM      7  O   LIG d   1       2.885  85.323 112.561  0.00  0.00    -0.368 OA
BRANCH   7   8
ATOM      8  C   LIG d   1       1.773  84.603 111.975  0.00  0.00     0.119 C 
BRANCH   8   9
ATOM      9  C   LIG d   1       2.359  83.512 111.057  0.00  0.00     0.028 C 
ATOM     10  C   LIG d   1       1.914  82.098 111.467  0.00  0.00     0.006 C 
ENDBRANCH   8   9
BRANCH   8  11
ATOM     11  C   LIG d   1       0.947  85.506 111.055  0.00  0.00     0.028 C 
ATOM     12  C   LIG d   1      -0.471  85.764 111.589  0.00  0.00     0.006 C 
ENDBRANCH   8  11
ENDBRANCH   7   8
ENDBRANCH   1   7
BRANCH   6  13
ATOM     13  N   LIG d   1       3.576  83.669 114.984  0.00  0.00    -0.311 N 
ATOM     14  C   LIG d   1       4.226  82.700 114.341  0.00  0.00     0.210 C 
ATOM     15  C   LIG d   1       3.754  81.280 114.667  0.00  0.00     0.109 C 
ATOM     16  O   LIG d   1       5.169  82.881 113.557  0.00  0.00    -0.276 OA
ATOM     17  H   LIG d   1       2.846  83.432 115.627  0.00  0.00     0.149 HD
ENDBRANCH   6  13
BRANCH   5  18
ATOM     18  N   LIG d   1       5.178  85.395 116.931  0.00  0.00     0.381 N 
ATOM     19  H   LIG d   1       6.025  85.769 116.552  0.00  0.00    -0.090 HD
ATOM     20  H   LIG d   1       5.224  84.393 116.876  0.00  0.00    -0.090 HD
ATOM     21  H   LIG d   1       5.077  85.679 117.881  0.00  0.00    -0.090 HD
ENDBRANCH   5  18
BRANCH   3  22
ATOM     22  C   LIG d   1       2.938  89.232 115.143  0.00  0.00     0.382 C 
ATOM     23  O   LIG d   1       1.797  89.557 115.550  0.00  0.00    -0.241 OA
ATOM     24  O   LIG d   1       3.753  90.120 114.829  0.00  0.00    -0.241 OA
ENDBRANCH   3  22
TORSDOF 7
ENDMDL
MODEL 9
REMARK VINA RESULT:      -4.8      8.531     10.093
REMARK  7 active torsions:
REMARK  status: ('A' for Active; 'I' for Inactive)
REMARK    1  A    between atoms: C_2  and  C_3 
REMARK    2  A    between atoms: C_3  and  O_6 
REMARK    3  A    between atoms: C_3  and  C_4 
REMARK    4  A    between atoms: C_7  and  O_6 
REMARK    5  A    between atoms: C_9  and  C_10 
REMARK    6  A    between atoms: N_15  and  C_14 
REMARK    7  A    between atoms: N_20  and  C_19 
REMARK       I    between atoms: C_22  and  N_20 
ROOT
ATOM      1  C   LIG d   1       3.602  85.930 114.864  0.00  0.00     0.161 C 
ATOM      2  C   LIG d   1       3.758  87.321 114.979  0.00  0.00     0.016 C 
ATOM      3  C   LIG d   1       3.634  88.211 113.888  0.00  0.00     0.038 C 
ATOM      4  C   LIG d   1       3.192  87.782 112.627  0.00  0.00     0.028 C 
ATOM      5  C   LIG d   1       3.512  86.319 112.340  0.00  0.00    -0.047 C 
ATOM      6  C   LIG d   1       3.012  85.455 113.520  0.00  0.00     0.091 C 
ENDROOT
BRANCH   1   7
ATOM      7  O   LIG d   1       2.812  85.434 115.962  0.00  0.00    -0.368 OA
BRANCH   7   8
ATOM      8  C   LIG d   1       3.530  84.704 116.986  0.00  0.00     0.119 C 
BRANCH   8   9
ATOM      9  C   LIG d   1       4.907  84.326 116.406  0.00  0.00     0.028 C 
ATOM     10  C   LIG d   1       6.056  84.615 117.386  0.00  0.00     0.006 C 
ENDBRANCH   8   9
BRANCH   8  11
ATOM     11  C   LIG d   1       2.845  83.372 117.305  0.00  0.00     0.028 C 
ATOM     12  C   LIG d   1       3.402  82.202 116.479  0.00  0.00     0.006 C 
ENDBRANCH   8  11
ENDBRANCH   7   8
ENDBRANCH   1   7
BRANCH   6  13
ATOM     13  N   LIG d   1       3.359  84.019 113.358  0.00  0.00    -0.311 N 
ATOM     14  C   LIG d   1       2.546  83.126 112.796  0.00  0.00     0.210 C 
ATOM     15  C   LIG d   1       3.092  81.695 112.747  0.00  0.00     0.109 C 
ATOM     16  O   LIG d   1       1.439  83.390 112.304  0.00  0.00    -0.276 OA
ATOM     17  H   LIG d   1       4.253  83.724 113.702  0.00  0.00     0.149 HD
ENDBRANCH   6  13
BRANCH   5  18
ATOM     18  N   LIG d   1       2.877  85.968 111.056  0.00  0.00     0.381 N 
ATOM     19  H   LIG d   1       1.908  85.764 111.202  0.00  0.00    -0.090 HD
ATOM     20  H   LIG d   1       3.320  85.145 110.688  0.00  0.00    -0.090 HD
ATOM     21  H   LIG d   1       2.971  86.721 110.411  0.00  0.00    -0.090 HD
ENDBRANCH   5  18
BRANCH   3  22
ATOM     22  C   LIG d   1       3.991  89.542 114.042  0.00  0.00     0.382 C 
ATOM     23  O   LIG d   1       4.675  90.114 113.159  0.00  0.00    -0.241 OA
ATOM     24  O   LIG d   1       3.675  90.165 115.073  0.00  0.00    -0.241 OA
ENDBRANCH   3  22
TORSDOF 7
ENDMDL
