MODEL 1
REMARK VINA RESULT:      -6.0      0.000      0.000
REMARK  7 active torsions:
REMARK  status: ('A' for Active; 'I' for Inactive)
REMARK    1  A    between atoms: C_2  and  C_3 
REMARK    2  A    between atoms: C_3  and  O_6 
REMARK    3  A    between atoms: C_3  and  C_4 
REMARK    4  A    between atoms: C_7  and  O_6 
REMARK    5  A    between atoms: C_9  and  C_10 
REMARK    6  A    between atoms: N_15  and  C_14 
REMARK    7  A    between atoms: N_20  and  C_19 
REMARK       I    between atoms: C_22  and  N_20 
ROOT
ATOM      1  C   LIG d   1      -3.072  76.714 115.045  0.00  0.00     0.161 C 
ATOM      2  C   LIG d   1      -3.137  77.634 113.985  0.00  0.00     0.016 C 
ATOM      3  C   LIG d   1      -2.004  78.062 113.256  0.00  0.00     0.038 C 
ATOM      4  C   LIG d   1      -0.740  77.482 113.440  0.00  0.00     0.028 C 
ATOM      5  C   LIG d   1      -0.533  76.915 114.841  0.00  0.00    -0.047 C 
ATOM      6  C   LIG d   1      -1.719  75.986 115.187  0.00  0.00     0.091 C 
ENDROOT
BRANCH   1   7
ATOM      7  O   LIG d   1      -4.145  75.759 114.929  0.00  0.00    -0.368 OA
BRANCH   7   8
ATOM      8  C   LIG d   1      -5.487  76.287 115.069  0.00  0.00     0.119 C 
BRANCH   8   9
ATOM      9  C   LIG d   1      -5.687  76.656 116.552  0.00  0.00     0.028 C 
ATOM     10  C   LIG d   1      -6.369  78.023 116.729  0.00  0.00     0.006 C 
ENDBRANCH   8   9
BRANCH   8  11
ATOM     11  C   LIG d   1      -6.541  75.217 114.772  0.00  0.00     0.028 C 
ATOM     12  C   LIG d   1      -6.758  74.252 115.948  0.00  0.00     0.006 C 
ENDBRANCH   8  11
ENDBRANCH   7   8
ENDBRANCH   1   7
BRANCH   6  13
ATOM     13  N   LIG d   1      -1.637  75.456 116.573  0.00  0.00    -0.311 N 
ATOM     14  C   LIG d   1      -1.074  74.288 116.879  0.00  0.00     0.210 C 
ATOM     15  C   LIG d   1      -1.115  73.921 118.366  0.00  0.00     0.109 C 
ATOM     16  O   LIG d   1      -0.516  73.537 116.065  0.00  0.00    -0.276 OA
ATOM     17  H   LIG d   1      -2.038  76.016 117.300  0.00  0.00     0.149 HD
ENDBRANCH   6  13
BRANCH   5  18
ATOM     18  N   LIG d   1       0.768  76.220 114.852  0.00  0.00     0.381 N 
ATOM     19  H   LIG d   1       1.503  76.875 114.673  0.00  0.00    -0.090 HD
ATOM     20  H   LIG d   1       0.775  75.531 114.121  0.00  0.00    -0.090 HD
ATOM     21  H   LIG d   1       0.912  75.781 115.735  0.00  0.00    -0.090 HD
ENDBRANCH   5  18
BRANCH   3  22
ATOM     22  C   LIG d   1      -2.122  79.112 112.357  0.00  0.00     0.382 C 
ATOM     23  O   LIG d   1      -1.437  79.117 111.306  0.00  0.00    -0.241 OA
ATOM     24  O   LIG d   1      -2.871  80.076 112.606  0.00  0.00    -0.241 OA
ENDBRANCH   3  22
TORSDOF 7
ENDMDL
MODEL 2
REMARK VINA RESULT:      -5.5      2.345      2.810
REMARK  7 active torsions:
REMARK  status: ('A' for Active; 'I' for Inactive)
REMARK    1  A    between atoms: C_2  and  C_3 
REMARK    2  A    between atoms: C_3  and  O_6 
REMARK    3  A    between atoms: C_3  and  C_4 
REMARK    4  A    between atoms: C_7  and  O_6 
REMARK    5  A    between atoms: C_9  and  C_10 
REMARK    6  A    between atoms: N_15  and  C_14 
REMARK    7  A    between atoms: N_20  and  C_19 
REMARK       I    between atoms: C_22  and  N_20 
ROOT
ATOM      1  C   LIG d   1      -2.460  78.477 115.569  0.00  0.00     0.161 C 
ATOM      2  C   LIG d   1      -2.715  79.603 114.768  0.00  0.00     0.016 C 
ATOM      3  C   LIG d   1      -2.160  79.784 113.480  0.00  0.00     0.038 C 
ATOM      4  C   LIG d   1      -1.427  78.773 112.841  0.00  0.00     0.028 C 
ATOM      5  C   LIG d   1      -0.724  77.828 113.810  0.00  0.00    -0.047 C 
ATOM      6  C   LIG d   1      -1.753  77.314 114.843  0.00  0.00     0.091 C 
ENDROOT
BRANCH   1   7
ATOM      7  O   LIG d   1      -3.686  78.020 116.173  0.00  0.00    -0.368 OA
BRANCH   7   8
ATOM      8  C   LIG d   1      -4.174  78.798 117.293  0.00  0.00     0.119 C 
BRANCH   8   9
ATOM      9  C   LIG d   1      -4.373  77.832 118.477  0.00  0.00     0.028 C 
ATOM     10  C   LIG d   1      -3.068  77.127 118.884  0.00  0.00     0.006 C 
ENDBRANCH   8   9
BRANCH   8  11
ATOM     11  C   LIG d   1      -5.562  79.378 117.006  0.00  0.00     0.028 C 
ATOM     12  C   LIG d   1      -5.781  80.752 117.658  0.00  0.00     0.006 C 
ENDBRANCH   8  11
ENDBRANCH   7   8
ENDBRANCH   1   7
BRANCH   6  13
ATOM     13  N   LIG d   1      -1.131  76.449 115.879  0.00  0.00    -0.311 N 
ATOM     14  C   LIG d   1      -1.038  75.125 115.770  0.00  0.00     0.210 C 
ATOM     15  C   LIG d   1      -0.379  74.422 116.961  0.00  0.00     0.109 C 
ATOM     16  O   LIG d   1      -1.411  74.469 114.786  0.00  0.00    -0.276 OA
ATOM     17  H   LIG d   1      -0.774  76.902 116.698  0.00  0.00     0.149 HD
ENDBRANCH   6  13
BRANCH   5  18
ATOM     18  N   LIG d   1      -0.114  76.746 113.014  0.00  0.00     0.381 N 
ATOM     19  H   LIG d   1       0.714  77.082 112.564  0.00  0.00    -0.090 HD
ATOM     20  H   LIG d   1      -0.764  76.459 112.303  0.00  0.00    -0.090 HD
ATOM     21  H   LIG d   1       0.109  75.974 113.602  0.00  0.00    -0.090 HD
ENDBRANCH   5  18
BRANCH   3  22
ATOM     22  C   LIG d   1      -2.302  81.003 112.835  0.00  0.00     0.382 C 
ATOM     23  O   LIG d   1      -1.298  81.576 112.349  0.00  0.00    -0.241 OA
ATOM     24  O   LIG d   1      -3.416  81.558 112.773  0.00  0.00    -0.241 OA
ENDBRANCH   3  22
TORSDOF 7
ENDMDL
MODEL 3
REMARK VINA RESULT:      -5.4      3.758      6.391
REMARK  7 active torsions:
REMARK  status: ('A' for Active; 'I' for Inactive)
REMARK    1  A    between atoms: C_2  and  C_3 
REMARK    2  A    between atoms: C_3  and  O_6 
REMARK    3  A    between atoms: C_3  and  C_4 
REMARK    4  A    between atoms: C_7  and  O_6 
REMARK    5  A    between atoms: C_9  and  C_10 
REMARK    6  A    between atoms: N_15  and  C_14 
REMARK    7  A    between atoms: N_20  and  C_19 
REMARK       I    between atoms: C_22  and  N_20 
ROOT
ATOM      1  C   LIG d   1      -6.199  78.264 117.018  0.00  0.00     0.161 C 
ATOM      2  C   LIG d   1      -7.566  78.368 117.324  0.00  0.00     0.016 C 
ATOM      3  C   LIG d   1      -8.153  79.526 117.885  0.00  0.00     0.038 C 
ATOM      4  C   LIG d   1      -7.434  80.721 118.038  0.00  0.00     0.028 C 
ATOM      5  C   LIG d   1      -5.934  80.508 118.213  0.00  0.00    -0.047 C 
ATOM      6  C   LIG d   1      -5.421  79.596 117.075  0.00  0.00     0.091 C 
ENDROOT
BRANCH   1   7
ATOM      7  O   LIG d   1      -6.033  77.642 115.729  0.00  0.00    -0.368 OA
BRANCH   7   8
ATOM      8  C   LIG d   1      -5.559  76.273 115.739  0.00  0.00     0.119 C 
BRANCH   8   9
ATOM      9  C   LIG d   1      -4.408  76.174 114.719  0.00  0.00     0.028 C 
ATOM     10  C   LIG d   1      -3.108  75.649 115.350  0.00  0.00     0.006 C 
ENDBRANCH   8   9
BRANCH   8  11
ATOM     11  C   LIG d   1      -6.634  75.307 115.232  0.00  0.00     0.028 C 
ATOM     12  C   LIG d   1      -6.399  73.859 115.692  0.00  0.00     0.006 C 
ENDBRANCH   8  11
ENDBRANCH   7   8
ENDBRANCH   1   7
BRANCH   6  13
ATOM     13  N   LIG d   1      -3.979  79.268 117.218  0.00  0.00    -0.311 N 
ATOM     14  C   LIG d   1      -3.107  79.342 116.214  0.00  0.00     0.210 C 
ATOM     15  C   LIG d   1      -1.672  78.941 116.572  0.00  0.00     0.109 C 
ATOM     16  O   LIG d   1      -3.379  79.733 115.069  0.00  0.00    -0.276 OA
ATOM     17  H   LIG d   1      -3.666  78.972 118.122  0.00  0.00     0.149 HD
ENDBRANCH   6  13
BRANCH   5  18
ATOM     18  N   LIG d   1      -5.294  81.836 118.223  0.00  0.00     0.381 N 
ATOM     19  H   LIG d   1      -5.911  82.507 118.635  0.00  0.00    -0.090 HD
ATOM     20  H   LIG d   1      -5.112  82.117 117.275  0.00  0.00    -0.090 HD
ATOM     21  H   LIG d   1      -4.440  81.800 118.736  0.00  0.00    -0.090 HD
ENDBRANCH   5  18
BRANCH   3  22
ATOM     22  C   LIG d   1      -9.463  79.483 118.336  0.00  0.00     0.382 C 
ATOM     23  O   LIG d   1      -9.891  80.376 119.106  0.00  0.00    -0.241 OA
ATOM     24  O   LIG d   1     -10.210  78.538 118.018  0.00  0.00    -0.241 OA
ENDBRANCH   3  22
TORSDOF 7
ENDMDL
MODEL 4
REMARK VINA RESULT:      -5.3      9.761     12.081
REMARK  7 active torsions:
REMARK  status: ('A' for Active; 'I' for Inactive)
REMARK    1  A    between atoms: C_2  and  C_3 
REMARK    2  A    between atoms: C_3  and  O_6 
REMARK    3  A    between atoms: C_3  and  C_4 
REMARK    4  A    between atoms: C_7  and  O_6 
REMARK    5  A    between atoms: C_9  and  C_10 
REMARK    6  A    between atoms: N_15  and  C_14 
REMARK    7  A    between atoms: N_20  and  C_19 
REMARK       I    between atoms: C_22  and  N_20 
ROOT
ATOM      1  C   LIG d   1       2.564  86.517 114.437  0.00  0.00     0.161 C 
ATOM      2  C   LIG d   1       2.899  87.847 114.134  0.00  0.00     0.016 C 
ATOM      3  C   LIG d   1       4.007  88.518 114.700  0.00  0.00     0.038 C 
ATOM      4  C   LIG d   1       4.949  87.852 115.498  0.00  0.00     0.028 C 
ATOM      5  C   LIG d   1       4.375  86.647 116.235  0.00  0.00    -0.047 C 
ATOM      6  C   LIG d   1       3.643  85.740 115.219  0.00  0.00     0.091 C 
ENDROOT
BRANCH   1   7
ATOM      7  O   LIG d   1       2.218  85.813 113.228  0.00  0.00    -0.368 OA
BRANCH   7   8
ATOM      8  C   LIG d   1       2.504  86.501 111.985  0.00  0.00     0.119 C 
BRANCH   8   9
ATOM      9  C   LIG d   1       1.188  86.578 111.186  0.00  0.00     0.028 C 
ATOM     10  C   LIG d   1       0.092  85.673 111.771  0.00  0.00     0.006 C 
ENDBRANCH   8   9
BRANCH   8  11
ATOM     11  C   LIG d   1       3.464  85.692 111.108  0.00  0.00     0.028 C 
ATOM     12  C   LIG d   1       3.727  84.281 111.657  0.00  0.00     0.006 C 
ENDBRANCH   8  11
ENDBRANCH   7   8
ENDBRANCH   1   7
BRANCH   6  13
ATOM     13  N   LIG d   1       2.980  84.580 115.870  0.00  0.00    -0.311 N 
ATOM     14  C   LIG d   1       3.585  83.412 116.079  0.00  0.00     0.210 C 
ATOM     15  C   LIG d   1       2.714  82.343 116.747  0.00  0.00     0.109 C 
ATOM     16  O   LIG d   1       4.769  83.170 115.803  0.00  0.00    -0.276 OA
ATOM     17  H   LIG d   1       2.027  84.700 116.154  0.00  0.00     0.149 HD
ENDBRANCH   6  13
BRANCH   5  18
ATOM     18  N   LIG d   1       5.492  85.968 116.917  0.00  0.00     0.381 N 
ATOM     19  H   LIG d   1       6.158  85.649 116.242  0.00  0.00    -0.090 HD
ATOM     20  H   LIG d   1       5.135  85.168 117.409  0.00  0.00    -0.090 HD
ATOM     21  H   LIG d   1       5.931  86.592 117.557  0.00  0.00    -0.090 HD
ENDBRANCH   5  18
BRANCH   3  22
ATOM     22  C   LIG d   1       4.159  89.882 114.501  0.00  0.00     0.382 C 
ATOM     23  O   LIG d   1       4.299  90.648 115.486  0.00  0.00    -0.241 OA
ATOM     24  O   LIG d   1       4.113  90.362 113.353  0.00  0.00    -0.241 OA
ENDBRANCH   3  22
TORSDOF 7
ENDMDL
MODEL 5
REMARK VINA RESULT:      -5.3      1.618      4.996
REMARK  7 active torsions:
REMARK  status: ('A' for Active; 'I' for Inactive)
REMARK    1  A    between atoms: C_2  and  C_3 
REMARK    2  A    between atoms: C_3  and  O_6 
REMARK    3  A    between atoms: C_3  and  C_4 
REMARK    4  A    between atoms: C_7  and  O_6 
REMARK    5  A    between atoms: C_9  and  C_10 
REMARK    6  A    between atoms: N_15  and  C_14 
REMARK    7  A    between atoms: N_20  and  C_19 
REMARK       I    between atoms: C_22  and  N_20 
ROOT
ATOM      1  C   LIG d   1      -1.973  75.498 114.872  0.00  0.00     0.161 C 
ATOM      2  C   LIG d   1      -1.892  74.733 116.048  0.00  0.00     0.016 C 
ATOM      3  C   LIG d   1      -1.090  75.091 117.156  0.00  0.00     0.038 C 
ATOM      4  C   LIG d   1      -0.426  76.325 117.222  0.00  0.00     0.028 C 
ATOM      5  C   LIG d   1      -0.074  76.898 115.853  0.00  0.00    -0.047 C 
ATOM      6  C   LIG d   1      -1.342  76.903 114.970  0.00  0.00     0.091 C 
ENDROOT
BRANCH   1   7
ATOM      7  O   LIG d   1      -3.346  75.593 114.445  0.00  0.00    -0.368 OA
BRANCH   7   8
ATOM      8  C   LIG d   1      -4.348  75.433 115.479  0.00  0.00     0.119 C 
BRANCH   8   9
ATOM      9  C   LIG d   1      -5.573  74.755 114.835  0.00  0.00     0.028 C 
ATOM     10  C   LIG d   1      -6.219  73.710 115.761  0.00  0.00     0.006 C 
ENDBRANCH   8   9
BRANCH   8  11
ATOM     11  C   LIG d   1      -4.852  76.789 115.980  0.00  0.00     0.028 C 
ATOM     12  C   LIG d   1      -4.306  77.151 117.371  0.00  0.00     0.006 C 
ENDBRANCH   8  11
ENDBRANCH   7   8
ENDBRANCH   1   7
BRANCH   6  13
ATOM     13  N   LIG d   1      -1.068  77.369 113.586  0.00  0.00    -0.311 N 
ATOM     14  C   LIG d   1      -1.841  78.240 112.939  0.00  0.00     0.210 C 
ATOM     15  C   LIG d   1      -1.389  78.571 111.513  0.00  0.00     0.109 C 
ATOM     16  O   LIG d   1      -2.840  78.794 113.422  0.00  0.00    -0.276 OA
ATOM     17  H   LIG d   1      -0.259  76.994 113.130  0.00  0.00     0.149 HD
ENDBRANCH   6  13
BRANCH   5  18
ATOM     18  N   LIG d   1       0.488  78.245 116.065  0.00  0.00     0.381 N 
ATOM     19  H   LIG d   1       0.027  78.902 115.467  0.00  0.00    -0.090 HD
ATOM     20  H   LIG d   1       1.464  78.232 115.825  0.00  0.00    -0.090 HD
ATOM     21  H   LIG d   1       0.376  78.516 117.017  0.00  0.00    -0.090 HD
ENDBRANCH   5  18
BRANCH   3  22
ATOM     22  C   LIG d   1      -0.914  74.192 118.197  0.00  0.00     0.382 C 
ATOM     23  O   LIG d   1      -0.477  74.591 119.303  0.00  0.00    -0.241 OA
ATOM     24  O   LIG d   1      -1.144  72.980 118.029  0.00  0.00    -0.241 OA
ENDBRANCH   3  22
TORSDOF 7
ENDMDL
MODEL 6
REMARK VINA RESULT:      -5.0     15.701     17.170
REMARK  7 active torsions:
REMARK  status: ('A' for Active; 'I' for Inactive)
REMARK    1  A    between atoms: C_2  and  C_3 
REMARK    2  A    between atoms: C_3  and  O_6 
REMARK    3  A    between atoms: C_3  and  C_4 
REMARK    4  A    between atoms: C_7  and  O_6 
REMARK    5  A    between atoms: C_9  and  C_10 
REMARK    6  A    between atoms: N_15  and  C_14 
REMARK    7  A    between atoms: N_20  and  C_19 
REMARK       I    between atoms: C_22  and  N_20 
ROOT
ATOM      1  C   LIG d   1     -14.766  65.871 116.484  0.00  0.00     0.161 C 
ATOM      2  C   LIG d   1     -14.803  66.887 115.515  0.00  0.00     0.016 C 
ATOM      3  C   LIG d   1     -15.524  66.781 114.303  0.00  0.00     0.038 C 
ATOM      4  C   LIG d   1     -16.385  65.704 114.045  0.00  0.00     0.028 C 
ATOM      5  C   LIG d   1     -15.988  64.423 114.770  0.00  0.00    -0.047 C 
ATOM      6  C   LIG d   1     -15.789  64.736 116.270  0.00  0.00     0.091 C 
ENDROOT
BRANCH   1   7
ATOM      7  O   LIG d   1     -14.921  66.443 117.798  0.00  0.00    -0.368 OA
BRANCH   7   8
ATOM      8  C   LIG d   1     -15.863  67.539 117.909  0.00  0.00     0.119 C 
BRANCH   8   9
ATOM      9  C   LIG d   1     -15.496  68.338 119.174  0.00  0.00     0.028 C 
ATOM     10  C   LIG d   1     -16.310  69.636 119.305  0.00  0.00     0.006 C 
ENDBRANCH   8   9
BRANCH   8  11
ATOM     11  C   LIG d   1     -17.286  67.027 118.151  0.00  0.00     0.028 C 
ATOM     12  C   LIG d   1     -18.246  67.370 117.000  0.00  0.00     0.006 C 
ENDBRANCH   8  11
ENDBRANCH   7   8
ENDBRANCH   1   7
BRANCH   6  13
ATOM     13  N   LIG d   1     -15.317  63.554 117.038  0.00  0.00    -0.311 N 
ATOM     14  C   LIG d   1     -16.136  62.724 117.682  0.00  0.00     0.210 C 
ATOM     15  C   LIG d   1     -15.441  61.580 118.428  0.00  0.00     0.109 C 
ATOM     16  O   LIG d   1     -17.373  62.806 117.679  0.00  0.00    -0.276 OA
ATOM     17  H   LIG d   1     -14.329  63.394 117.067  0.00  0.00     0.149 HD
ENDBRANCH   6  13
BRANCH   5  18
ATOM     18  N   LIG d   1     -17.045  63.424 114.522  0.00  0.00     0.381 N 
ATOM     19  H   LIG d   1     -16.677  62.503 114.649  0.00  0.00    -0.090 HD
ATOM     20  H   LIG d   1     -17.358  63.511 113.571  0.00  0.00    -0.090 HD
ATOM     21  H   LIG d   1     -17.808  63.574 115.145  0.00  0.00    -0.090 HD
ENDBRANCH   5  18
BRANCH   3  22
ATOM     22  C   LIG d   1     -15.355  67.740 113.316  0.00  0.00     0.382 C 
ATOM     23  O   LIG d   1     -15.403  67.411 112.107  0.00  0.00    -0.241 OA
ATOM     24  O   LIG d   1     -15.110  68.923 113.621  0.00  0.00    -0.241 OA
ENDBRANCH   3  22
TORSDOF 7
ENDMDL
MODEL 7
REMARK VINA RESULT:      -4.9     15.058     17.761
REMARK  7 active torsions:
REMARK  status: ('A' for Active; 'I' for Inactive)
REMARK    1  A    between atoms: C_2  and  C_3 
REMARK    2  A    between atoms: C_3  and  O_6 
REMARK    3  A    between atoms: C_3  and  C_4 
REMARK    4  A    between atoms: C_7  and  O_6 
REMARK    5  A    between atoms: C_9  and  C_10 
REMARK    6  A    between atoms: N_15  and  C_14 
REMARK    7  A    between atoms: N_20  and  C_19 
REMARK       I    between atoms: C_22  and  N_20 
ROOT
ATOM      1  C   LIG d   1     -16.564  65.189 114.960  0.00  0.00     0.161 C 
ATOM      2  C   LIG d   1     -16.276  66.070 113.903  0.00  0.00     0.016 C 
ATOM      3  C   LIG d   1     -15.240  67.030 113.951  0.00  0.00     0.038 C 
ATOM      4  C   LIG d   1     -14.318  67.074 115.007  0.00  0.00     0.028 C 
ATOM      5  C   LIG d   1     -14.876  66.541 116.322  0.00  0.00    -0.047 C 
ATOM      6  C   LIG d   1     -15.498  65.148 116.075  0.00  0.00     0.091 C 
ENDROOT
BRANCH   1   7
ATOM      7  O   LIG d   1     -16.799  63.865 114.442  0.00  0.00    -0.368 OA
BRANCH   7   8
ATOM      8  C   LIG d   1     -18.062  63.254 114.805  0.00  0.00     0.119 C 
BRANCH   8   9
ATOM      9  C   LIG d   1     -17.849  61.728 114.823  0.00  0.00     0.028 C 
ATOM     10  C   LIG d   1     -17.377  61.217 116.195  0.00  0.00     0.006 C 
ENDBRANCH   8   9
BRANCH   8  11
ATOM     11  C   LIG d   1     -19.129  63.502 113.736  0.00  0.00     0.028 C 
ATOM     12  C   LIG d   1     -20.056  64.678 114.080  0.00  0.00     0.006 C 
ENDBRANCH   8  11
ENDBRANCH   7   8
ENDBRANCH   1   7
BRANCH   6  13
ATOM     13  N   LIG d   1     -16.142  64.590 117.292  0.00  0.00    -0.311 N 
ATOM     14  C   LIG d   1     -15.535  63.742 118.120  0.00  0.00     0.210 C 
ATOM     15  C   LIG d   1     -16.386  63.274 119.305  0.00  0.00     0.109 C 
ATOM     16  O   LIG d   1     -14.362  63.358 118.004  0.00  0.00    -0.276 OA
ATOM     17  H   LIG d   1     -17.084  64.874 117.480  0.00  0.00     0.149 HD
ENDBRANCH   6  13
BRANCH   5  18
ATOM     18  N   LIG d   1     -13.771  66.517 117.298  0.00  0.00     0.381 N 
ATOM     19  H   LIG d   1     -14.017  67.060 118.102  0.00  0.00    -0.090 HD
ATOM     20  H   LIG d   1     -12.956  66.927 116.877  0.00  0.00    -0.090 HD
ATOM     21  H   LIG d   1     -13.577  65.578 117.570  0.00  0.00    -0.090 HD
ENDBRANCH   5  18
BRANCH   3  22
ATOM     22  C   LIG d   1     -15.144  67.987 112.952  0.00  0.00     0.382 C 
ATOM     23  O   LIG d   1     -14.785  69.156 113.235  0.00  0.00    -0.241 OA
ATOM     24  O   LIG d   1     -15.453  67.708 111.778  0.00  0.00    -0.241 OA
ENDBRANCH   3  22
TORSDOF 7
ENDMDL
MODEL 8
REMARK VINA RESULT:      -4.9      2.631      4.303
REMARK  7 active torsions:
REMARK  status: ('A' for Active; 'I' for Inactive)
REMARK    1  A    between atoms: C_2  and  C_3 
REMARK    2  A    between atoms: C_3  and  O_6 
REMARK    3  A    between atoms: C_3  and  C_4 
REMARK    4  A    between atoms: C_7  and  O_6 
REMARK    5  A    between atoms: C_9  and  C_10 
REMARK    6  A    between atoms: N_15  and  C_14 
REMARK    7  A    between atoms: N_20  and  C_19 
REMARK       I    between atoms: C_22  and  N_20 
ROOT
ATOM      1  C   LIG d   1      -2.299  77.404 115.425  0.00  0.00     0.161 C 
ATOM      2  C   LIG d   1      -3.520  77.141 114.783  0.00  0.00     0.016 C 
ATOM      3  C   LIG d   1      -4.216  75.916 114.907  0.00  0.00     0.038 C 
ATOM      4  C   LIG d   1      -3.810  74.921 115.808  0.00  0.00     0.028 C 
ATOM      5  C   LIG d   1      -2.313  74.939 116.096  0.00  0.00    -0.047 C 
ATOM      6  C   LIG d   1      -1.897  76.372 116.500  0.00  0.00     0.091 C 
ENDROOT
BRANCH   1   7
ATOM      7  O   LIG d   1      -2.319  78.731 115.988  0.00  0.00    -0.368 OA
BRANCH   7   8
ATOM      8  C   LIG d   1      -3.073  78.892 117.215  0.00  0.00     0.119 C 
BRANCH   8   9
ATOM      9  C   LIG d   1      -4.238  79.856 116.918  0.00  0.00     0.028 C 
ATOM     10  C   LIG d   1      -5.611  79.222 117.201  0.00  0.00     0.006 C 
ENDBRANCH   8   9
BRANCH   8  11
ATOM     11  C   LIG d   1      -2.239  79.585 118.295  0.00  0.00     0.028 C 
ATOM     12  C   LIG d   1      -0.869  80.056 117.780  0.00  0.00     0.006 C 
ENDBRANCH   8  11
ENDBRANCH   7   8
ENDBRANCH   1   7
BRANCH   6  13
ATOM     13  N   LIG d   1      -0.432  76.497 116.718  0.00  0.00    -0.311 N 
ATOM     14  C   LIG d   1       0.132  76.488 117.924  0.00  0.00     0.210 C 
ATOM     15  C   LIG d   1       1.656  76.649 117.926  0.00  0.00     0.109 C 
ATOM     16  O   LIG d   1      -0.480  76.329 118.991  0.00  0.00    -0.276 OA
ATOM     17  H   LIG d   1       0.143  76.598 115.905  0.00  0.00     0.149 HD
ENDBRANCH   6  13
BRANCH   5  18
ATOM     18  N   LIG d   1      -2.051  73.942 117.152  0.00  0.00     0.381 N 
ATOM     19  H   LIG d   1      -1.178  74.143 117.598  0.00  0.00    -0.090 HD
ATOM     20  H   LIG d   1      -1.988  73.032 116.731  0.00  0.00    -0.090 HD
ATOM     21  H   LIG d   1      -2.786  73.955 117.824  0.00  0.00    -0.090 HD
ENDBRANCH   5  18
BRANCH   3  22
ATOM     22  C   LIG d   1      -5.310  75.663 114.094  0.00  0.00     0.382 C 
ATOM     23  O   LIG d   1      -6.104  74.735 114.382  0.00  0.00    -0.241 OA
ATOM     24  O   LIG d   1      -5.489  76.321 113.051  0.00  0.00    -0.241 OA
ENDBRANCH   3  22
TORSDOF 7
ENDMDL
MODEL 9
REMARK VINA RESULT:      -4.8     21.656     22.502
REMARK  7 active torsions:
REMARK  status: ('A' for Active; 'I' for Inactive)
REMARK    1  A    between atoms: C_2  and  C_3 
REMARK    2  A    between atoms: C_3  and  O_6 
REMARK    3  A    between atoms: C_3  and  C_4 
REMARK    4  A    between atoms: C_7  and  O_6 
REMARK    5  A    between atoms: C_9  and  C_10 
REMARK    6  A    between atoms: N_15  and  C_14 
REMARK    7  A    between atoms: N_20  and  C_19 
REMARK       I    between atoms: C_22  and  N_20 
ROOT
ATOM      1  C   LIG d   1     -23.773  84.041 115.579  0.00  0.00     0.161 C 
ATOM      2  C   LIG d   1     -23.173  85.277 115.288  0.00  0.00     0.016 C 
ATOM      3  C   LIG d   1     -22.834  85.689 113.979  0.00  0.00     0.038 C 
ATOM      4  C   LIG d   1     -23.212  84.950 112.848  0.00  0.00     0.028 C 
ATOM      5  C   LIG d   1     -23.370  83.459 113.123  0.00  0.00    -0.047 C 
ATOM      6  C   LIG d   1     -24.295  83.270 114.348  0.00  0.00     0.091 C 
ENDROOT
BRANCH   1   7
ATOM      7  O   LIG d   1     -24.832  84.225 116.539  0.00  0.00    -0.368 OA
BRANCH   7   8
ATOM      8  C   LIG d   1     -24.568  83.741 117.879  0.00  0.00     0.119 C 
BRANCH   8   9
ATOM      9  C   LIG d   1     -24.255  84.966 118.760  0.00  0.00     0.028 C 
ATOM     10  C   LIG d   1     -22.766  85.054 119.136  0.00  0.00     0.006 C 
ENDBRANCH   8   9
BRANCH   8  11
ATOM     11  C   LIG d   1     -23.303  82.878 117.921  0.00  0.00     0.028 C 
ATOM     12  C   LIG d   1     -23.592  81.417 118.299  0.00  0.00     0.006 C 
ENDBRANCH   8  11
ENDBRANCH   7   8
ENDBRANCH   1   7
BRANCH   6  13
ATOM     13  N   LIG d   1     -24.435  81.843 114.737  0.00  0.00    -0.311 N 
ATOM     14  C   LIG d   1     -25.597  81.285 115.071  0.00  0.00     0.210 C 
ATOM     15  C   LIG d   1     -25.517  79.805 115.459  0.00  0.00     0.109 C 
ATOM     16  O   LIG d   1     -26.693  81.866 115.052  0.00  0.00    -0.276 OA
ATOM     17  H   LIG d   1     -23.601  81.289 114.750  0.00  0.00     0.149 HD
ENDBRANCH   6  13
BRANCH   5  18
ATOM     18  N   LIG d   1     -23.900  82.833 111.897  0.00  0.00     0.381 N 
ATOM     19  H   LIG d   1     -24.214  83.540 111.264  0.00  0.00    -0.090 HD
ATOM     20  H   LIG d   1     -24.685  82.255 112.140  0.00  0.00    -0.090 HD
ATOM     21  H   LIG d   1     -23.193  82.279 111.464  0.00  0.00    -0.090 HD
ENDBRANCH   5  18
BRANCH   3  22
ATOM     22  C   LIG d   1     -22.072  86.833 113.794  0.00  0.00     0.382 C 
ATOM     23  O   LIG d   1     -22.288  87.850 114.496  0.00  0.00    -0.241 OA
ATOM     24  O   LIG d   1     -21.202  86.875 112.903  0.00  0.00    -0.241 OA
ENDBRANCH   3  22
TORSDOF 7
ENDMDL
