MODEL 1
REMARK VINA RESULT:      -5.9      0.000      0.000
REMARK  7 active torsions:
REMARK  status: ('A' for Active; 'I' for Inactive)
REMARK    1  A    between atoms: C_2  and  C_3 
REMARK    2  A    between atoms: C_3  and  O_6 
REMARK    3  A    between atoms: C_3  and  C_4 
REMARK    4  A    between atoms: C_7  and  O_6 
REMARK    5  A    between atoms: C_9  and  C_10 
REMARK    6  A    between atoms: N_15  and  C_14 
REMARK    7  A    between atoms: N_20  and  C_19 
REMARK       I    between atoms: C_22  and  N_20 
ROOT
ATOM      1  C   LIG d   1      -2.782  76.419 115.789  0.00  0.00     0.161 C 
ATOM      2  C   LIG d   1      -3.108  77.043 114.573  0.00  0.00     0.016 C 
ATOM      3  C   LIG d   1      -2.171  77.266 113.538  0.00  0.00     0.038 C 
ATOM      4  C   LIG d   1      -0.871  76.743 113.588  0.00  0.00     0.028 C 
ATOM      5  C   LIG d   1      -0.352  76.546 115.008  0.00  0.00    -0.047 C 
ATOM      6  C   LIG d   1      -1.396  75.742 115.817  0.00  0.00     0.091 C 
ENDROOT
BRANCH   1   7
ATOM      7  O   LIG d   1      -3.809  75.472 116.143  0.00  0.00    -0.368 OA
BRANCH   7   8
ATOM      8  C   LIG d   1      -5.058  75.585 115.417  0.00  0.00     0.119 C 
BRANCH   8   9
ATOM      9  C   LIG d   1      -6.149  75.980 116.431  0.00  0.00     0.028 C 
ATOM     10  C   LIG d   1      -5.978  77.419 116.947  0.00  0.00     0.006 C 
ENDBRANCH   8   9
BRANCH   8  11
ATOM     11  C   LIG d   1      -5.499  74.232 114.853  0.00  0.00     0.028 C 
ATOM     12  C   LIG d   1      -6.408  73.452 115.817  0.00  0.00     0.006 C 
ENDBRANCH   8  11
ENDBRANCH   7   8
ENDBRANCH   1   7
BRANCH   6  13
ATOM     13  N   LIG d   1      -1.005  75.577 117.241  0.00  0.00    -0.311 N 
ATOM     14  C   LIG d   1      -0.837  74.390 117.823  0.00  0.00     0.210 C 
ATOM     15  C   LIG d   1      -0.453  74.445 119.305  0.00  0.00     0.109 C 
ATOM     16  O   LIG d   1      -0.938  73.298 117.244  0.00  0.00    -0.276 OA
ATOM     17  H   LIG d   1      -0.871  76.412 117.777  0.00  0.00     0.149 HD
ENDBRANCH   6  13
BRANCH   5  18
ATOM     18  N   LIG d   1       0.955  75.867 114.915  0.00  0.00     0.381 N 
ATOM     19  H   LIG d   1       1.108  75.555 113.978  0.00  0.00    -0.090 HD
ATOM     20  H   LIG d   1       0.948  75.064 115.519  0.00  0.00    -0.090 HD
ATOM     21  H   LIG d   1       1.683  76.491 115.189  0.00  0.00    -0.090 HD
ENDBRANCH   5  18
BRANCH   3  22
ATOM     22  C   LIG d   1      -2.521  78.057 112.453  0.00  0.00     0.382 C 
ATOM     23  O   LIG d   1      -3.036  79.185 112.640  0.00  0.00    -0.241 OA
ATOM     24  O   LIG d   1      -2.369  77.637 111.290  0.00  0.00    -0.241 OA
ENDBRANCH   3  22
TORSDOF 7
ENDMDL
MODEL 2
REMARK VINA RESULT:      -5.5      6.819      9.533
REMARK  7 active torsions:
REMARK  status: ('A' for Active; 'I' for Inactive)
REMARK    1  A    between atoms: C_2  and  C_3 
REMARK    2  A    between atoms: C_3  and  O_6 
REMARK    3  A    between atoms: C_3  and  C_4 
REMARK    4  A    between atoms: C_7  and  O_6 
REMARK    5  A    between atoms: C_9  and  C_10 
REMARK    6  A    between atoms: N_15  and  C_14 
REMARK    7  A    between atoms: N_20  and  C_19 
REMARK       I    between atoms: C_22  and  N_20 
ROOT
ATOM      1  C   LIG d   1      -0.220  83.576 112.560  0.00  0.00     0.161 C 
ATOM      2  C   LIG d   1      -1.305  82.688 112.652  0.00  0.00     0.016 C 
ATOM      3  C   LIG d   1      -1.238  81.334 112.251  0.00  0.00     0.038 C 
ATOM      4  C   LIG d   1      -0.029  80.733 111.869  0.00  0.00     0.028 C 
ATOM      5  C   LIG d   1       0.977  81.716 111.282  0.00  0.00    -0.047 C 
ATOM      6  C   LIG d   1       1.137  82.910 112.250  0.00  0.00     0.091 C 
ENDROOT
BRANCH   1   7
ATOM      7  O   LIG d   1      -0.129  84.362 113.765  0.00  0.00    -0.368 OA
BRANCH   7   8
ATOM      8  C   LIG d   1      -0.738  85.676 113.716  0.00  0.00     0.119 C 
BRANCH   8   9
ATOM      9  C   LIG d   1      -0.141  86.419 112.506  0.00  0.00     0.028 C 
ATOM     10  C   LIG d   1      -1.203  86.772 111.451  0.00  0.00     0.006 C 
ENDBRANCH   8   9
BRANCH   8  11
ATOM     11  C   LIG d   1      -0.352  86.515 114.938  0.00  0.00     0.028 C 
ATOM     12  C   LIG d   1      -0.351  85.702 116.243  0.00  0.00     0.006 C 
ENDBRANCH   8  11
ENDBRANCH   7   8
ENDBRANCH   1   7
BRANCH   6  13
ATOM     13  N   LIG d   1       2.041  83.960 111.713  0.00  0.00    -0.311 N 
ATOM     14  C   LIG d   1       3.033  84.503 112.415  0.00  0.00     0.210 C 
ATOM     15  C   LIG d   1       3.832  85.583 111.678  0.00  0.00     0.109 C 
ATOM     16  O   LIG d   1       3.348  84.171 113.568  0.00  0.00    -0.276 OA
ATOM     17  H   LIG d   1       1.876  84.266 110.774  0.00  0.00     0.149 HD
ENDBRANCH   6  13
BRANCH   5  18
ATOM     18  N   LIG d   1       2.237  80.983 111.056  0.00  0.00     0.381 N 
ATOM     19  H   LIG d   1       2.685  80.801 111.932  0.00  0.00    -0.090 HD
ATOM     20  H   LIG d   1       2.850  81.553 110.500  0.00  0.00    -0.090 HD
ATOM     21  H   LIG d   1       2.052  80.124 110.585  0.00  0.00    -0.090 HD
ENDBRANCH   5  18
BRANCH   3  22
ATOM     22  C   LIG d   1      -2.398  80.577 112.191  0.00  0.00     0.382 C 
ATOM     23  O   LIG d   1      -2.336  79.357 111.906  0.00  0.00    -0.241 OA
ATOM     24  O   LIG d   1      -3.509  81.108 112.375  0.00  0.00    -0.241 OA
ENDBRANCH   3  22
TORSDOF 7
ENDMDL
MODEL 3
REMARK VINA RESULT:      -5.5     11.594     13.635
REMARK  7 active torsions:
REMARK  status: ('A' for Active; 'I' for Inactive)
REMARK    1  A    between atoms: C_2  and  C_3 
REMARK    2  A    between atoms: C_3  and  O_6 
REMARK    3  A    between atoms: C_3  and  C_4 
REMARK    4  A    between atoms: C_7  and  O_6 
REMARK    5  A    between atoms: C_9  and  C_10 
REMARK    6  A    between atoms: N_15  and  C_14 
REMARK    7  A    between atoms: N_20  and  C_19 
REMARK       I    between atoms: C_22  and  N_20 
ROOT
ATOM      1  C   LIG d   1       2.754  87.731 114.688  0.00  0.00     0.161 C 
ATOM      2  C   LIG d   1       2.787  88.702 115.703  0.00  0.00     0.016 C 
ATOM      3  C   LIG d   1       3.820  89.659 115.831  0.00  0.00     0.038 C 
ATOM      4  C   LIG d   1       4.819  89.806 114.857  0.00  0.00     0.028 C 
ATOM      5  C   LIG d   1       5.107  88.523 114.086  0.00  0.00    -0.047 C 
ATOM      6  C   LIG d   1       3.775  87.948 113.552  0.00  0.00     0.091 C 
ENDROOT
BRANCH   1   7
ATOM      7  O   LIG d   1       1.420  87.632 114.151  0.00  0.00    -0.368 OA
BRANCH   7   8
ATOM      8  C   LIG d   1       0.731  86.379 114.381  0.00  0.00     0.119 C 
BRANCH   8   9
ATOM      9  C   LIG d   1      -0.068  86.049 113.106  0.00  0.00     0.028 C 
ATOM     10  C   LIG d   1      -0.025  84.551 112.757  0.00  0.00     0.006 C 
ENDBRANCH   8   9
BRANCH   8  11
ATOM     11  C   LIG d   1      -0.314  86.513 115.492  0.00  0.00     0.028 C 
ATOM     12  C   LIG d   1       0.126  85.852 116.808  0.00  0.00     0.006 C 
ENDBRANCH   8  11
ENDBRANCH   7   8
ENDBRANCH   1   7
BRANCH   6  13
ATOM     13  N   LIG d   1       3.957  86.647 112.858  0.00  0.00    -0.311 N 
ATOM     14  C   LIG d   1       3.365  86.342 111.704  0.00  0.00     0.210 C 
ATOM     15  C   LIG d   1       3.673  84.940 111.169  0.00  0.00     0.109 C 
ATOM     16  O   LIG d   1       2.640  87.112 111.056  0.00  0.00    -0.276 OA
ATOM     17  H   LIG d   1       4.555  85.974 113.298  0.00  0.00     0.149 HD
ENDBRANCH   6  13
BRANCH   5  18
ATOM     18  N   LIG d   1       6.065  88.853 113.013  0.00  0.00     0.381 N 
ATOM     19  H   LIG d   1       6.695  88.088 112.875  0.00  0.00    -0.090 HD
ATOM     20  H   LIG d   1       6.600  89.656 113.291  0.00  0.00    -0.090 HD
ATOM     21  H   LIG d   1       5.576  89.047 112.167  0.00  0.00    -0.090 HD
ENDBRANCH   5  18
BRANCH   3  22
ATOM     22  C   LIG d   1       3.884  90.455 116.965  0.00  0.00     0.382 C 
ATOM     23  O   LIG d   1       3.722  91.695 116.869  0.00  0.00    -0.241 OA
ATOM     24  O   LIG d   1       4.144  89.953 118.075  0.00  0.00    -0.241 OA
ENDBRANCH   3  22
TORSDOF 7
ENDMDL
MODEL 4
REMARK VINA RESULT:      -5.3     10.164     12.162
REMARK  7 active torsions:
REMARK  status: ('A' for Active; 'I' for Inactive)
REMARK    1  A    between atoms: C_2  and  C_3 
REMARK    2  A    between atoms: C_3  and  O_6 
REMARK    3  A    between atoms: C_3  and  C_4 
REMARK    4  A    between atoms: C_7  and  O_6 
REMARK    5  A    between atoms: C_9  and  C_10 
REMARK    6  A    between atoms: N_15  and  C_14 
REMARK    7  A    between atoms: N_20  and  C_19 
REMARK       I    between atoms: C_22  and  N_20 
ROOT
ATOM      1  C   LIG d   1       1.855  86.735 114.323  0.00  0.00     0.161 C 
ATOM      2  C   LIG d   1       2.597  87.845 113.887  0.00  0.00     0.016 C 
ATOM      3  C   LIG d   1       3.956  88.053 114.221  0.00  0.00     0.038 C 
ATOM      4  C   LIG d   1       4.711  87.080 114.892  0.00  0.00     0.028 C 
ATOM      5  C   LIG d   1       3.873  86.173 115.786  0.00  0.00    -0.047 C 
ATOM      6  C   LIG d   1       2.693  85.608 114.963  0.00  0.00     0.091 C 
ENDROOT
BRANCH   1   7
ATOM      7  O   LIG d   1       1.067  86.216 113.233  0.00  0.00    -0.368 OA
BRANCH   7   8
ATOM      8  C   LIG d   1       1.497  86.590 111.901  0.00  0.00     0.119 C 
BRANCH   8   9
ATOM      9  C   LIG d   1       0.231  86.840 111.059  0.00  0.00     0.028 C 
ATOM     10  C   LIG d   1      -1.038  86.287 111.729  0.00  0.00     0.006 C 
ENDBRANCH   8   9
BRANCH   8  11
ATOM     11  C   LIG d   1       2.225  85.436 111.206  0.00  0.00     0.028 C 
ATOM     12  C   LIG d   1       3.734  85.687 111.056  0.00  0.00     0.006 C 
ENDBRANCH   8  11
ENDBRANCH   7   8
ENDBRANCH   1   7
BRANCH   6  13
ATOM     13  N   LIG d   1       1.775  84.777 115.784  0.00  0.00    -0.311 N 
ATOM     14  C   LIG d   1       1.931  83.465 115.958  0.00  0.00     0.210 C 
ATOM     15  C   LIG d   1       0.861  82.796 116.826  0.00  0.00     0.109 C 
ATOM     16  O   LIG d   1       2.873  82.799 115.502  0.00  0.00    -0.276 OA
ATOM     17  H   LIG d   1       1.001  85.242 116.217  0.00  0.00     0.149 HD
ENDBRANCH   6  13
BRANCH   5  18
ATOM     18  N   LIG d   1       4.764  85.122 116.315  0.00  0.00     0.381 N 
ATOM     19  H   LIG d   1       4.225  84.438 116.808  0.00  0.00    -0.090 HD
ATOM     20  H   LIG d   1       5.410  85.540 116.961  0.00  0.00    -0.090 HD
ATOM     21  H   LIG d   1       5.261  84.690 115.569  0.00  0.00    -0.090 HD
ENDBRANCH   5  18
BRANCH   3  22
ATOM     22  C   LIG d   1       4.561  89.263 113.916  0.00  0.00     0.382 C 
ATOM     23  O   LIG d   1       5.433  89.318 113.016  0.00  0.00    -0.241 OA
ATOM     24  O   LIG d   1       4.278  90.290 114.561  0.00  0.00    -0.241 OA
ENDBRANCH   3  22
TORSDOF 7
ENDMDL
MODEL 5
REMARK VINA RESULT:      -5.3      9.900     11.802
REMARK  7 active torsions:
REMARK  status: ('A' for Active; 'I' for Inactive)
REMARK    1  A    between atoms: C_2  and  C_3 
REMARK    2  A    between atoms: C_3  and  O_6 
REMARK    3  A    between atoms: C_3  and  C_4 
REMARK    4  A    between atoms: C_7  and  O_6 
REMARK    5  A    between atoms: C_9  and  C_10 
REMARK    6  A    between atoms: N_15  and  C_14 
REMARK    7  A    between atoms: N_20  and  C_19 
REMARK       I    between atoms: C_22  and  N_20 
ROOT
ATOM      1  C   LIG d   1       1.974  86.492 114.334  0.00  0.00     0.161 C 
ATOM      2  C   LIG d   1       2.820  87.611 114.259  0.00  0.00     0.016 C 
ATOM      3  C   LIG d   1       3.779  87.794 113.236  0.00  0.00     0.038 C 
ATOM      4  C   LIG d   1       3.853  86.938 112.128  0.00  0.00     0.028 C 
ATOM      5  C   LIG d   1       3.363  85.524 112.420  0.00  0.00    -0.047 C 
ATOM      6  C   LIG d   1       1.964  85.603 113.073  0.00  0.00     0.091 C 
ENDROOT
BRANCH   1   7
ATOM      7  O   LIG d   1       0.635  86.914 114.661  0.00  0.00    -0.368 OA
BRANCH   7   8
ATOM      8  C   LIG d   1       0.284  86.891 116.067  0.00  0.00     0.119 C 
BRANCH   8   9
ATOM      9  C   LIG d   1       1.056  85.727 116.718  0.00  0.00     0.028 C 
ATOM     10  C   LIG d   1       0.164  84.500 116.970  0.00  0.00     0.006 C 
ENDBRANCH   8   9
BRANCH   8  11
ATOM     11  C   LIG d   1      -1.197  86.558 116.267  0.00  0.00     0.028 C 
ATOM     12  C   LIG d   1      -1.915  87.561 117.184  0.00  0.00     0.006 C 
ENDBRANCH   8  11
ENDBRANCH   7   8
ENDBRANCH   1   7
BRANCH   6  13
ATOM     13  N   LIG d   1       1.446  84.267 113.469  0.00  0.00    -0.311 N 
ATOM     14  C   LIG d   1       0.188  83.879 113.267  0.00  0.00     0.210 C 
ATOM     15  C   LIG d   1      -0.142  82.470 113.769  0.00  0.00     0.109 C 
ATOM     16  O   LIG d   1      -0.677  84.556 112.692  0.00  0.00    -0.276 OA
ATOM     17  H   LIG d   1       2.089  83.643 113.914  0.00  0.00     0.149 HD
ENDBRANCH   6  13
BRANCH   5  18
ATOM     18  N   LIG d   1       3.365  84.779 111.147  0.00  0.00     0.381 N 
ATOM     19  H   LIG d   1       3.315  83.796 111.330  0.00  0.00    -0.090 HD
ATOM     20  H   LIG d   1       4.226  84.965 110.663  0.00  0.00    -0.090 HD
ATOM     21  H   LIG d   1       2.592  85.060 110.586  0.00  0.00    -0.090 HD
ENDBRANCH   5  18
BRANCH   3  22
ATOM     22  C   LIG d   1       4.704  88.822 113.338  0.00  0.00     0.382 C 
ATOM     23  O   LIG d   1       4.325  89.979 113.639  0.00  0.00    -0.241 OA
ATOM     24  O   LIG d   1       5.907  88.616 113.088  0.00  0.00    -0.241 OA
ENDBRANCH   3  22
TORSDOF 7
ENDMDL
MODEL 6
REMARK VINA RESULT:      -5.2      3.479      6.867
REMARK  7 active torsions:
REMARK  status: ('A' for Active; 'I' for Inactive)
REMARK    1  A    between atoms: C_2  and  C_3 
REMARK    2  A    between atoms: C_3  and  O_6 
REMARK    3  A    between atoms: C_3  and  C_4 
REMARK    4  A    between atoms: C_7  and  O_6 
REMARK    5  A    between atoms: C_9  and  C_10 
REMARK    6  A    between atoms: N_15  and  C_14 
REMARK    7  A    between atoms: N_20  and  C_19 
REMARK       I    between atoms: C_22  and  N_20 
ROOT
ATOM      1  C   LIG d   1      -5.817  76.132 116.683  0.00  0.00     0.161 C 
ATOM      2  C   LIG d   1      -5.956  74.802 116.251  0.00  0.00     0.016 C 
ATOM      3  C   LIG d   1      -7.123  74.033 116.463  0.00  0.00     0.038 C 
ATOM      4  C   LIG d   1      -8.295  74.595 116.992  0.00  0.00     0.028 C 
ATOM      5  C   LIG d   1      -8.036  75.790 117.902  0.00  0.00    -0.047 C 
ATOM      6  C   LIG d   1      -7.124  76.796 117.163  0.00  0.00     0.091 C 
ENDROOT
BRANCH   1   7
ATOM      7  O   LIG d   1      -5.206  76.922 115.644  0.00  0.00    -0.368 OA
BRANCH   7   8
ATOM      8  C   LIG d   1      -3.983  76.391 115.075  0.00  0.00     0.119 C 
BRANCH   8   9
ATOM      9  C   LIG d   1      -2.850  76.653 116.086  0.00  0.00     0.028 C 
ATOM     10  C   LIG d   1      -2.282  75.354 116.682  0.00  0.00     0.006 C 
ENDBRANCH   8   9
BRANCH   8  11
ATOM     11  C   LIG d   1      -3.581  77.152 113.809  0.00  0.00     0.028 C 
ATOM     12  C   LIG d   1      -2.073  77.441 113.741  0.00  0.00     0.006 C 
ENDBRANCH   8  11
ENDBRANCH   7   8
ENDBRANCH   1   7
BRANCH   6  13
ATOM     13  N   LIG d   1      -6.753  77.956 118.014  0.00  0.00    -0.311 N 
ATOM     14  C   LIG d   1      -7.489  79.063 118.107  0.00  0.00     0.210 C 
ATOM     15  C   LIG d   1      -6.915  80.146 119.025  0.00  0.00     0.109 C 
ATOM     16  O   LIG d   1      -8.579  79.236 117.541  0.00  0.00    -0.276 OA
ATOM     17  H   LIG d   1      -5.899  77.888 118.532  0.00  0.00     0.149 HD
ENDBRANCH   6  13
BRANCH   5  18
ATOM     18  N   LIG d   1      -9.346  76.361 118.272  0.00  0.00     0.381 N 
ATOM     19  H   LIG d   1      -9.886  76.530 117.447  0.00  0.00    -0.090 HD
ATOM     20  H   LIG d   1      -9.198  77.239 118.737  0.00  0.00    -0.090 HD
ATOM     21  H   LIG d   1      -9.833  75.734 118.874  0.00  0.00    -0.090 HD
ENDBRANCH   5  18
BRANCH   3  22
ATOM     22  C   LIG d   1      -7.113  72.676 116.181  0.00  0.00     0.382 C 
ATOM     23  O   LIG d   1      -7.884  71.901 116.796  0.00  0.00    -0.241 OA
ATOM     24  O   LIG d   1      -6.310  72.209 115.350  0.00  0.00    -0.241 OA
ENDBRANCH   3  22
TORSDOF 7
ENDMDL
MODEL 7
REMARK VINA RESULT:      -5.2      9.769     11.660
REMARK  7 active torsions:
REMARK  status: ('A' for Active; 'I' for Inactive)
REMARK    1  A    between atoms: C_2  and  C_3 
REMARK    2  A    between atoms: C_3  and  O_6 
REMARK    3  A    between atoms: C_3  and  C_4 
REMARK    4  A    between atoms: C_7  and  O_6 
REMARK    5  A    between atoms: C_9  and  C_10 
REMARK    6  A    between atoms: N_15  and  C_14 
REMARK    7  A    between atoms: N_20  and  C_19 
REMARK       I    between atoms: C_22  and  N_20 
ROOT
ATOM      1  C   LIG d   1       1.840  86.383 114.238  0.00  0.00     0.161 C 
ATOM      2  C   LIG d   1       2.723  87.475 114.188  0.00  0.00     0.016 C 
ATOM      3  C   LIG d   1       3.704  87.637 113.182  0.00  0.00     0.038 C 
ATOM      4  C   LIG d   1       3.767  86.790 112.066  0.00  0.00     0.028 C 
ATOM      5  C   LIG d   1       3.227  85.390 112.336  0.00  0.00    -0.047 C 
ATOM      6  C   LIG d   1       1.821  85.508 112.968  0.00  0.00     0.091 C 
ENDROOT
BRANCH   1   7
ATOM      7  O   LIG d   1       0.511  86.845 114.549  0.00  0.00    -0.368 OA
BRANCH   7   8
ATOM      8  C   LIG d   1      -0.078  86.321 115.764  0.00  0.00     0.119 C 
BRANCH   8   9
ATOM      9  C   LIG d   1      -0.386  87.519 116.684  0.00  0.00     0.028 C 
ATOM     10  C   LIG d   1      -1.824  87.486 117.228  0.00  0.00     0.006 C 
ENDBRANCH   8   9
BRANCH   8  11
ATOM     11  C   LIG d   1       0.921  85.459 116.542  0.00  0.00     0.028 C 
ATOM     12  C   LIG d   1       0.362  84.073 116.899  0.00  0.00     0.006 C 
ENDBRANCH   8  11
ENDBRANCH   7   8
ENDBRANCH   1   7
BRANCH   6  13
ATOM     13  N   LIG d   1       1.254  84.186 113.341  0.00  0.00    -0.311 N 
ATOM     14  C   LIG d   1       0.078  83.741 112.900  0.00  0.00     0.210 C 
ATOM     15  C   LIG d   1      -0.328  82.360 113.423  0.00  0.00     0.109 C 
ATOM     16  O   LIG d   1      -0.652  84.346 112.101  0.00  0.00    -0.276 OA
ATOM     17  H   LIG d   1       1.795  83.616 113.962  0.00  0.00     0.149 HD
ENDBRANCH   6  13
BRANCH   5  18
ATOM     18  N   LIG d   1       3.225  84.658 111.055  0.00  0.00     0.381 N 
ATOM     19  H   LIG d   1       3.507  85.269 110.315  0.00  0.00    -0.090 HD
ATOM     20  H   LIG d   1       2.291  84.340 110.863  0.00  0.00    -0.090 HD
ATOM     21  H   LIG d   1       3.844  83.879 111.107  0.00  0.00    -0.090 HD
ENDBRANCH   5  18
BRANCH   3  22
ATOM     22  C   LIG d   1       4.660  88.633 113.309  0.00  0.00     0.382 C 
ATOM     23  O   LIG d   1       4.333  89.764 113.741  0.00  0.00    -0.241 OA
ATOM     24  O   LIG d   1       5.837  88.427 112.955  0.00  0.00    -0.241 OA
ENDBRANCH   3  22
TORSDOF 7
ENDMDL
MODEL 8
REMARK VINA RESULT:      -5.1      9.569     11.752
REMARK  7 active torsions:
REMARK  status: ('A' for Active; 'I' for Inactive)
REMARK    1  A    between atoms: C_2  and  C_3 
REMARK    2  A    between atoms: C_3  and  O_6 
REMARK    3  A    between atoms: C_3  and  C_4 
REMARK    4  A    between atoms: C_7  and  O_6 
REMARK    5  A    between atoms: C_9  and  C_10 
REMARK    6  A    between atoms: N_15  and  C_14 
REMARK    7  A    between atoms: N_20  and  C_19 
REMARK       I    between atoms: C_22  and  N_20 
ROOT
ATOM      1  C   LIG d   1       2.849  85.243 113.509  0.00  0.00     0.161 C 
ATOM      2  C   LIG d   1       3.720  86.328 113.707  0.00  0.00     0.016 C 
ATOM      3  C   LIG d   1       3.476  87.625 113.200  0.00  0.00     0.038 C 
ATOM      4  C   LIG d   1       2.262  87.963 112.584  0.00  0.00     0.028 C 
ATOM      5  C   LIG d   1       1.570  86.779 111.918  0.00  0.00    -0.047 C 
ATOM      6  C   LIG d   1       1.467  85.620 112.935  0.00  0.00     0.091 C 
ENDROOT
BRANCH   1   7
ATOM      7  O   LIG d   1       2.698  84.508 114.739  0.00  0.00    -0.368 OA
BRANCH   7   8
ATOM      8  C   LIG d   1       1.812  85.092 115.726  0.00  0.00     0.119 C 
BRANCH   8   9
ATOM      9  C   LIG d   1       2.642  85.344 117.000  0.00  0.00     0.028 C 
ATOM     10  C   LIG d   1       3.931  84.506 117.037  0.00  0.00     0.006 C 
ENDBRANCH   8   9
BRANCH   8  11
ATOM     11  C   LIG d   1       0.716  84.107 116.144  0.00  0.00     0.028 C 
ATOM     12  C   LIG d   1       0.948  82.690 115.596  0.00  0.00     0.006 C 
ENDBRANCH   8  11
ENDBRANCH   7   8
ENDBRANCH   1   7
BRANCH   6  13
ATOM     13  N   LIG d   1       0.878  84.393 112.339  0.00  0.00    -0.311 N 
ATOM     14  C   LIG d   1      -0.408  84.067 112.455  0.00  0.00     0.210 C 
ATOM     15  C   LIG d   1      -0.804  82.749 111.782  0.00  0.00     0.109 C 
ATOM     16  O   LIG d   1      -1.265  84.760 113.023  0.00  0.00    -0.276 OA
ATOM     17  H   LIG d   1       1.496  83.789 111.834  0.00  0.00     0.149 HD
ENDBRANCH   6  13
BRANCH   5  18
ATOM     18  N   LIG d   1       0.255  87.244 111.437  0.00  0.00     0.381 N 
ATOM     19  H   LIG d   1       0.367  88.082 110.902  0.00  0.00    -0.090 HD
ATOM     20  H   LIG d   1      -0.326  87.452 112.230  0.00  0.00    -0.090 HD
ATOM     21  H   LIG d   1      -0.173  86.539 110.878  0.00  0.00    -0.090 HD
ENDBRANCH   5  18
BRANCH   3  22
ATOM     22  C   LIG d   1       4.470  88.589 113.271  0.00  0.00     0.382 C 
ATOM     23  O   LIG d   1       4.175  89.772 113.565  0.00  0.00    -0.241 OA
ATOM     24  O   LIG d   1       5.651  88.300 113.002  0.00  0.00    -0.241 OA
ENDBRANCH   3  22
TORSDOF 7
ENDMDL
MODEL 9
REMARK VINA RESULT:      -5.1     12.650     14.208
REMARK  7 active torsions:
REMARK  status: ('A' for Active; 'I' for Inactive)
REMARK    1  A    between atoms: C_2  and  C_3 
REMARK    2  A    between atoms: C_3  and  O_6 
REMARK    3  A    between atoms: C_3  and  C_4 
REMARK    4  A    between atoms: C_7  and  O_6 
REMARK    5  A    between atoms: C_9  and  C_10 
REMARK    6  A    between atoms: N_15  and  C_14 
REMARK    7  A    between atoms: N_20  and  C_19 
REMARK       I    between atoms: C_22  and  N_20 
ROOT
ATOM      1  C   LIG d   1       2.757  88.535 115.008  0.00  0.00     0.161 C 
ATOM      2  C   LIG d   1       2.639  87.622 113.947  0.00  0.00     0.016 C 
ATOM      3  C   LIG d   1       3.646  87.423 112.975  0.00  0.00     0.038 C 
ATOM      4  C   LIG d   1       4.911  88.019 113.086  0.00  0.00     0.028 C 
ATOM      5  C   LIG d   1       4.896  89.333 113.860  0.00  0.00    -0.047 C 
ATOM      6  C   LIG d   1       4.174  89.113 115.209  0.00  0.00     0.091 C 
ENDROOT
BRANCH   1   7
ATOM      7  O   LIG d   1       2.285  87.930 116.228  0.00  0.00    -0.368 OA
BRANCH   7   8
ATOM      8  C   LIG d   1       0.946  88.296 116.644  0.00  0.00     0.119 C 
BRANCH   8   9
ATOM      9  C   LIG d   1       1.080  89.278 117.824  0.00  0.00     0.028 C 
ATOM     10  C   LIG d   1       0.695  90.715 117.438  0.00  0.00     0.006 C 
ENDBRANCH   8   9
BRANCH   8  11
ATOM     11  C   LIG d   1       0.188  87.089 117.205  0.00  0.00     0.028 C 
ATOM     12  C   LIG d   1      -1.314  87.127 116.884  0.00  0.00     0.006 C 
ENDBRANCH   8  11
ENDBRANCH   7   8
ENDBRANCH   1   7
BRANCH   6  13
ATOM     13  N   LIG d   1       4.041  90.368 115.992  0.00  0.00    -0.311 N 
ATOM     14  C   LIG d   1       4.911  90.744 116.928  0.00  0.00     0.210 C 
ATOM     15  C   LIG d   1       4.575  92.064 117.630  0.00  0.00     0.109 C 
ATOM     16  O   LIG d   1       5.945  90.126 117.221  0.00  0.00    -0.276 OA
ATOM     17  H   LIG d   1       3.247  90.946 115.797  0.00  0.00     0.149 HD
ENDBRANCH   6  13
BRANCH   5  18
ATOM     18  N   LIG d   1       6.295  89.773 114.018  0.00  0.00     0.381 N 
ATOM     19  H   LIG d   1       6.618  90.188 113.167  0.00  0.00    -0.090 HD
ATOM     20  H   LIG d   1       6.868  88.971 114.215  0.00  0.00    -0.090 HD
ATOM     21  H   LIG d   1       6.363  90.431 114.763  0.00  0.00    -0.090 HD
ENDBRANCH   5  18
BRANCH   3  22
ATOM     22  C   LIG d   1       3.377  86.651 111.855  0.00  0.00     0.382 C 
ATOM     23  O   LIG d   1       4.067  85.629 111.618  0.00  0.00    -0.241 OA
ATOM     24  O   LIG d   1       2.484  86.987 111.055  0.00  0.00    -0.241 OA
ENDBRANCH   3  22
TORSDOF 7
ENDMDL
