MODEL 1
REMARK VINA RESULT:      -5.6      0.000      0.000
REMARK  7 active torsions:
REMARK  status: ('A' for Active; 'I' for Inactive)
REMARK    1  A    between atoms: C_2  and  C_3 
REMARK    2  A    between atoms: C_3  and  O_6 
REMARK    3  A    between atoms: C_3  and  C_4 
REMARK    4  A    between atoms: C_7  and  O_6 
REMARK    5  A    between atoms: C_9  and  C_10 
REMARK    6  A    between atoms: N_15  and  C_14 
REMARK    7  A    between atoms: N_20  and  C_19 
REMARK       I    between atoms: C_22  and  N_20 
ROOT
ATOM      1  C   LIG d   1      -3.462  76.648 114.844  0.00  0.00     0.161 C 
ATOM      2  C   LIG d   1      -3.457  77.652 113.861  0.00  0.00     0.016 C 
ATOM      3  C   LIG d   1      -2.303  78.389 113.508  0.00  0.00     0.038 C 
ATOM      4  C   LIG d   1      -1.034  78.066 114.010  0.00  0.00     0.028 C 
ATOM      5  C   LIG d   1      -1.077  77.395 115.379  0.00  0.00    -0.047 C 
ATOM      6  C   LIG d   1      -2.064  76.206 115.324  0.00  0.00     0.091 C 
ENDROOT
BRANCH   1   7
ATOM      7  O   LIG d   1      -4.215  75.511 114.377  0.00  0.00    -0.368 OA
BRANCH   7   8
ATOM      8  C   LIG d   1      -5.479  75.267 115.042  0.00  0.00     0.119 C 
BRANCH   8   9
ATOM      9  C   LIG d   1      -5.604  76.289 116.188  0.00  0.00     0.028 C 
ATOM     10  C   LIG d   1      -6.860  77.167 116.058  0.00  0.00     0.006 C 
ENDBRANCH   8   9
BRANCH   8  11
ATOM     11  C   LIG d   1      -5.496  73.894 115.720  0.00  0.00     0.028 C 
ATOM     12  C   LIG d   1      -6.847  73.570 116.376  0.00  0.00     0.006 C 
ENDBRANCH   8  11
ENDBRANCH   7   8
ENDBRANCH   1   7
BRANCH   6  13
ATOM     13  N   LIG d   1      -2.230  75.545 116.645  0.00  0.00    -0.311 N 
ATOM     14  C   LIG d   1      -1.525  74.481 117.026  0.00  0.00     0.210 C 
ATOM     15  C   LIG d   1      -1.867  73.944 118.419  0.00  0.00     0.109 C 
ATOM     16  O   LIG d   1      -0.627  73.950 116.355  0.00  0.00    -0.276 OA
ATOM     17  H   LIG d   1      -2.916  75.930 117.264  0.00  0.00     0.149 HD
ENDBRANCH   6  13
BRANCH   5  18
ATOM     18  N   LIG d   1       0.299  76.989 115.720  0.00  0.00     0.381 N 
ATOM     19  H   LIG d   1       0.874  77.018 114.901  0.00  0.00    -0.090 HD
ATOM     20  H   LIG d   1       0.284  76.044 116.061  0.00  0.00    -0.090 HD
ATOM     21  H   LIG d   1       0.671  77.595 116.417  0.00  0.00    -0.090 HD
ENDBRANCH   5  18
BRANCH   3  22
ATOM     22  C   LIG d   1      -2.420  79.489 112.671  0.00  0.00     0.382 C 
ATOM     23  O   LIG d   1      -3.023  80.516 113.067  0.00  0.00    -0.241 OA
ATOM     24  O   LIG d   1      -1.968  79.451 111.511  0.00  0.00    -0.241 OA
ENDBRANCH   3  22
TORSDOF 7
ENDMDL
MODEL 2
REMARK VINA RESULT:      -5.5      3.574      6.418
REMARK  7 active torsions:
REMARK  status: ('A' for Active; 'I' for Inactive)
REMARK    1  A    between atoms: C_2  and  C_3 
REMARK    2  A    between atoms: C_3  and  O_6 
REMARK    3  A    between atoms: C_3  and  C_4 
REMARK    4  A    between atoms: C_7  and  O_6 
REMARK    5  A    between atoms: C_9  and  C_10 
REMARK    6  A    between atoms: N_15  and  C_14 
REMARK    7  A    between atoms: N_20  and  C_19 
REMARK       I    between atoms: C_22  and  N_20 
ROOT
ATOM      1  C   LIG d   1      -6.785  77.096 116.755  0.00  0.00     0.161 C 
ATOM      2  C   LIG d   1      -8.132  76.880 117.090  0.00  0.00     0.016 C 
ATOM      3  C   LIG d   1      -8.730  75.599 117.123  0.00  0.00     0.038 C 
ATOM      4  C   LIG d   1      -7.977  74.426 116.969  0.00  0.00     0.028 C 
ATOM      5  C   LIG d   1      -6.718  74.619 116.131  0.00  0.00    -0.047 C 
ATOM      6  C   LIG d   1      -5.921  75.819 116.692  0.00  0.00     0.091 C 
ENDROOT
BRANCH   1   7
ATOM      7  O   LIG d   1      -6.202  78.051 117.664  0.00  0.00    -0.368 OA
BRANCH   7   8
ATOM      8  C   LIG d   1      -5.735  79.289 117.075  0.00  0.00     0.119 C 
BRANCH   8   9
ATOM      9  C   LIG d   1      -4.213  79.367 117.307  0.00  0.00     0.028 C 
ATOM     10  C   LIG d   1      -3.757  78.511 118.501  0.00  0.00     0.006 C 
ENDBRANCH   8   9
BRANCH   8  11
ATOM     11  C   LIG d   1      -6.319  80.506 117.799  0.00  0.00     0.028 C 
ATOM     12  C   LIG d   1      -7.854  80.544 117.757  0.00  0.00     0.006 C 
ENDBRANCH   8  11
ENDBRANCH   7   8
ENDBRANCH   1   7
BRANCH   6  13
ATOM     13  N   LIG d   1      -4.717  76.130 115.879  0.00  0.00    -0.311 N 
ATOM     14  C   LIG d   1      -3.506  75.643 116.146  0.00  0.00     0.210 C 
ATOM     15  C   LIG d   1      -2.398  76.106 115.194  0.00  0.00     0.109 C 
ATOM     16  O   LIG d   1      -3.250  74.847 117.062  0.00  0.00    -0.276 OA
ATOM     17  H   LIG d   1      -4.840  76.744 115.098  0.00  0.00     0.149 HD
ENDBRANCH   6  13
BRANCH   5  18
ATOM     18  N   LIG d   1      -5.960  73.354 116.166  0.00  0.00     0.381 N 
ATOM     19  H   LIG d   1      -4.994  73.532 115.975  0.00  0.00    -0.090 HD
ATOM     20  H   LIG d   1      -6.315  72.742 115.453  0.00  0.00    -0.090 HD
ATOM     21  H   LIG d   1      -6.055  72.925 117.060  0.00  0.00    -0.090 HD
ENDBRANCH   5  18
BRANCH   3  22
ATOM     22  C   LIG d   1     -10.103  75.486 117.273  0.00  0.00     0.382 C 
ATOM     23  O   LIG d   1     -10.741  76.369 117.896  0.00  0.00    -0.241 OA
ATOM     24  O   LIG d   1     -10.707  74.490 116.831  0.00  0.00    -0.241 OA
ENDBRANCH   3  22
TORSDOF 7
ENDMDL
MODEL 3
REMARK VINA RESULT:      -5.3      1.603      4.829
REMARK  7 active torsions:
REMARK  status: ('A' for Active; 'I' for Inactive)
REMARK    1  A    between atoms: C_2  and  C_3 
REMARK    2  A    between atoms: C_3  and  O_6 
REMARK    3  A    between atoms: C_3  and  C_4 
REMARK    4  A    between atoms: C_7  and  O_6 
REMARK    5  A    between atoms: C_9  and  C_10 
REMARK    6  A    between atoms: N_15  and  C_14 
REMARK    7  A    between atoms: N_20  and  C_19 
REMARK       I    between atoms: C_22  and  N_20 
ROOT
ATOM      1  C   LIG d   1      -3.027  75.343 115.906  0.00  0.00     0.161 C 
ATOM      2  C   LIG d   1      -2.556  74.602 117.003  0.00  0.00     0.016 C 
ATOM      3  C   LIG d   1      -1.323  74.860 117.644  0.00  0.00     0.038 C 
ATOM      4  C   LIG d   1      -0.541  75.980 117.325  0.00  0.00     0.028 C 
ATOM      5  C   LIG d   1      -0.729  76.461 115.890  0.00  0.00    -0.047 C 
ATOM      6  C   LIG d   1      -2.240  76.638 115.615  0.00  0.00     0.091 C 
ENDROOT
BRANCH   1   7
ATOM      7  O   LIG d   1      -4.428  75.636 116.080  0.00  0.00    -0.368 OA
BRANCH   7   8
ATOM      8  C   LIG d   1      -5.341  74.923 115.210  0.00  0.00     0.119 C 
BRANCH   8   9
ATOM      9  C   LIG d   1      -6.471  75.898 114.825  0.00  0.00     0.028 C 
ATOM     10  C   LIG d   1      -6.236  76.558 113.456  0.00  0.00     0.006 C 
ENDBRANCH   8   9
BRANCH   8  11
ATOM     11  C   LIG d   1      -6.031  73.773 115.949  0.00  0.00     0.028 C 
ATOM     12  C   LIG d   1      -7.280  74.226 116.721  0.00  0.00     0.006 C 
ENDBRANCH   8  11
ENDBRANCH   7   8
ENDBRANCH   1   7
BRANCH   6  13
ATOM     13  N   LIG d   1      -2.518  77.026 114.207  0.00  0.00    -0.311 N 
ATOM     14  C   LIG d   1      -2.597  78.291 113.798  0.00  0.00     0.210 C 
ATOM     15  C   LIG d   1      -2.913  78.471 112.310  0.00  0.00     0.109 C 
ATOM     16  O   LIG d   1      -2.405  79.282 114.519  0.00  0.00    -0.276 OA
ATOM     17  H   LIG d   1      -2.657  76.285 113.549  0.00  0.00     0.149 HD
ENDBRANCH   6  13
BRANCH   5  18
ATOM     18  N   LIG d   1       0.037  77.712 115.735  0.00  0.00     0.381 N 
ATOM     19  H   LIG d   1      -0.231  78.171 114.888  0.00  0.00    -0.090 HD
ATOM     20  H   LIG d   1       1.015  77.489 115.677  0.00  0.00    -0.090 HD
ATOM     21  H   LIG d   1      -0.128  78.312 116.513  0.00  0.00    -0.090 HD
ENDBRANCH   5  18
BRANCH   3  22
ATOM     22  C   LIG d   1      -0.841  73.968 118.590  0.00  0.00     0.382 C 
ATOM     23  O   LIG d   1      -1.538  72.984 118.937  0.00  0.00    -0.241 OA
ATOM     24  O   LIG d   1       0.264  74.159 119.134  0.00  0.00    -0.241 OA
ENDBRANCH   3  22
TORSDOF 7
ENDMDL
MODEL 4
REMARK VINA RESULT:      -5.2      9.224     11.831
REMARK  7 active torsions:
REMARK  status: ('A' for Active; 'I' for Inactive)
REMARK    1  A    between atoms: C_2  and  C_3 
REMARK    2  A    between atoms: C_3  and  O_6 
REMARK    3  A    between atoms: C_3  and  C_4 
REMARK    4  A    between atoms: C_7  and  O_6 
REMARK    5  A    between atoms: C_9  and  C_10 
REMARK    6  A    between atoms: N_15  and  C_14 
REMARK    7  A    between atoms: N_20  and  C_19 
REMARK       I    between atoms: C_22  and  N_20 
ROOT
ATOM      1  C   LIG d   1       2.586  86.050 114.311  0.00  0.00     0.161 C 
ATOM      2  C   LIG d   1       2.859  87.368 113.906  0.00  0.00     0.016 C 
ATOM      3  C   LIG d   1       3.860  88.172 114.499  0.00  0.00     0.038 C 
ATOM      4  C   LIG d   1       4.763  87.657 115.441  0.00  0.00     0.028 C 
ATOM      5  C   LIG d   1       4.202  86.486 116.241  0.00  0.00    -0.047 C 
ATOM      6  C   LIG d   1       3.634  85.435 115.261  0.00  0.00     0.091 C 
ENDROOT
BRANCH   1   7
ATOM      7  O   LIG d   1       2.405  85.211 113.153  0.00  0.00    -0.368 OA
BRANCH   7   8
ATOM      8  C   LIG d   1       2.490  85.873 111.867  0.00  0.00     0.119 C 
BRANCH   8   9
ATOM      9  C   LIG d   1       1.244  85.470 111.055  0.00  0.00     0.028 C 
ATOM     10  C   LIG d   1       0.221  84.691 111.899  0.00  0.00     0.006 C 
ENDBRANCH   8   9
BRANCH   8  11
ATOM     11  C   LIG d   1       3.685  85.363 111.055  0.00  0.00     0.028 C 
ATOM     12  C   LIG d   1       3.928  83.857 111.235  0.00  0.00     0.006 C 
ENDBRANCH   8  11
ENDBRANCH   7   8
ENDBRANCH   1   7
BRANCH   6  13
ATOM     13  N   LIG d   1       2.990  84.295 115.963  0.00  0.00    -0.311 N 
ATOM     14  C   LIG d   1       3.639  83.183 116.306  0.00  0.00     0.210 C 
ATOM     15  C   LIG d   1       2.782  82.123 117.005  0.00  0.00     0.109 C 
ATOM     16  O   LIG d   1       4.850  82.988 116.127  0.00  0.00    -0.276 OA
ATOM     17  H   LIG d   1       2.015  84.382 116.176  0.00  0.00     0.149 HD
ENDBRANCH   6  13
BRANCH   5  18
ATOM     18  N   LIG d   1       5.291  85.961 117.086  0.00  0.00     0.381 N 
ATOM     19  H   LIG d   1       6.105  86.534 116.984  0.00  0.00    -0.090 HD
ATOM     20  H   LIG d   1       5.519  85.031 116.781  0.00  0.00    -0.090 HD
ATOM     21  H   LIG d   1       5.005  85.944 118.040  0.00  0.00    -0.090 HD
ENDBRANCH   5  18
BRANCH   3  22
ATOM     22  C   LIG d   1       3.939  89.518 114.178  0.00  0.00     0.382 C 
ATOM     23  O   LIG d   1       3.751  90.386 115.065  0.00  0.00    -0.241 OA
ATOM     24  O   LIG d   1       4.152  89.877 113.005  0.00  0.00    -0.241 OA
ENDBRANCH   3  22
TORSDOF 7
ENDMDL
MODEL 5
REMARK VINA RESULT:      -5.1     17.808     19.880
REMARK  7 active torsions:
REMARK  status: ('A' for Active; 'I' for Inactive)
REMARK    1  A    between atoms: C_2  and  C_3 
REMARK    2  A    between atoms: C_3  and  O_6 
REMARK    3  A    between atoms: C_3  and  C_4 
REMARK    4  A    between atoms: C_7  and  O_6 
REMARK    5  A    between atoms: C_9  and  C_10 
REMARK    6  A    between atoms: N_15  and  C_14 
REMARK    7  A    between atoms: N_20  and  C_19 
REMARK       I    between atoms: C_22  and  N_20 
ROOT
ATOM      1  C   LIG d   1       0.719  57.826 117.634  0.00  0.00     0.161 C 
ATOM      2  C   LIG d   1       0.619  58.734 116.568  0.00  0.00     0.016 C 
ATOM      3  C   LIG d   1      -0.409  58.685 115.598  0.00  0.00     0.038 C 
ATOM      4  C   LIG d   1      -1.498  57.809 115.716  0.00  0.00     0.028 C 
ATOM      5  C   LIG d   1      -1.174  56.541 116.497  0.00  0.00    -0.047 C 
ATOM      6  C   LIG d   1      -0.522  56.933 117.843  0.00  0.00     0.091 C 
ENDROOT
BRANCH   1   7
ATOM      7  O   LIG d   1       1.038  58.532 118.850  0.00  0.00    -0.368 OA
BRANCH   7   8
ATOM      8  C   LIG d   1       2.410  58.430 119.305  0.00  0.00     0.119 C 
BRANCH   8   9
ATOM      9  C   LIG d   1       3.048  59.826 119.168  0.00  0.00     0.028 C 
ATOM     10  C   LIG d   1       3.893  59.962 117.890  0.00  0.00     0.006 C 
ENDBRANCH   8   9
BRANCH   8  11
ATOM     11  C   LIG d   1       3.233  57.516 118.393  0.00  0.00     0.028 C 
ATOM     12  C   LIG d   1       3.951  56.397 119.163  0.00  0.00     0.006 C 
ENDBRANCH   8  11
ENDBRANCH   7   8
ENDBRANCH   1   7
BRANCH   6  13
ATOM     13  N   LIG d   1      -0.097  55.749 118.633  0.00  0.00    -0.311 N 
ATOM     14  C   LIG d   1       0.728  54.813 118.166  0.00  0.00     0.210 C 
ATOM     15  C   LIG d   1       1.021  53.666 119.138  0.00  0.00     0.109 C 
ATOM     16  O   LIG d   1       1.269  54.841 117.051  0.00  0.00    -0.276 OA
ATOM     17  H   LIG d   1      -0.465  55.663 119.561  0.00  0.00     0.149 HD
ENDBRANCH   6  13
BRANCH   5  18
ATOM     18  N   LIG d   1      -2.431  55.786 116.662  0.00  0.00     0.381 N 
ATOM     19  H   LIG d   1      -2.271  54.985 117.240  0.00  0.00    -0.090 HD
ATOM     20  H   LIG d   1      -2.740  55.468 115.761  0.00  0.00    -0.090 HD
ATOM     21  H   LIG d   1      -3.127  56.368 117.074  0.00  0.00    -0.090 HD
ENDBRANCH   5  18
BRANCH   3  22
ATOM     22  C   LIG d   1      -0.331  59.491 114.472  0.00  0.00     0.382 C 
ATOM     23  O   LIG d   1      -1.352  60.091 114.059  0.00  0.00    -0.241 OA
ATOM     24  O   LIG d   1       0.738  59.592 113.840  0.00  0.00    -0.241 OA
ENDBRANCH   3  22
TORSDOF 7
ENDMDL
MODEL 6
REMARK VINA RESULT:      -4.9     21.803     24.556
REMARK  7 active torsions:
REMARK  status: ('A' for Active; 'I' for Inactive)
REMARK    1  A    between atoms: C_2  and  C_3 
REMARK    2  A    between atoms: C_3  and  O_6 
REMARK    3  A    between atoms: C_3  and  C_4 
REMARK    4  A    between atoms: C_7  and  O_6 
REMARK    5  A    between atoms: C_9  and  C_10 
REMARK    6  A    between atoms: N_15  and  C_14 
REMARK    7  A    between atoms: N_20  and  C_19 
REMARK       I    between atoms: C_22  and  N_20 
ROOT
ATOM      1  C   LIG d   1     -25.771  85.333 113.375  0.00  0.00     0.161 C 
ATOM      2  C   LIG d   1     -24.690  86.226 113.471  0.00  0.00     0.016 C 
ATOM      3  C   LIG d   1     -23.396  85.839 113.889  0.00  0.00     0.038 C 
ATOM      4  C   LIG d   1     -23.055  84.494 114.095  0.00  0.00     0.028 C 
ATOM      5  C   LIG d   1     -24.240  83.623 114.498  0.00  0.00    -0.047 C 
ATOM      6  C   LIG d   1     -25.390  83.842 113.489  0.00  0.00     0.091 C 
ENDROOT
BRANCH   1   7
ATOM      7  O   LIG d   1     -26.496  85.573 112.152  0.00  0.00    -0.368 OA
BRANCH   7   8
ATOM      8  C   LIG d   1     -27.638  86.458 112.252  0.00  0.00     0.119 C 
BRANCH   8   9
ATOM      9  C   LIG d   1     -28.865  85.692 111.720  0.00  0.00     0.028 C 
ATOM     10  C   LIG d   1     -29.784  85.198 112.850  0.00  0.00     0.006 C 
ENDBRANCH   8   9
BRANCH   8  11
ATOM     11  C   LIG d   1     -27.486  87.671 111.329  0.00  0.00     0.028 C 
ATOM     12  C   LIG d   1     -27.061  88.943 112.082  0.00  0.00     0.006 C 
ENDBRANCH   8  11
ENDBRANCH   7   8
ENDBRANCH   1   7
BRANCH   6  13
ATOM     13  N   LIG d   1     -26.619  83.091 113.858  0.00  0.00    -0.311 N 
ATOM     14  C   LIG d   1     -27.303  82.339 112.998  0.00  0.00     0.210 C 
ATOM     15  C   LIG d   1     -28.551  81.666 113.579  0.00  0.00     0.109 C 
ATOM     16  O   LIG d   1     -26.978  82.138 111.818  0.00  0.00    -0.276 OA
ATOM     17  H   LIG d   1     -26.937  83.173 114.804  0.00  0.00     0.149 HD
ENDBRANCH   6  13
BRANCH   5  18
ATOM     18  N   LIG d   1     -23.771  82.225 114.546  0.00  0.00     0.381 N 
ATOM     19  H   LIG d   1     -23.418  81.956 113.649  0.00  0.00    -0.090 HD
ATOM     20  H   LIG d   1     -24.548  81.629 114.771  0.00  0.00    -0.090 HD
ATOM     21  H   LIG d   1     -23.058  82.128 115.234  0.00  0.00    -0.090 HD
ENDBRANCH   5  18
BRANCH   3  22
ATOM     22  C   LIG d   1     -22.438  86.808 114.143  0.00  0.00     0.382 C 
ATOM     23  O   LIG d   1     -22.672  87.719 114.972  0.00  0.00    -0.241 OA
ATOM     24  O   LIG d   1     -21.358  86.807 113.521  0.00  0.00    -0.241 OA
ENDBRANCH   3  22
TORSDOF 7
ENDMDL
MODEL 7
REMARK VINA RESULT:      -4.9      9.373     12.770
REMARK  7 active torsions:
REMARK  status: ('A' for Active; 'I' for Inactive)
REMARK    1  A    between atoms: C_2  and  C_3 
REMARK    2  A    between atoms: C_3  and  O_6 
REMARK    3  A    between atoms: C_3  and  C_4 
REMARK    4  A    between atoms: C_7  and  O_6 
REMARK    5  A    between atoms: C_9  and  C_10 
REMARK    6  A    between atoms: N_15  and  C_14 
REMARK    7  A    between atoms: N_20  and  C_19 
REMARK       I    between atoms: C_22  and  N_20 
ROOT
ATOM      1  C   LIG d   1       2.510  86.505 114.632  0.00  0.00     0.161 C 
ATOM      2  C   LIG d   1       2.326  85.128 114.428  0.00  0.00     0.016 C 
ATOM      3  C   LIG d   1       2.013  84.222 115.467  0.00  0.00     0.038 C 
ATOM      4  C   LIG d   1       1.712  84.659 116.766  0.00  0.00     0.028 C 
ATOM      5  C   LIG d   1       2.378  85.982 117.129  0.00  0.00    -0.047 C 
ATOM      6  C   LIG d   1       2.076  87.017 116.021  0.00  0.00     0.091 C 
ENDROOT
BRANCH   1   7
ATOM      7  O   LIG d   1       1.840  87.247 113.593  0.00  0.00    -0.368 OA
BRANCH   7   8
ATOM      8  C   LIG d   1       2.694  87.876 112.606  0.00  0.00     0.119 C 
BRANCH   8   9
ATOM      9  C   LIG d   1       2.628  87.023 111.325  0.00  0.00     0.028 C 
ATOM     10  C   LIG d   1       3.834  86.078 111.187  0.00  0.00     0.006 C 
ENDBRANCH   8   9
BRANCH   8  11
ATOM     11  C   LIG d   1       4.162  87.845 113.040  0.00  0.00     0.028 C 
ATOM     12  C   LIG d   1       4.710  89.237 113.391  0.00  0.00     0.006 C 
ENDBRANCH   8  11
ENDBRANCH   7   8
ENDBRANCH   1   7
BRANCH   6  13
ATOM     13  N   LIG d   1       2.760  88.315 116.256  0.00  0.00    -0.311 N 
ATOM     14  C   LIG d   1       2.115  89.476 116.358  0.00  0.00     0.210 C 
ATOM     15  C   LIG d   1       3.013  90.697 116.580  0.00  0.00     0.109 C 
ATOM     16  O   LIG d   1       0.882  89.606 116.317  0.00  0.00    -0.276 OA
ATOM     17  H   LIG d   1       3.758  88.297 116.334  0.00  0.00     0.149 HD
ENDBRANCH   6  13
BRANCH   5  18
ATOM     18  N   LIG d   1       1.869  86.388 118.453  0.00  0.00     0.381 N 
ATOM     19  H   LIG d   1       2.597  86.306 119.135  0.00  0.00    -0.090 HD
ATOM     20  H   LIG d   1       1.120  85.772 118.716  0.00  0.00    -0.090 HD
ATOM     21  H   LIG d   1       1.540  87.328 118.419  0.00  0.00    -0.090 HD
ENDBRANCH   5  18
BRANCH   3  22
ATOM     22  C   LIG d   1       2.039  82.858 115.221  0.00  0.00     0.382 C 
ATOM     23  O   LIG d   1       1.253  82.095 115.834  0.00  0.00    -0.241 OA
ATOM     24  O   LIG d   1       2.868  82.374 114.427  0.00  0.00    -0.241 OA
ENDBRANCH   3  22
TORSDOF 7
ENDMDL
MODEL 8
REMARK VINA RESULT:      -4.8     12.141     14.312
REMARK  7 active torsions:
REMARK  status: ('A' for Active; 'I' for Inactive)
REMARK    1  A    between atoms: C_2  and  C_3 
REMARK    2  A    between atoms: C_3  and  O_6 
REMARK    3  A    between atoms: C_3  and  C_4 
REMARK    4  A    between atoms: C_7  and  O_6 
REMARK    5  A    between atoms: C_9  and  C_10 
REMARK    6  A    between atoms: N_15  and  C_14 
REMARK    7  A    between atoms: N_20  and  C_19 
REMARK       I    between atoms: C_22  and  N_20 
ROOT
ATOM      1  C   LIG d   1      10.380  76.452 115.452  0.00  0.00     0.161 C 
ATOM      2  C   LIG d   1       9.107  77.045 115.486  0.00  0.00     0.016 C 
ATOM      3  C   LIG d   1       8.815  78.296 114.897  0.00  0.00     0.038 C 
ATOM      4  C   LIG d   1       9.747  78.975 114.097  0.00  0.00     0.028 C 
ATOM      5  C   LIG d   1      11.195  78.659 114.455  0.00  0.00    -0.047 C 
ATOM      6  C   LIG d   1      11.381  77.125 114.489  0.00  0.00     0.091 C 
ENDROOT
BRANCH   1   7
ATOM      7  O   LIG d   1      10.258  75.049 115.147  0.00  0.00    -0.368 OA
BRANCH   7   8
ATOM      8  C   LIG d   1      10.291  74.145 116.279  0.00  0.00     0.119 C 
BRANCH   8   9
ATOM      9  C   LIG d   1      11.245  74.752 117.327  0.00  0.00     0.028 C 
ATOM     10  C   LIG d   1      12.623  74.068 117.332  0.00  0.00     0.006 C 
ENDBRANCH   8   9
BRANCH   8  11
ATOM     11  C   LIG d   1      10.911  72.798 115.898  0.00  0.00     0.028 C 
ATOM     12  C   LIG d   1       9.860  71.695 115.694  0.00  0.00     0.006 C 
ENDBRANCH   8  11
ENDBRANCH   7   8
ENDBRANCH   1   7
BRANCH   6  13
ATOM     13  N   LIG d   1      12.749  76.729 114.913  0.00  0.00    -0.311 N 
ATOM     14  C   LIG d   1      13.772  76.608 114.068  0.00  0.00     0.210 C 
ATOM     15  C   LIG d   1      15.092  76.169 114.711  0.00  0.00     0.109 C 
ATOM     16  O   LIG d   1      13.719  76.853 112.854  0.00  0.00    -0.276 OA
ATOM     17  H   LIG d   1      12.888  76.541 115.886  0.00  0.00     0.149 HD
ENDBRANCH   6  13
BRANCH   5  18
ATOM     18  N   LIG d   1      12.055  79.324 113.457  0.00  0.00     0.381 N 
ATOM     19  H   LIG d   1      11.998  78.838 112.584  0.00  0.00    -0.090 HD
ATOM     20  H   LIG d   1      13.008  79.290 113.775  0.00  0.00    -0.090 HD
ATOM     21  H   LIG d   1      11.770  80.271 113.338  0.00  0.00    -0.090 HD
ENDBRANCH   5  18
BRANCH   3  22
ATOM     22  C   LIG d   1       7.591  78.901 115.139  0.00  0.00     0.382 C 
ATOM     23  O   LIG d   1       6.615  78.664 114.387  0.00  0.00    -0.241 OA
ATOM     24  O   LIG d   1       7.462  79.715 116.073  0.00  0.00    -0.241 OA
ENDBRANCH   3  22
TORSDOF 7
ENDMDL
MODEL 9
REMARK VINA RESULT:      -4.7     20.247     22.554
REMARK  7 active torsions:
REMARK  status: ('A' for Active; 'I' for Inactive)
REMARK    1  A    between atoms: C_2  and  C_3 
REMARK    2  A    between atoms: C_3  and  O_6 
REMARK    3  A    between atoms: C_3  and  C_4 
REMARK    4  A    between atoms: C_7  and  O_6 
REMARK    5  A    between atoms: C_9  and  C_10 
REMARK    6  A    between atoms: N_15  and  C_14 
REMARK    7  A    between atoms: N_20  and  C_19 
REMARK       I    between atoms: C_22  and  N_20 
ROOT
ATOM      1  C   LIG d   1     -23.357  83.329 115.612  0.00  0.00     0.161 C 
ATOM      2  C   LIG d   1     -22.703  84.552 115.391  0.00  0.00     0.016 C 
ATOM      3  C   LIG d   1     -23.214  85.567 114.549  0.00  0.00     0.038 C 
ATOM      4  C   LIG d   1     -24.496  85.488 113.987  0.00  0.00     0.028 C 
ATOM      5  C   LIG d   1     -24.977  84.056 113.775  0.00  0.00    -0.047 C 
ATOM      6  C   LIG d   1     -24.809  83.270 115.095  0.00  0.00     0.091 C 
ENDROOT
BRANCH   1   7
ATOM      7  O   LIG d   1     -23.310  82.996 117.013  0.00  0.00    -0.368 OA
BRANCH   7   8
ATOM      8  C   LIG d   1     -22.980  84.081 117.915  0.00  0.00     0.119 C 
BRANCH   8   9
ATOM      9  C   LIG d   1     -22.137  83.490 119.062  0.00  0.00     0.028 C 
ATOM     10  C   LIG d   1     -21.069  82.505 118.557  0.00  0.00     0.006 C 
ENDBRANCH   8   9
BRANCH   8  11
ATOM     11  C   LIG d   1     -24.234  84.650 118.586  0.00  0.00     0.028 C 
ATOM     12  C   LIG d   1     -24.643  86.019 118.020  0.00  0.00     0.006 C 
ENDBRANCH   8  11
ENDBRANCH   7   8
ENDBRANCH   1   7
BRANCH   6  13
ATOM     13  N   LIG d   1     -25.178  81.837 114.952  0.00  0.00    -0.311 N 
ATOM     14  C   LIG d   1     -26.040  81.218 115.757  0.00  0.00     0.210 C 
ATOM     15  C   LIG d   1     -26.263  79.735 115.447  0.00  0.00     0.109 C 
ATOM     16  O   LIG d   1     -26.666  81.765 116.678  0.00  0.00    -0.276 OA
ATOM     17  H   LIG d   1     -24.741  81.326 114.211  0.00  0.00     0.149 HD
ENDBRANCH   6  13
BRANCH   5  18
ATOM     18  N   LIG d   1     -26.377  84.120 113.314  0.00  0.00     0.381 N 
ATOM     19  H   LIG d   1     -26.758  83.197 113.259  0.00  0.00    -0.090 HD
ATOM     20  H   LIG d   1     -26.398  84.525 112.394  0.00  0.00    -0.090 HD
ATOM     21  H   LIG d   1     -26.918  84.674 113.941  0.00  0.00    -0.090 HD
ENDBRANCH   5  18
BRANCH   3  22
ATOM     22  C   LIG d   1     -22.421  86.660 114.231  0.00  0.00     0.382 C 
ATOM     23  O   LIG d   1     -22.611  87.760 114.803  0.00  0.00    -0.241 OA
ATOM     24  O   LIG d   1     -21.548  86.571 113.347  0.00  0.00    -0.241 OA
ENDBRANCH   3  22
TORSDOF 7
ENDMDL
