MODEL 1
REMARK VINA RESULT:      -5.3      0.000      0.000
REMARK  7 active torsions:
REMARK  status: ('A' for Active; 'I' for Inactive)
REMARK    1  A    between atoms: C_2  and  C_3 
REMARK    2  A    between atoms: C_3  and  O_6 
REMARK    3  A    between atoms: C_3  and  C_4 
REMARK    4  A    between atoms: C_7  and  O_6 
REMARK    5  A    between atoms: C_9  and  C_10 
REMARK    6  A    between atoms: N_15  and  C_14 
REMARK    7  A    between atoms: N_20  and  C_19 
REMARK       I    between atoms: C_22  and  N_20 
ROOT
ATOM      1  C   LIG d   1      -5.248  73.466 116.420  0.00  0.00     0.161 C 
ATOM      2  C   LIG d   1      -4.972  74.278 115.307  0.00  0.00     0.016 C 
ATOM      3  C   LIG d   1      -5.811  75.336 114.888  0.00  0.00     0.038 C 
ATOM      4  C   LIG d   1      -6.914  75.753 115.648  0.00  0.00     0.028 C 
ATOM      5  C   LIG d   1      -7.515  74.642 116.502  0.00  0.00    -0.047 C 
ATOM      6  C   LIG d   1      -6.388  73.977 117.325  0.00  0.00     0.091 C 
ENDROOT
BRANCH   1   7
ATOM      7  O   LIG d   1      -4.046  73.269 117.191  0.00  0.00    -0.368 OA
BRANCH   7   8
ATOM      8  C   LIG d   1      -3.061  74.328 117.118  0.00  0.00     0.119 C 
BRANCH   8   9
ATOM      9  C   LIG d   1      -1.671  73.665 117.065  0.00  0.00     0.028 C 
ATOM     10  C   LIG d   1      -1.301  72.972 118.387  0.00  0.00     0.006 C 
ENDBRANCH   8   9
BRANCH   8  11
ATOM     11  C   LIG d   1      -3.057  75.175 118.394  0.00  0.00     0.028 C 
ATOM     12  C   LIG d   1      -3.760  76.530 118.211  0.00  0.00     0.006 C 
ENDBRANCH   8  11
ENDBRANCH   7   8
ENDBRANCH   1   7
BRANCH   6  13
ATOM     13  N   LIG d   1      -6.876  72.824 118.126  0.00  0.00    -0.311 N 
ATOM     14  C   LIG d   1      -7.218  71.652 117.593  0.00  0.00     0.210 C 
ATOM     15  C   LIG d   1      -7.714  70.605 118.595  0.00  0.00     0.109 C 
ATOM     16  O   LIG d   1      -7.127  71.370 116.388  0.00  0.00    -0.276 OA
ATOM     17  H   LIG d   1      -6.951  72.955 119.116  0.00  0.00     0.149 HD
ENDBRANCH   6  13
BRANCH   5  18
ATOM     18  N   LIG d   1      -8.566  75.246 117.343  0.00  0.00     0.381 N 
ATOM     19  H   LIG d   1      -8.807  74.620 118.086  0.00  0.00    -0.090 HD
ATOM     20  H   LIG d   1      -9.385  75.399 116.781  0.00  0.00    -0.090 HD
ATOM     21  H   LIG d   1      -8.246  76.111 117.720  0.00  0.00    -0.090 HD
ENDBRANCH   5  18
BRANCH   3  22
ATOM     22  C   LIG d   1      -5.572  75.963 113.674  0.00  0.00     0.382 C 
ATOM     23  O   LIG d   1      -6.422  75.892 112.754  0.00  0.00    -0.241 OA
ATOM     24  O   LIG d   1      -4.499  76.562 113.473  0.00  0.00    -0.241 OA
ENDBRANCH   3  22
TORSDOF 7
ENDMDL
MODEL 2
REMARK VINA RESULT:      -5.1      2.040      4.678
REMARK  7 active torsions:
REMARK  status: ('A' for Active; 'I' for Inactive)
REMARK    1  A    between atoms: C_2  and  C_3 
REMARK    2  A    between atoms: C_3  and  O_6 
REMARK    3  A    between atoms: C_3  and  C_4 
REMARK    4  A    between atoms: C_7  and  O_6 
REMARK    5  A    between atoms: C_9  and  C_10 
REMARK    6  A    between atoms: N_15  and  C_14 
REMARK    7  A    between atoms: N_20  and  C_19 
REMARK       I    between atoms: C_22  and  N_20 
ROOT
ATOM      1  C   LIG d   1      -6.413  74.451 118.264  0.00  0.00     0.161 C 
ATOM      2  C   LIG d   1      -6.578  73.057 118.205  0.00  0.00     0.016 C 
ATOM      3  C   LIG d   1      -7.697  72.430 117.611  0.00  0.00     0.038 C 
ATOM      4  C   LIG d   1      -8.661  73.157 116.896  0.00  0.00     0.028 C 
ATOM      5  C   LIG d   1      -8.799  74.602 117.363  0.00  0.00    -0.047 C 
ATOM      6  C   LIG d   1      -7.399  75.256 117.392  0.00  0.00     0.091 C 
ENDROOT
BRANCH   1   7
ATOM      7  O   LIG d   1      -5.054  74.796 117.933  0.00  0.00    -0.368 OA
BRANCH   7   8
ATOM      8  C   LIG d   1      -4.377  73.907 117.011  0.00  0.00     0.119 C 
BRANCH   8   9
ATOM      9  C   LIG d   1      -2.972  73.632 117.581  0.00  0.00     0.028 C 
ATOM     10  C   LIG d   1      -1.853  74.061 116.617  0.00  0.00     0.006 C 
ENDBRANCH   8   9
BRANCH   8  11
ATOM     11  C   LIG d   1      -4.140  74.583 115.657  0.00  0.00     0.028 C 
ATOM     12  C   LIG d   1      -5.198  74.204 114.609  0.00  0.00     0.006 C 
ENDBRANCH   8  11
ENDBRANCH   7   8
ENDBRANCH   1   7
BRANCH   6  13
ATOM     13  N   LIG d   1      -7.433  76.646 117.919  0.00  0.00    -0.311 N 
ATOM     14  C   LIG d   1      -6.754  77.653 117.373  0.00  0.00     0.210 C 
ATOM     15  C   LIG d   1      -6.914  79.001 118.084  0.00  0.00     0.109 C 
ATOM     16  O   LIG d   1      -6.061  77.566 116.349  0.00  0.00    -0.276 OA
ATOM     17  H   LIG d   1      -7.996  76.813 118.730  0.00  0.00     0.149 HD
ENDBRANCH   6  13
BRANCH   5  18
ATOM     18  N   LIG d   1      -9.735  75.279 116.446  0.00  0.00     0.381 N 
ATOM     19  H   LIG d   1     -10.665  74.945 116.602  0.00  0.00    -0.090 HD
ATOM     20  H   LIG d   1      -9.477  75.062 115.499  0.00  0.00    -0.090 HD
ATOM     21  H   LIG d   1      -9.700  76.265 116.589  0.00  0.00    -0.090 HD
ENDBRANCH   5  18
BRANCH   3  22
ATOM     22  C   LIG d   1      -7.881  71.064 117.763  0.00  0.00     0.382 C 
ATOM     23  O   LIG d   1      -7.539  70.501 118.830  0.00  0.00    -0.241 OA
ATOM     24  O   LIG d   1      -8.344  70.382 116.830  0.00  0.00    -0.241 OA
ENDBRANCH   3  22
TORSDOF 7
ENDMDL
MODEL 3
REMARK VINA RESULT:      -5.0     15.011     17.237
REMARK  7 active torsions:
REMARK  status: ('A' for Active; 'I' for Inactive)
REMARK    1  A    between atoms: C_2  and  C_3 
REMARK    2  A    between atoms: C_3  and  O_6 
REMARK    3  A    between atoms: C_3  and  C_4 
REMARK    4  A    between atoms: C_7  and  O_6 
REMARK    5  A    between atoms: C_9  and  C_10 
REMARK    6  A    between atoms: N_15  and  C_14 
REMARK    7  A    between atoms: N_20  and  C_19 
REMARK       I    between atoms: C_22  and  N_20 
ROOT
ATOM      1  C   LIG d   1       1.043  88.770 116.772  0.00  0.00     0.161 C 
ATOM      2  C   LIG d   1      -0.352  88.611 116.832  0.00  0.00     0.016 C 
ATOM      3  C   LIG d   1      -1.225  89.588 117.363  0.00  0.00     0.038 C 
ATOM      4  C   LIG d   1      -0.772  90.863 117.735  0.00  0.00     0.028 C 
ATOM      5  C   LIG d   1       0.692  90.885 118.163  0.00  0.00    -0.047 C 
ATOM      6  C   LIG d   1       1.544  90.198 117.071  0.00  0.00     0.091 C 
ENDROOT
BRANCH   1   7
ATOM      7  O   LIG d   1       1.531  88.325 115.491  0.00  0.00    -0.368 OA
BRANCH   7   8
ATOM      8  C   LIG d   1       2.472  87.224 115.515  0.00  0.00     0.119 C 
BRANCH   8   9
ATOM      9  C   LIG d   1       3.754  87.695 114.801  0.00  0.00     0.028 C 
ATOM     10  C   LIG d   1       3.547  89.011 114.032  0.00  0.00     0.006 C 
ENDBRANCH   8   9
BRANCH   8  11
ATOM     11  C   LIG d   1       1.962  86.037 114.692  0.00  0.00     0.028 C 
ATOM     12  C   LIG d   1       3.092  85.103 114.230  0.00  0.00     0.006 C 
ENDBRANCH   8  11
ENDBRANCH   7   8
ENDBRANCH   1   7
BRANCH   6  13
ATOM     13  N   LIG d   1       2.978  90.102 117.449  0.00  0.00    -0.311 N 
ATOM     14  C   LIG d   1       3.870  91.057 117.191  0.00  0.00     0.210 C 
ATOM     15  C   LIG d   1       5.299  90.748 117.648  0.00  0.00     0.109 C 
ATOM     16  O   LIG d   1       3.606  92.145 116.657  0.00  0.00    -0.276 OA
ATOM     17  H   LIG d   1       3.272  89.266 117.914  0.00  0.00     0.149 HD
ENDBRANCH   6  13
BRANCH   5  18
ATOM     18  N   LIG d   1       1.068  92.293 118.390  0.00  0.00     0.381 N 
ATOM     19  H   LIG d   1       1.451  92.397 119.309  0.00  0.00    -0.090 HD
ATOM     20  H   LIG d   1       0.244  92.864 118.325  0.00  0.00    -0.090 HD
ATOM     21  H   LIG d   1       1.736  92.581 117.710  0.00  0.00    -0.090 HD
ENDBRANCH   5  18
BRANCH   3  22
ATOM     22  C   LIG d   1      -2.561  89.279 117.564  0.00  0.00     0.382 C 
ATOM     23  O   LIG d   1      -3.410  89.568 116.686  0.00  0.00    -0.241 OA
ATOM     24  O   LIG d   1      -2.936  88.756 118.631  0.00  0.00    -0.241 OA
ENDBRANCH   3  22
TORSDOF 7
ENDMDL
MODEL 4
REMARK VINA RESULT:      -4.9     14.834     17.295
REMARK  7 active torsions:
REMARK  status: ('A' for Active; 'I' for Inactive)
REMARK    1  A    between atoms: C_2  and  C_3 
REMARK    2  A    between atoms: C_3  and  O_6 
REMARK    3  A    between atoms: C_3  and  C_4 
REMARK    4  A    between atoms: C_7  and  O_6 
REMARK    5  A    between atoms: C_9  and  C_10 
REMARK    6  A    between atoms: N_15  and  C_14 
REMARK    7  A    between atoms: N_20  and  C_19 
REMARK       I    between atoms: C_22  and  N_20 
ROOT
ATOM      1  C   LIG d   1       3.475  87.387 115.826  0.00  0.00     0.161 C 
ATOM      2  C   LIG d   1       3.963  88.163 116.891  0.00  0.00     0.016 C 
ATOM      3  C   LIG d   1       4.815  89.277 116.715  0.00  0.00     0.038 C 
ATOM      4  C   LIG d   1       5.117  89.787 115.444  0.00  0.00     0.028 C 
ATOM      5  C   LIG d   1       5.058  88.736 114.340  0.00  0.00    -0.047 C 
ATOM      6  C   LIG d   1       3.704  87.994 114.426  0.00  0.00     0.091 C 
ENDROOT
BRANCH   1   7
ATOM      7  O   LIG d   1       2.076  87.105 116.027  0.00  0.00    -0.368 OA
BRANCH   7   8
ATOM      8  C   LIG d   1       1.447  87.773 117.148  0.00  0.00     0.119 C 
BRANCH   8   9
ATOM      9  C   LIG d   1       0.751  86.693 118.000  0.00  0.00     0.028 C 
ATOM     10  C   LIG d   1       1.746  85.888 118.853  0.00  0.00     0.006 C 
ENDBRANCH   8   9
BRANCH   8  11
ATOM     11  C   LIG d   1       0.325  88.707 116.682  0.00  0.00     0.028 C 
ATOM     12  C   LIG d   1       0.811  90.143 116.430  0.00  0.00     0.006 C 
ENDBRANCH   8  11
ENDBRANCH   7   8
ENDBRANCH   1   7
BRANCH   6  13
ATOM     13  N   LIG d   1       3.598  86.892 113.435  0.00  0.00    -0.311 N 
ATOM     14  C   LIG d   1       3.033  87.035 112.237  0.00  0.00     0.210 C 
ATOM     15  C   LIG d   1       3.011  85.767 111.378  0.00  0.00     0.109 C 
ATOM     16  O   LIG d   1       2.578  88.099 111.792  0.00  0.00    -0.276 OA
ATOM     17  H   LIG d   1       3.970  86.001 113.702  0.00  0.00     0.149 HD
ENDBRANCH   6  13
BRANCH   5  18
ATOM     18  N   LIG d   1       5.257  89.429 113.053  0.00  0.00     0.381 N 
ATOM     19  H   LIG d   1       5.069  88.800 112.298  0.00  0.00    -0.090 HD
ATOM     20  H   LIG d   1       6.215  89.723 112.988  0.00  0.00    -0.090 HD
ATOM     21  H   LIG d   1       4.654  90.219 112.995  0.00  0.00    -0.090 HD
ENDBRANCH   5  18
BRANCH   3  22
ATOM     22  C   LIG d   1       5.407  89.871 117.820  0.00  0.00     0.382 C 
ATOM     23  O   LIG d   1       4.884  89.747 118.954  0.00  0.00    -0.241 OA
ATOM     24  O   LIG d   1       6.432  90.566 117.690  0.00  0.00    -0.241 OA
ENDBRANCH   3  22
TORSDOF 7
ENDMDL
MODEL 5
REMARK VINA RESULT:      -4.9     14.748     17.433
REMARK  7 active torsions:
REMARK  status: ('A' for Active; 'I' for Inactive)
REMARK    1  A    between atoms: C_2  and  C_3 
REMARK    2  A    between atoms: C_3  and  O_6 
REMARK    3  A    between atoms: C_3  and  C_4 
REMARK    4  A    between atoms: C_7  and  O_6 
REMARK    5  A    between atoms: C_9  and  C_10 
REMARK    6  A    between atoms: N_15  and  C_14 
REMARK    7  A    between atoms: N_20  and  C_19 
REMARK       I    between atoms: C_22  and  N_20 
ROOT
ATOM      1  C   LIG d   1      10.887  75.846 114.868  0.00  0.00     0.161 C 
ATOM      2  C   LIG d   1       9.530  76.173 115.022  0.00  0.00     0.016 C 
ATOM      3  C   LIG d   1       9.029  77.490 114.906  0.00  0.00     0.038 C 
ATOM      4  C   LIG d   1       9.835  78.555 114.477  0.00  0.00     0.028 C 
ATOM      5  C   LIG d   1      11.313  78.365 114.801  0.00  0.00    -0.047 C 
ATOM      6  C   LIG d   1      11.764  76.977 114.291  0.00  0.00     0.091 C 
ENDROOT
BRANCH   1   7
ATOM      7  O   LIG d   1      11.015  74.654 114.068  0.00  0.00    -0.368 OA
BRANCH   7   8
ATOM      8  C   LIG d   1      11.606  73.506 114.724  0.00  0.00     0.119 C 
BRANCH   8   9
ATOM      9  C   LIG d   1      12.514  72.802 113.697  0.00  0.00     0.028 C 
ATOM     10  C   LIG d   1      14.008  72.986 114.013  0.00  0.00     0.006 C 
ENDBRANCH   8   9
BRANCH   8  11
ATOM     11  C   LIG d   1      10.541  72.471 115.100  0.00  0.00     0.028 C 
ATOM     12  C   LIG d   1      10.611  72.054 116.578  0.00  0.00     0.006 C 
ENDBRANCH   8  11
ENDBRANCH   7   8
ENDBRANCH   1   7
BRANCH   6  13
ATOM     13  N   LIG d   1      13.176  76.675 114.642  0.00  0.00    -0.311 N 
ATOM     14  C   LIG d   1      14.203  76.926 113.831  0.00  0.00     0.210 C 
ATOM     15  C   LIG d   1      15.574  76.519 114.379  0.00  0.00     0.109 C 
ATOM     16  O   LIG d   1      14.111  77.476 112.723  0.00  0.00    -0.276 OA
ATOM     17  H   LIG d   1      13.344  76.256 115.535  0.00  0.00     0.149 HD
ENDBRANCH   6  13
BRANCH   5  18
ATOM     18  N   LIG d   1      12.053  79.478 114.178  0.00  0.00     0.381 N 
ATOM     19  H   LIG d   1      12.643  79.915 114.858  0.00  0.00    -0.090 HD
ATOM     20  H   LIG d   1      11.395  80.161 113.847  0.00  0.00    -0.090 HD
ATOM     21  H   LIG d   1      12.603  79.140 113.419  0.00  0.00    -0.090 HD
ENDBRANCH   5  18
BRANCH   3  22
ATOM     22  C   LIG d   1       7.716  77.760 115.260  0.00  0.00     0.382 C 
ATOM     23  O   LIG d   1       7.469  78.574 116.183  0.00  0.00    -0.241 OA
ATOM     24  O   LIG d   1       6.776  77.166 114.699  0.00  0.00    -0.241 OA
ENDBRANCH   3  22
TORSDOF 7
ENDMDL
MODEL 6
REMARK VINA RESULT:      -4.9      3.241      5.252
REMARK  7 active torsions:
REMARK  status: ('A' for Active; 'I' for Inactive)
REMARK    1  A    between atoms: C_2  and  C_3 
REMARK    2  A    between atoms: C_3  and  O_6 
REMARK    3  A    between atoms: C_3  and  C_4 
REMARK    4  A    between atoms: C_7  and  O_6 
REMARK    5  A    between atoms: C_9  and  C_10 
REMARK    6  A    between atoms: N_15  and  C_14 
REMARK    7  A    between atoms: N_20  and  C_19 
REMARK       I    between atoms: C_22  and  N_20 
ROOT
ATOM      1  C   LIG d   1      -6.518  75.394 118.778  0.00  0.00     0.161 C 
ATOM      2  C   LIG d   1      -7.514  76.385 118.805  0.00  0.00     0.016 C 
ATOM      3  C   LIG d   1      -7.452  77.572 118.039  0.00  0.00     0.038 C 
ATOM      4  C   LIG d   1      -6.455  77.780 117.074  0.00  0.00     0.028 C 
ATOM      5  C   LIG d   1      -5.157  77.040 117.375  0.00  0.00    -0.047 C 
ATOM      6  C   LIG d   1      -5.478  75.553 117.649  0.00  0.00     0.091 C 
ENDROOT
BRANCH   1   7
ATOM      7  O   LIG d   1      -7.127  74.090 118.719  0.00  0.00    -0.368 OA
BRANCH   7   8
ATOM      8  C   LIG d   1      -7.520  73.629 117.403  0.00  0.00     0.119 C 
BRANCH   8   9
ATOM      9  C   LIG d   1      -9.037  73.361 117.439  0.00  0.00     0.028 C 
ATOM     10  C   LIG d   1      -9.853  74.526 116.855  0.00  0.00     0.006 C 
ENDBRANCH   8   9
BRANCH   8  11
ATOM     11  C   LIG d   1      -6.877  72.279 117.071  0.00  0.00     0.028 C 
ATOM     12  C   LIG d   1      -7.910  71.201 116.706  0.00  0.00     0.006 C 
ENDBRANCH   8  11
ENDBRANCH   7   8
ENDBRANCH   1   7
BRANCH   6  13
ATOM     13  N   LIG d   1      -4.273  74.774 118.035  0.00  0.00    -0.311 N 
ATOM     14  C   LIG d   1      -3.524  74.102 117.162  0.00  0.00     0.210 C 
ATOM     15  C   LIG d   1      -2.338  73.349 117.772  0.00  0.00     0.109 C 
ATOM     16  O   LIG d   1      -3.710  74.085 115.936  0.00  0.00    -0.276 OA
ATOM     17  H   LIG d   1      -4.031  74.759 119.006  0.00  0.00     0.149 HD
ENDBRANCH   6  13
BRANCH   5  18
ATOM     18  N   LIG d   1      -4.256  77.234 116.223  0.00  0.00     0.381 N 
ATOM     19  H   LIG d   1      -4.733  77.736 115.501  0.00  0.00    -0.090 HD
ATOM     20  H   LIG d   1      -3.993  76.334 115.861  0.00  0.00    -0.090 HD
ATOM     21  H   LIG d   1      -3.443  77.736 116.506  0.00  0.00    -0.090 HD
ENDBRANCH   5  18
BRANCH   3  22
ATOM     22  C   LIG d   1      -8.373  78.583 118.264  0.00  0.00     0.382 C 
ATOM     23  O   LIG d   1      -9.557  78.298 118.565  0.00  0.00    -0.241 OA
ATOM     24  O   LIG d   1      -8.046  79.777 118.126  0.00  0.00    -0.241 OA
ENDBRANCH   3  22
TORSDOF 7
ENDMDL
MODEL 7
REMARK VINA RESULT:      -4.9     14.124     16.449
REMARK  7 active torsions:
REMARK  status: ('A' for Active; 'I' for Inactive)
REMARK    1  A    between atoms: C_2  and  C_3 
REMARK    2  A    between atoms: C_3  and  O_6 
REMARK    3  A    between atoms: C_3  and  C_4 
REMARK    4  A    between atoms: C_7  and  O_6 
REMARK    5  A    between atoms: C_9  and  C_10 
REMARK    6  A    between atoms: N_15  and  C_14 
REMARK    7  A    between atoms: N_20  and  C_19 
REMARK       I    between atoms: C_22  and  N_20 
ROOT
ATOM      1  C   LIG d   1       3.012  87.463 115.098  0.00  0.00     0.161 C 
ATOM      2  C   LIG d   1       2.473  86.717 114.037  0.00  0.00     0.016 C 
ATOM      3  C   LIG d   1       2.931  86.819 112.703  0.00  0.00     0.038 C 
ATOM      4  C   LIG d   1       4.068  87.567 112.365  0.00  0.00     0.028 C 
ATOM      5  C   LIG d   1       4.333  88.730 113.315  0.00  0.00    -0.047 C 
ATOM      6  C   LIG d   1       4.326  88.202 114.768  0.00  0.00     0.091 C 
ENDROOT
BRANCH   1   7
ATOM      7  O   LIG d   1       3.190  86.615 116.250  0.00  0.00    -0.368 OA
BRANCH   7   8
ATOM      8  C   LIG d   1       2.982  85.197 116.036  0.00  0.00     0.119 C 
BRANCH   8   9
ATOM      9  C   LIG d   1       2.105  84.678 117.192  0.00  0.00     0.028 C 
ATOM     10  C   LIG d   1       2.044  83.142 117.239  0.00  0.00     0.006 C 
ENDBRANCH   8   9
BRANCH   8  11
ATOM     11  C   LIG d   1       4.297  84.419 116.144  0.00  0.00     0.028 C 
ATOM     12  C   LIG d   1       5.399  85.209 116.867  0.00  0.00     0.006 C 
ENDBRANCH   8  11
ENDBRANCH   7   8
ENDBRANCH   1   7
BRANCH   6  13
ATOM     13  N   LIG d   1       4.494  89.289 115.767  0.00  0.00    -0.311 N 
ATOM     14  C   LIG d   1       5.527  89.361 116.605  0.00  0.00     0.210 C 
ATOM     15  C   LIG d   1       5.496  90.552 117.568  0.00  0.00     0.109 C 
ATOM     16  O   LIG d   1       6.482  88.570 116.621  0.00  0.00    -0.276 OA
ATOM     17  H   LIG d   1       3.781  89.991 115.802  0.00  0.00     0.149 HD
ENDBRANCH   6  13
BRANCH   5  18
ATOM     18  N   LIG d   1       5.620  89.338 112.928  0.00  0.00     0.381 N 
ATOM     19  H   LIG d   1       6.138  88.700 112.358  0.00  0.00    -0.090 HD
ATOM     20  H   LIG d   1       6.154  89.525 113.758  0.00  0.00    -0.090 HD
ATOM     21  H   LIG d   1       5.460  90.186 112.429  0.00  0.00    -0.090 HD
ENDBRANCH   5  18
BRANCH   3  22
ATOM     22  C   LIG d   1       2.224  86.198 111.684  0.00  0.00     0.382 C 
ATOM     23  O   LIG d   1       1.319  86.821 111.079  0.00  0.00    -0.241 OA
ATOM     24  O   LIG d   1       2.451  85.008 111.393  0.00  0.00    -0.241 OA
ENDBRANCH   3  22
TORSDOF 7
ENDMDL
MODEL 8
REMARK VINA RESULT:      -4.8     13.223     15.745
REMARK  7 active torsions:
REMARK  status: ('A' for Active; 'I' for Inactive)
REMARK    1  A    between atoms: C_2  and  C_3 
REMARK    2  A    between atoms: C_3  and  O_6 
REMARK    3  A    between atoms: C_3  and  C_4 
REMARK    4  A    between atoms: C_7  and  O_6 
REMARK    5  A    between atoms: C_9  and  C_10 
REMARK    6  A    between atoms: N_15  and  C_14 
REMARK    7  A    between atoms: N_20  and  C_19 
REMARK       I    between atoms: C_22  and  N_20 
ROOT
ATOM      1  C   LIG d   1       2.828  86.509 114.935  0.00  0.00     0.161 C 
ATOM      2  C   LIG d   1       2.761  85.108 114.855  0.00  0.00     0.016 C 
ATOM      3  C   LIG d   1       2.551  84.274 115.977  0.00  0.00     0.038 C 
ATOM      4  C   LIG d   1       2.241  84.796 117.242  0.00  0.00     0.028 C 
ATOM      5  C   LIG d   1       2.797  86.198 117.471  0.00  0.00    -0.047 C 
ATOM      6  C   LIG d   1       2.382  87.102 116.288  0.00  0.00     0.091 C 
ENDROOT
BRANCH   1   7
ATOM      7  O   LIG d   1       2.073  87.096 113.857  0.00  0.00    -0.368 OA
BRANCH   7   8
ATOM      8  C   LIG d   1       2.846  87.754 112.823  0.00  0.00     0.119 C 
BRANCH   8   9
ATOM      9  C   LIG d   1       2.634  86.967 111.515  0.00  0.00     0.028 C 
ATOM     10  C   LIG d   1       3.739  85.925 111.272  0.00  0.00     0.006 C 
ENDBRANCH   8   9
BRANCH   8  11
ATOM     11  C   LIG d   1       4.348  87.668 113.109  0.00  0.00     0.028 C 
ATOM     12  C   LIG d   1       5.005  89.049 113.262  0.00  0.00     0.006 C 
ENDBRANCH   8  11
ENDBRANCH   7   8
ENDBRANCH   1   7
BRANCH   6  13
ATOM     13  N   LIG d   1       2.955  88.469 116.391  0.00  0.00    -0.311 N 
ATOM     14  C   LIG d   1       2.258  89.577 116.146  0.00  0.00     0.210 C 
ATOM     15  C   LIG d   1       3.046  90.882 116.291  0.00  0.00     0.109 C 
ATOM     16  O   LIG d   1       1.053  89.604 115.853  0.00  0.00    -0.276 OA
ATOM     17  H   LIG d   1       3.919  88.541 116.653  0.00  0.00     0.149 HD
ENDBRANCH   6  13
BRANCH   5  18
ATOM     18  N   LIG d   1       2.284  86.674 118.770  0.00  0.00     0.381 N 
ATOM     19  H   LIG d   1       2.483  87.648 118.876  0.00  0.00    -0.090 HD
ATOM     20  H   LIG d   1       2.751  86.174 119.506  0.00  0.00    -0.090 HD
ATOM     21  H   LIG d   1       1.301  86.520 118.825  0.00  0.00    -0.090 HD
ENDBRANCH   5  18
BRANCH   3  22
ATOM     22  C   LIG d   1       2.689  82.900 115.848  0.00  0.00     0.382 C 
ATOM     23  O   LIG d   1       3.489  82.278 116.588  0.00  0.00    -0.241 OA
ATOM     24  O   LIG d   1       2.058  82.281 114.971  0.00  0.00    -0.241 OA
ENDBRANCH   3  22
TORSDOF 7
ENDMDL
MODEL 9
REMARK VINA RESULT:      -4.8     14.158     16.516
REMARK  7 active torsions:
REMARK  status: ('A' for Active; 'I' for Inactive)
REMARK    1  A    between atoms: C_2  and  C_3 
REMARK    2  A    between atoms: C_3  and  O_6 
REMARK    3  A    between atoms: C_3  and  C_4 
REMARK    4  A    between atoms: C_7  and  O_6 
REMARK    5  A    between atoms: C_9  and  C_10 
REMARK    6  A    between atoms: N_15  and  C_14 
REMARK    7  A    between atoms: N_20  and  C_19 
REMARK       I    between atoms: C_22  and  N_20 
ROOT
ATOM      1  C   LIG d   1       3.116  87.261 115.016  0.00  0.00     0.161 C 
ATOM      2  C   LIG d   1       2.558  86.573 113.926  0.00  0.00     0.016 C 
ATOM      3  C   LIG d   1       2.987  86.752 112.591  0.00  0.00     0.038 C 
ATOM      4  C   LIG d   1       4.113  87.525 112.271  0.00  0.00     0.028 C 
ATOM      5  C   LIG d   1       4.393  88.634 113.280  0.00  0.00    -0.047 C 
ATOM      6  C   LIG d   1       4.419  88.025 114.701  0.00  0.00     0.091 C 
ENDROOT
BRANCH   1   7
ATOM      7  O   LIG d   1       3.323  86.351 116.114  0.00  0.00    -0.368 OA
BRANCH   7   8
ATOM      8  C   LIG d   1       2.652  86.685 117.354  0.00  0.00     0.119 C 
BRANCH   8   9
ATOM      9  C   LIG d   1       2.037  85.387 117.913  0.00  0.00     0.028 C 
ATOM     10  C   LIG d   1       2.259  84.184 116.981  0.00  0.00     0.006 C 
ENDBRANCH   8   9
BRANCH   8  11
ATOM     11  C   LIG d   1       1.466  87.623 117.111  0.00  0.00     0.028 C 
ATOM     12  C   LIG d   1       0.302  87.379 118.084  0.00  0.00     0.006 C 
ENDBRANCH   8  11
ENDBRANCH   7   8
ENDBRANCH   1   7
BRANCH   6  13
ATOM     13  N   LIG d   1       4.604  89.055 115.756  0.00  0.00    -0.311 N 
ATOM     14  C   LIG d   1       5.659  89.092 116.568  0.00  0.00     0.210 C 
ATOM     15  C   LIG d   1       5.642  90.225 117.598  0.00  0.00     0.109 C 
ATOM     16  O   LIG d   1       6.622  88.313 116.512  0.00  0.00    -0.276 OA
ATOM     17  H   LIG d   1       3.884  89.745 115.850  0.00  0.00     0.149 HD
ENDBRANCH   6  13
BRANCH   5  18
ATOM     18  N   LIG d   1       5.669  89.270 112.900  0.00  0.00     0.381 N 
ATOM     19  H   LIG d   1       6.267  89.332 113.699  0.00  0.00    -0.090 HD
ATOM     20  H   LIG d   1       5.482  90.202 112.574  0.00  0.00    -0.090 HD
ATOM     21  H   LIG d   1       6.113  88.742 112.183  0.00  0.00    -0.090 HD
ENDBRANCH   5  18
BRANCH   3  22
ATOM     22  C   LIG d   1       2.262  86.185 111.554  0.00  0.00     0.382 C 
ATOM     23  O   LIG d   1       2.606  85.075 111.081  0.00  0.00    -0.241 OA
ATOM     24  O   LIG d   1       1.294  86.791 111.055  0.00  0.00    -0.241 OA
ENDBRANCH   3  22
TORSDOF 7
ENDMDL
