MODEL 1
REMARK VINA RESULT:      -5.3      0.000      0.000
REMARK  7 active torsions:
REMARK  status: ('A' for Active; 'I' for Inactive)
REMARK    1  A    between atoms: C_2  and  C_3 
REMARK    2  A    between atoms: C_3  and  O_6 
REMARK    3  A    between atoms: C_3  and  C_4 
REMARK    4  A    between atoms: C_7  and  O_6 
REMARK    5  A    between atoms: C_9  and  C_10 
REMARK    6  A    between atoms: N_15  and  C_14 
REMARK    7  A    between atoms: N_20  and  C_19 
REMARK       I    between atoms: C_22  and  N_20 
ROOT
ATOM      1  C   LIG d   1      -1.793  75.711 114.824  0.00  0.00     0.161 C 
ATOM      2  C   LIG d   1      -1.596  74.857 115.923  0.00  0.00     0.016 C 
ATOM      3  C   LIG d   1      -0.819  75.207 117.050  0.00  0.00     0.038 C 
ATOM      4  C   LIG d   1      -0.306  76.501 117.225  0.00  0.00     0.028 C 
ATOM      5  C   LIG d   1      -0.055  77.235 115.912  0.00  0.00    -0.047 C 
ATOM      6  C   LIG d   1      -1.334  77.167 115.046  0.00  0.00     0.091 C 
ENDROOT
BRANCH   1   7
ATOM      7  O   LIG d   1      -3.177  75.678 114.422  0.00  0.00    -0.368 OA
BRANCH   7   8
ATOM      8  C   LIG d   1      -4.145  75.493 115.484  0.00  0.00     0.119 C 
BRANCH   8   9
ATOM      9  C   LIG d   1      -5.290  74.628 114.921  0.00  0.00     0.028 C 
ATOM     10  C   LIG d   1      -5.782  73.577 115.930  0.00  0.00     0.006 C 
ENDBRANCH   8   9
BRANCH   8  11
ATOM     11  C   LIG d   1      -4.797  76.821 115.880  0.00  0.00     0.028 C 
ATOM     12  C   LIG d   1      -4.398  77.283 117.290  0.00  0.00     0.006 C 
ENDBRANCH   8  11
ENDBRANCH   7   8
ENDBRANCH   1   7
BRANCH   6  13
ATOM     13  N   LIG d   1      -1.147  77.788 113.709  0.00  0.00    -0.311 N 
ATOM     14  C   LIG d   1      -1.992  78.677 113.189  0.00  0.00     0.210 C 
ATOM     15  C   LIG d   1      -1.623  79.178 111.790  0.00  0.00     0.109 C 
ATOM     16  O   LIG d   1      -2.994  79.122 113.768  0.00  0.00    -0.276 OA
ATOM     17  H   LIG d   1      -0.342  77.507 113.184  0.00  0.00     0.149 HD
ENDBRANCH   6  13
BRANCH   5  18
ATOM     18  N   LIG d   1       0.346  78.616 116.243  0.00  0.00     0.381 N 
ATOM     19  H   LIG d   1      -0.427  79.105 116.647  0.00  0.00    -0.090 HD
ATOM     20  H   LIG d   1       0.611  79.089 115.397  0.00  0.00    -0.090 HD
ATOM     21  H   LIG d   1       1.112  78.605 116.880  0.00  0.00    -0.090 HD
ENDBRANCH   5  18
BRANCH   3  22
ATOM     22  C   LIG d   1      -0.514  74.244 118.000  0.00  0.00     0.382 C 
ATOM     23  O   LIG d   1      -0.108  74.591 119.136  0.00  0.00    -0.241 OA
ATOM     24  O   LIG d   1      -0.596  73.033 117.722  0.00  0.00    -0.241 OA
ENDBRANCH   3  22
TORSDOF 7
ENDMDL
MODEL 2
REMARK VINA RESULT:      -5.2      2.219      5.050
REMARK  7 active torsions:
REMARK  status: ('A' for Active; 'I' for Inactive)
REMARK    1  A    between atoms: C_2  and  C_3 
REMARK    2  A    between atoms: C_3  and  O_6 
REMARK    3  A    between atoms: C_3  and  C_4 
REMARK    4  A    between atoms: C_7  and  O_6 
REMARK    5  A    between atoms: C_9  and  C_10 
REMARK    6  A    between atoms: N_15  and  C_14 
REMARK    7  A    between atoms: N_20  and  C_19 
REMARK       I    between atoms: C_22  and  N_20 
ROOT
ATOM      1  C   LIG d   1      -1.542  77.321 114.792  0.00  0.00     0.161 C 
ATOM      2  C   LIG d   1      -2.859  77.018 114.407  0.00  0.00     0.016 C 
ATOM      3  C   LIG d   1      -3.596  75.936 114.941  0.00  0.00     0.038 C 
ATOM      4  C   LIG d   1      -3.117  75.169 116.013  0.00  0.00     0.028 C 
ATOM      5  C   LIG d   1      -1.594  75.120 116.090  0.00  0.00    -0.047 C 
ATOM      6  C   LIG d   1      -1.043  76.563 116.040  0.00  0.00     0.091 C 
ENDROOT
BRANCH   1   7
ATOM      7  O   LIG d   1      -1.403  78.743 114.980  0.00  0.00    -0.368 OA
BRANCH   7   8
ATOM      8  C   LIG d   1      -2.570  79.544 114.671  0.00  0.00     0.119 C 
BRANCH   8   9
ATOM      9  C   LIG d   1      -2.142  80.608 113.642  0.00  0.00     0.028 C 
ATOM     10  C   LIG d   1      -0.613  80.721 113.517  0.00  0.00     0.006 C 
ENDBRANCH   8   9
BRANCH   8  11
ATOM     11  C   LIG d   1      -3.045  80.332 115.896  0.00  0.00     0.028 C 
ATOM     12  C   LIG d   1      -4.241  79.674 116.601  0.00  0.00     0.006 C 
ENDBRANCH   8  11
ENDBRANCH   7   8
ENDBRANCH   1   7
BRANCH   6  13
ATOM     13  N   LIG d   1       0.443  76.602 116.026  0.00  0.00    -0.311 N 
ATOM     14  C   LIG d   1       1.182  76.778 117.119  0.00  0.00     0.210 C 
ATOM     15  C   LIG d   1       2.695  76.806 116.879  0.00  0.00     0.109 C 
ATOM     16  O   LIG d   1       0.730  76.881 118.270  0.00  0.00    -0.276 OA
ATOM     17  H   LIG d   1       0.893  76.495 115.138  0.00  0.00     0.149 HD
ENDBRANCH   6  13
BRANCH   5  18
ATOM     18  N   LIG d   1      -1.233  74.405 117.328  0.00  0.00     0.381 N 
ATOM     19  H   LIG d   1      -1.720  74.806 118.105  0.00  0.00    -0.090 HD
ATOM     20  H   LIG d   1      -0.247  74.508 117.487  0.00  0.00    -0.090 HD
ATOM     21  H   LIG d   1      -1.465  73.439 117.245  0.00  0.00    -0.090 HD
ENDBRANCH   5  18
BRANCH   3  22
ATOM     22  C   LIG d   1      -4.812  75.587 114.373  0.00  0.00     0.382 C 
ATOM     23  O   LIG d   1      -4.989  75.720 113.138  0.00  0.00    -0.241 OA
ATOM     24  O   LIG d   1      -5.750  75.182 115.087  0.00  0.00    -0.241 OA
ENDBRANCH   3  22
TORSDOF 7
ENDMDL
MODEL 3
REMARK VINA RESULT:      -5.1     11.439     13.660
REMARK  7 active torsions:
REMARK  status: ('A' for Active; 'I' for Inactive)
REMARK    1  A    between atoms: C_2  and  C_3 
REMARK    2  A    between atoms: C_3  and  O_6 
REMARK    3  A    between atoms: C_3  and  C_4 
REMARK    4  A    between atoms: C_7  and  O_6 
REMARK    5  A    between atoms: C_9  and  C_10 
REMARK    6  A    between atoms: N_15  and  C_14 
REMARK    7  A    between atoms: N_20  and  C_19 
REMARK       I    between atoms: C_22  and  N_20 
ROOT
ATOM      1  C   LIG d   1       3.411  88.223 115.649  0.00  0.00     0.161 C 
ATOM      2  C   LIG d   1       2.625  87.617 114.655  0.00  0.00     0.016 C 
ATOM      3  C   LIG d   1       3.008  87.543 113.296  0.00  0.00     0.038 C 
ATOM      4  C   LIG d   1       4.283  87.938 112.863  0.00  0.00     0.028 C 
ATOM      5  C   LIG d   1       4.913  89.016 113.739  0.00  0.00    -0.047 C 
ATOM      6  C   LIG d   1       4.853  88.561 115.215  0.00  0.00     0.091 C 
ENDROOT
BRANCH   1   7
ATOM      7  O   LIG d   1       3.424  87.400 116.832  0.00  0.00    -0.368 OA
BRANCH   7   8
ATOM      8  C   LIG d   1       2.512  86.274 116.834  0.00  0.00     0.119 C 
BRANCH   8   9
ATOM      9  C   LIG d   1       1.620  86.404 118.084  0.00  0.00     0.028 C 
ATOM     10  C   LIG d   1       0.902  87.762 118.154  0.00  0.00     0.006 C 
ENDBRANCH   8   9
BRANCH   8  11
ATOM     11  C   LIG d   1       3.262  84.950 117.007  0.00  0.00     0.028 C 
ATOM     12  C   LIG d   1       4.057  84.548 115.755  0.00  0.00     0.006 C 
ENDBRANCH   8  11
ENDBRANCH   7   8
ENDBRANCH   1   7
BRANCH   6  13
ATOM     13  N   LIG d   1       5.373  89.595 116.148  0.00  0.00    -0.311 N 
ATOM     14  C   LIG d   1       6.350  89.367 117.024  0.00  0.00     0.210 C 
ATOM     15  C   LIG d   1       6.720  90.564 117.905  0.00  0.00     0.109 C 
ATOM     16  O   LIG d   1       6.968  88.298 117.132  0.00  0.00    -0.276 OA
ATOM     17  H   LIG d   1       4.949  90.501 116.107  0.00  0.00     0.149 HD
ENDBRANCH   6  13
BRANCH   5  18
ATOM     18  N   LIG d   1       6.289  89.234 113.256  0.00  0.00     0.381 N 
ATOM     19  H   LIG d   1       6.496  90.213 113.253  0.00  0.00    -0.090 HD
ATOM     20  H   LIG d   1       6.361  88.894 112.314  0.00  0.00    -0.090 HD
ATOM     21  H   LIG d   1       6.936  88.753 113.842  0.00  0.00    -0.090 HD
ENDBRANCH   5  18
BRANCH   3  22
ATOM     22  C   LIG d   1       2.097  87.104 112.348  0.00  0.00     0.382 C 
ATOM     23  O   LIG d   1       2.425  87.058 111.138  0.00  0.00    -0.241 OA
ATOM     24  O   LIG d   1       0.937  86.796 112.681  0.00  0.00    -0.241 OA
ENDBRANCH   3  22
TORSDOF 7
ENDMDL
MODEL 4
REMARK VINA RESULT:      -4.8     11.155     13.116
REMARK  7 active torsions:
REMARK  status: ('A' for Active; 'I' for Inactive)
REMARK    1  A    between atoms: C_2  and  C_3 
REMARK    2  A    between atoms: C_3  and  O_6 
REMARK    3  A    between atoms: C_3  and  C_4 
REMARK    4  A    between atoms: C_7  and  O_6 
REMARK    5  A    between atoms: C_9  and  C_10 
REMARK    6  A    between atoms: N_15  and  C_14 
REMARK    7  A    between atoms: N_20  and  C_19 
REMARK       I    between atoms: C_22  and  N_20 
ROOT
ATOM      1  C   LIG d   1       3.850  86.790 115.667  0.00  0.00     0.161 C 
ATOM      2  C   LIG d   1       4.599  87.276 116.751  0.00  0.00     0.016 C 
ATOM      3  C   LIG d   1       5.418  88.426 116.677  0.00  0.00     0.038 C 
ATOM      4  C   LIG d   1       5.426  89.260 115.549  0.00  0.00     0.028 C 
ATOM      5  C   LIG d   1       5.075  88.533 114.256  0.00  0.00    -0.047 C 
ATOM      6  C   LIG d   1       3.759  87.749 114.462  0.00  0.00     0.091 C 
ENDROOT
BRANCH   1   7
ATOM      7  O   LIG d   1       2.530  86.418 116.112  0.00  0.00    -0.368 OA
BRANCH   7   8
ATOM      8  C   LIG d   1       2.111  86.963 117.388  0.00  0.00     0.119 C 
BRANCH   8   9
ATOM      9  C   LIG d   1       1.368  85.846 118.146  0.00  0.00     0.028 C 
ATOM     10  C   LIG d   1       1.854  84.442 117.748  0.00  0.00     0.006 C 
ENDBRANCH   8   9
BRANCH   8  11
ATOM     11  C   LIG d   1       1.083  88.083 117.205  0.00  0.00     0.028 C 
ATOM     12  C   LIG d   1       1.724  89.479 117.164  0.00  0.00     0.006 C 
ENDBRANCH   8  11
ENDBRANCH   7   8
ENDBRANCH   1   7
BRANCH   6  13
ATOM     13  N   LIG d   1       3.388  86.941 113.271  0.00  0.00    -0.311 N 
ATOM     14  C   LIG d   1       2.609  87.396 112.290  0.00  0.00     0.210 C 
ATOM     15  C   LIG d   1       2.335  86.393 111.165  0.00  0.00     0.109 C 
ATOM     16  O   LIG d   1       2.147  88.545 112.229  0.00  0.00    -0.276 OA
ATOM     17  H   LIG d   1       3.745  86.007 113.224  0.00  0.00     0.149 HD
ENDBRANCH   6  13
BRANCH   5  18
ATOM     18  N   LIG d   1       4.985  89.544 113.186  0.00  0.00     0.381 N 
ATOM     19  H   LIG d   1       4.645  90.406 113.563  0.00  0.00    -0.090 HD
ATOM     20  H   LIG d   1       4.334  89.225 112.491  0.00  0.00    -0.090 HD
ATOM     21  H   LIG d   1       5.881  89.684 112.773  0.00  0.00    -0.090 HD
ENDBRANCH   5  18
BRANCH   3  22
ATOM     22  C   LIG d   1       6.273  88.730 117.726  0.00  0.00     0.382 C 
ATOM     23  O   LIG d   1       7.344  89.344 117.505  0.00  0.00    -0.241 OA
ATOM     24  O   LIG d   1       6.007  88.358 118.885  0.00  0.00    -0.241 OA
ENDBRANCH   3  22
TORSDOF 7
ENDMDL
MODEL 5
REMARK VINA RESULT:      -4.7      3.269      5.999
REMARK  7 active torsions:
REMARK  status: ('A' for Active; 'I' for Inactive)
REMARK    1  A    between atoms: C_2  and  C_3 
REMARK    2  A    between atoms: C_3  and  O_6 
REMARK    3  A    between atoms: C_3  and  C_4 
REMARK    4  A    between atoms: C_7  and  O_6 
REMARK    5  A    between atoms: C_9  and  C_10 
REMARK    6  A    between atoms: N_15  and  C_14 
REMARK    7  A    between atoms: N_20  and  C_19 
REMARK       I    between atoms: C_22  and  N_20 
ROOT
ATOM      1  C   LIG d   1      -2.082  79.542 114.662  0.00  0.00     0.161 C 
ATOM      2  C   LIG d   1      -1.538  80.732 114.150  0.00  0.00     0.016 C 
ATOM      3  C   LIG d   1      -1.237  80.926 112.783  0.00  0.00     0.038 C 
ATOM      4  C   LIG d   1      -1.603  79.990 111.803  0.00  0.00     0.028 C 
ATOM      5  C   LIG d   1      -1.694  78.563 112.333  0.00  0.00    -0.047 C 
ATOM      6  C   LIG d   1      -2.590  78.552 113.593  0.00  0.00     0.091 C 
ENDROOT
BRANCH   1   7
ATOM      7  O   LIG d   1      -3.131  79.848 115.601  0.00  0.00    -0.368 OA
BRANCH   7   8
ATOM      8  C   LIG d   1      -2.862  79.523 116.987  0.00  0.00     0.119 C 
BRANCH   8   9
ATOM      9  C   LIG d   1      -3.870  78.438 117.412  0.00  0.00     0.028 C 
ATOM     10  C   LIG d   1      -5.313  78.787 117.010  0.00  0.00     0.006 C 
ENDBRANCH   8   9
BRANCH   8  11
ATOM     11  C   LIG d   1      -3.140  80.717 117.904  0.00  0.00     0.028 C 
ATOM     12  C   LIG d   1      -1.872  81.252 118.587  0.00  0.00     0.006 C 
ENDBRANCH   8  11
ENDBRANCH   7   8
ENDBRANCH   1   7
BRANCH   6  13
ATOM     13  N   LIG d   1      -2.665  77.209 114.224  0.00  0.00    -0.311 N 
ATOM     14  C   LIG d   1      -3.802  76.531 114.373  0.00  0.00     0.210 C 
ATOM     15  C   LIG d   1      -3.658  75.173 115.068  0.00  0.00     0.109 C 
ATOM     16  O   LIG d   1      -4.910  76.911 113.968  0.00  0.00    -0.276 OA
ATOM     17  H   LIG d   1      -1.807  76.811 114.553  0.00  0.00     0.149 HD
ENDBRANCH   6  13
BRANCH   5  18
ATOM     18  N   LIG d   1      -2.217  77.716 111.245  0.00  0.00     0.381 N 
ATOM     19  H   LIG d   1      -3.020  77.211 111.564  0.00  0.00    -0.090 HD
ATOM     20  H   LIG d   1      -1.510  77.052 110.982  0.00  0.00    -0.090 HD
ATOM     21  H   LIG d   1      -2.460  78.280 110.461  0.00  0.00    -0.090 HD
ENDBRANCH   5  18
BRANCH   3  22
ATOM     22  C   LIG d   1      -0.527  82.049 112.387  0.00  0.00     0.382 C 
ATOM     23  O   LIG d   1      -0.920  82.727 111.407  0.00  0.00    -0.241 OA
ATOM     24  O   LIG d   1       0.526  82.369 112.971  0.00  0.00    -0.241 OA
ENDBRANCH   3  22
TORSDOF 7
ENDMDL
MODEL 6
REMARK VINA RESULT:      -4.7      2.995      5.465
REMARK  7 active torsions:
REMARK  status: ('A' for Active; 'I' for Inactive)
REMARK    1  A    between atoms: C_2  and  C_3 
REMARK    2  A    between atoms: C_3  and  O_6 
REMARK    3  A    between atoms: C_3  and  C_4 
REMARK    4  A    between atoms: C_7  and  O_6 
REMARK    5  A    between atoms: C_9  and  C_10 
REMARK    6  A    between atoms: N_15  and  C_14 
REMARK    7  A    between atoms: N_20  and  C_19 
REMARK       I    between atoms: C_22  and  N_20 
ROOT
ATOM      1  C   LIG d   1      -2.430  80.116 114.547  0.00  0.00     0.161 C 
ATOM      2  C   LIG d   1      -3.033  78.900 114.906  0.00  0.00     0.016 C 
ATOM      3  C   LIG d   1      -3.053  77.763 114.066  0.00  0.00     0.038 C 
ATOM      4  C   LIG d   1      -2.335  77.718 112.862  0.00  0.00     0.028 C 
ATOM      5  C   LIG d   1      -2.132  79.089 112.226  0.00  0.00    -0.047 C 
ATOM      6  C   LIG d   1      -1.545  80.051 113.284  0.00  0.00     0.091 C 
ENDROOT
BRANCH   1   7
ATOM      7  O   LIG d   1      -1.676  80.636 115.660  0.00  0.00    -0.368 OA
BRANCH   7   8
ATOM      8  C   LIG d   1      -0.330  80.122 115.814  0.00  0.00     0.119 C 
BRANCH   8   9
ATOM      9  C   LIG d   1      -0.335  79.168 117.024  0.00  0.00     0.028 C 
ATOM     10  C   LIG d   1       0.109  77.744 116.650  0.00  0.00     0.006 C 
ENDBRANCH   8   9
BRANCH   8  11
ATOM     11  C   LIG d   1       0.653  81.238 116.181  0.00  0.00     0.028 C 
ATOM     12  C   LIG d   1       1.817  81.358 115.184  0.00  0.00     0.006 C 
ENDBRANCH   8  11
ENDBRANCH   7   8
ENDBRANCH   1   7
BRANCH   6  13
ATOM     13  N   LIG d   1      -1.395  81.437 112.769  0.00  0.00    -0.311 N 
ATOM     14  C   LIG d   1      -0.301  81.872 112.145  0.00  0.00     0.210 C 
ATOM     15  C   LIG d   1      -0.346  83.341 111.712  0.00  0.00     0.109 C 
ATOM     16  O   LIG d   1       0.688  81.173 111.880  0.00  0.00    -0.276 OA
ATOM     17  H   LIG d   1      -2.163  82.063 112.913  0.00  0.00     0.149 HD
ENDBRANCH   6  13
BRANCH   5  18
ATOM     18  N   LIG d   1      -1.253  78.912 111.055  0.00  0.00     0.381 N 
ATOM     19  H   LIG d   1      -1.772  79.068 110.215  0.00  0.00    -0.090 HD
ATOM     20  H   LIG d   1      -0.913  77.966 111.044  0.00  0.00    -0.090 HD
ATOM     21  H   LIG d   1      -0.487  79.547 111.104  0.00  0.00    -0.090 HD
ENDBRANCH   5  18
BRANCH   3  22
ATOM     22  C   LIG d   1      -3.831  76.668 114.410  0.00  0.00     0.382 C 
ATOM     23  O   LIG d   1      -3.313  75.527 114.479  0.00  0.00    -0.241 OA
ATOM     24  O   LIG d   1      -5.054  76.799 114.608  0.00  0.00    -0.241 OA
ENDBRANCH   3  22
TORSDOF 7
ENDMDL
MODEL 7
REMARK VINA RESULT:      -4.6      2.658      5.573
REMARK  7 active torsions:
REMARK  status: ('A' for Active; 'I' for Inactive)
REMARK    1  A    between atoms: C_2  and  C_3 
REMARK    2  A    between atoms: C_3  and  O_6 
REMARK    3  A    between atoms: C_3  and  C_4 
REMARK    4  A    between atoms: C_7  and  O_6 
REMARK    5  A    between atoms: C_9  and  C_10 
REMARK    6  A    between atoms: N_15  and  C_14 
REMARK    7  A    between atoms: N_20  and  C_19 
REMARK       I    between atoms: C_22  and  N_20 
ROOT
ATOM      1  C   LIG d   1      -1.408  77.339 116.338  0.00  0.00     0.161 C 
ATOM      2  C   LIG d   1      -2.671  77.248 115.729  0.00  0.00     0.016 C 
ATOM      3  C   LIG d   1      -3.296  76.020 115.414  0.00  0.00     0.038 C 
ATOM      4  C   LIG d   1      -2.764  74.790 115.828  0.00  0.00     0.028 C 
ATOM      5  C   LIG d   1      -1.249  74.812 115.999  0.00  0.00    -0.047 C 
ATOM      6  C   LIG d   1      -0.863  76.009 116.898  0.00  0.00     0.091 C 
ENDROOT
BRANCH   1   7
ATOM      7  O   LIG d   1      -1.436  78.344 117.372  0.00  0.00    -0.368 OA
BRANCH   7   8
ATOM      8  C   LIG d   1      -0.629  79.523 117.136  0.00  0.00     0.119 C 
BRANCH   8   9
ATOM      9  C   LIG d   1      -1.340  80.713 117.809  0.00  0.00     0.028 C 
ATOM     10  C   LIG d   1      -2.872  80.601 117.732  0.00  0.00     0.006 C 
ENDBRANCH   8   9
BRANCH   8  11
ATOM     11  C   LIG d   1      -0.576  79.873 115.646  0.00  0.00     0.028 C 
ATOM     12  C   LIG d   1       0.564  80.845 115.303  0.00  0.00     0.006 C 
ENDBRANCH   8  11
ENDBRANCH   7   8
ENDBRANCH   1   7
BRANCH   6  13
ATOM     13  N   LIG d   1       0.608  76.154 117.048  0.00  0.00    -0.311 N 
ATOM     14  C   LIG d   1       1.303  75.596 118.039  0.00  0.00     0.210 C 
ATOM     15  C   LIG d   1       2.807  75.887 118.018  0.00  0.00     0.109 C 
ATOM     16  O   LIG d   1       0.821  74.862 118.914  0.00  0.00    -0.276 OA
ATOM     17  H   LIG d   1       1.084  76.707 116.363  0.00  0.00     0.149 HD
ENDBRANCH   6  13
BRANCH   5  18
ATOM     18  N   LIG d   1      -0.846  73.510 116.565  0.00  0.00     0.381 N 
ATOM     19  H   LIG d   1      -1.341  72.773 116.105  0.00  0.00    -0.090 HD
ATOM     20  H   LIG d   1      -1.086  73.491 117.540  0.00  0.00    -0.090 HD
ATOM     21  H   LIG d   1       0.136  73.381 116.455  0.00  0.00    -0.090 HD
ENDBRANCH   5  18
BRANCH   3  22
ATOM     22  C   LIG d   1      -4.448  76.013 114.642  0.00  0.00     0.382 C 
ATOM     23  O   LIG d   1      -5.573  75.972 115.196  0.00  0.00    -0.241 OA
ATOM     24  O   LIG d   1      -4.375  76.003 113.399  0.00  0.00    -0.241 OA
ENDBRANCH   3  22
TORSDOF 7
ENDMDL
MODEL 8
REMARK VINA RESULT:      -4.6     10.419     12.854
REMARK  7 active torsions:
REMARK  status: ('A' for Active; 'I' for Inactive)
REMARK    1  A    between atoms: C_2  and  C_3 
REMARK    2  A    between atoms: C_3  and  O_6 
REMARK    3  A    between atoms: C_3  and  C_4 
REMARK    4  A    between atoms: C_7  and  O_6 
REMARK    5  A    between atoms: C_9  and  C_10 
REMARK    6  A    between atoms: N_15  and  C_14 
REMARK    7  A    between atoms: N_20  and  C_19 
REMARK       I    between atoms: C_22  and  N_20 
ROOT
ATOM      1  C   LIG d   1       3.024  87.588 116.044  0.00  0.00     0.161 C 
ATOM      2  C   LIG d   1       3.218  86.206 115.883  0.00  0.00     0.016 C 
ATOM      3  C   LIG d   1       2.703  85.239 116.777  0.00  0.00     0.038 C 
ATOM      4  C   LIG d   1       1.825  85.583 117.816  0.00  0.00     0.028 C 
ATOM      5  C   LIG d   1       2.010  87.011 118.317  0.00  0.00    -0.047 C 
ATOM      6  C   LIG d   1       1.977  87.975 117.109  0.00  0.00     0.091 C 
ENDROOT
BRANCH   1   7
ATOM      7  O   LIG d   1       2.692  88.186 114.775  0.00  0.00    -0.368 OA
BRANCH   7   8
ATOM      8  C   LIG d   1       3.611  87.921 113.687  0.00  0.00     0.119 C 
BRANCH   8   9
ATOM      9  C   LIG d   1       4.336  89.241 113.362  0.00  0.00     0.028 C 
ATOM     10  C   LIG d   1       5.839  89.180 113.682  0.00  0.00     0.006 C 
ENDBRANCH   8   9
BRANCH   8  11
ATOM     11  C   LIG d   1       2.862  87.544 112.405  0.00  0.00     0.028 C 
ATOM     12  C   LIG d   1       3.553  86.416 111.621  0.00  0.00     0.006 C 
ENDBRANCH   8  11
ENDBRANCH   7   8
ENDBRANCH   1   7
BRANCH   6  13
ATOM     13  N   LIG d   1       2.234  89.385 117.502  0.00  0.00    -0.311 N 
ATOM     14  C   LIG d   1       1.325  90.353 117.397  0.00  0.00     0.210 C 
ATOM     15  C   LIG d   1       1.803  91.739 117.839  0.00  0.00     0.109 C 
ATOM     16  O   LIG d   1       0.158  90.188 117.011  0.00  0.00    -0.276 OA
ATOM     17  H   LIG d   1       3.146  89.601 117.855  0.00  0.00     0.149 HD
ENDBRANCH   6  13
BRANCH   5  18
ATOM     18  N   LIG d   1       0.944  87.280 119.301  0.00  0.00     0.381 N 
ATOM     19  H   LIG d   1       0.668  88.240 119.248  0.00  0.00    -0.090 HD
ATOM     20  H   LIG d   1       1.301  87.104 120.223  0.00  0.00    -0.090 HD
ATOM     21  H   LIG d   1       0.159  86.691 119.123  0.00  0.00    -0.090 HD
ENDBRANCH   5  18
BRANCH   3  22
ATOM     22  C   LIG d   1       3.097  83.915 116.659  0.00  0.00     0.382 C 
ATOM     23  O   LIG d   1       4.256  83.574 116.997  0.00  0.00    -0.241 OA
ATOM     24  O   LIG d   1       2.324  83.066 116.178  0.00  0.00    -0.241 OA
ENDBRANCH   3  22
TORSDOF 7
ENDMDL
MODEL 9
REMARK VINA RESULT:      -4.5     11.379     13.734
REMARK  7 active torsions:
REMARK  status: ('A' for Active; 'I' for Inactive)
REMARK    1  A    between atoms: C_2  and  C_3 
REMARK    2  A    between atoms: C_3  and  O_6 
REMARK    3  A    between atoms: C_3  and  C_4 
REMARK    4  A    between atoms: C_7  and  O_6 
REMARK    5  A    between atoms: C_9  and  C_10 
REMARK    6  A    between atoms: N_15  and  C_14 
REMARK    7  A    between atoms: N_20  and  C_19 
REMARK       I    between atoms: C_22  and  N_20 
ROOT
ATOM      1  C   LIG d   1      10.375  80.045 115.389  0.00  0.00     0.161 C 
ATOM      2  C   LIG d   1       9.060  79.620 115.642  0.00  0.00     0.016 C 
ATOM      3  C   LIG d   1       8.614  78.296 115.421  0.00  0.00     0.038 C 
ATOM      4  C   LIG d   1       9.499  77.265 115.072  0.00  0.00     0.028 C 
ATOM      5  C   LIG d   1      10.732  77.753 114.319  0.00  0.00    -0.047 C 
ATOM      6  C   LIG d   1      11.381  78.908 115.114  0.00  0.00     0.091 C 
ENDROOT
BRANCH   1   7
ATOM      7  O   LIG d   1      10.838  80.872 116.475  0.00  0.00    -0.368 OA
BRANCH   7   8
ATOM      8  C   LIG d   1       9.817  81.382 117.368  0.00  0.00     0.119 C 
BRANCH   8   9
ATOM      9  C   LIG d   1       9.901  82.921 117.335  0.00  0.00     0.028 C 
ATOM     10  C   LIG d   1       9.013  83.534 116.239  0.00  0.00     0.006 C 
ENDBRANCH   8   9
BRANCH   8  11
ATOM     11  C   LIG d   1      10.102  80.991 118.821  0.00  0.00     0.028 C 
ATOM     12  C   LIG d   1      11.486  80.349 119.005  0.00  0.00     0.006 C 
ENDBRANCH   8  11
ENDBRANCH   7   8
ENDBRANCH   1   7
BRANCH   6  13
ATOM     13  N   LIG d   1      12.546  79.500 114.406  0.00  0.00    -0.311 N 
ATOM     14  C   LIG d   1      13.800  79.089 114.586  0.00  0.00     0.210 C 
ATOM     15  C   LIG d   1      14.852  79.848 113.772  0.00  0.00     0.109 C 
ATOM     16  O   LIG d   1      14.137  78.148 115.320  0.00  0.00    -0.276 OA
ATOM     17  H   LIG d   1      12.359  80.249 113.768  0.00  0.00     0.149 HD
ENDBRANCH   6  13
BRANCH   5  18
ATOM     18  N   LIG d   1      11.631  76.597 114.140  0.00  0.00     0.381 N 
ATOM     19  H   LIG d   1      11.114  75.747 114.245  0.00  0.00    -0.090 HD
ATOM     20  H   LIG d   1      12.341  76.624 114.850  0.00  0.00    -0.090 HD
ATOM     21  H   LIG d   1      12.052  76.629 113.238  0.00  0.00    -0.090 HD
ENDBRANCH   5  18
BRANCH   3  22
ATOM     22  C   LIG d   1       7.262  78.003 115.510  0.00  0.00     0.382 C 
ATOM     23  O   LIG d   1       6.499  78.264 114.549  0.00  0.00    -0.241 OA
ATOM     24  O   LIG d   1       6.788  77.520 116.556  0.00  0.00    -0.241 OA
ENDBRANCH   3  22
TORSDOF 7
ENDMDL
