MODEL 1
REMARK VINA RESULT:      -6.2      0.000      0.000
REMARK  7 active torsions:
REMARK  status: ('A' for Active; 'I' for Inactive)
REMARK    1  A    between atoms: C_2  and  C_3 
REMARK    2  A    between atoms: C_3  and  O_6 
REMARK    3  A    between atoms: C_3  and  C_4 
REMARK    4  A    between atoms: C_7  and  O_6 
REMARK    5  A    between atoms: C_9  and  C_10 
REMARK    6  A    between atoms: N_15  and  C_14 
REMARK    7  A    between atoms: N_20  and  C_19 
REMARK       I    between atoms: C_22  and  N_20 
ROOT
ATOM      1  C   LIG d   1      -3.109  77.217 116.182  0.00  0.00     0.161 C 
ATOM      2  C   LIG d   1      -3.331  78.138 115.145  0.00  0.00     0.016 C 
ATOM      3  C   LIG d   1      -2.418  78.354 114.087  0.00  0.00     0.038 C 
ATOM      4  C   LIG d   1      -1.282  77.549 113.912  0.00  0.00     0.028 C 
ATOM      5  C   LIG d   1      -0.760  76.947 115.212  0.00  0.00    -0.047 C 
ATOM      6  C   LIG d   1      -1.928  76.251 115.947  0.00  0.00     0.091 C 
ENDROOT
BRANCH   1   7
ATOM      7  O   LIG d   1      -4.317  76.476 116.445  0.00  0.00    -0.368 OA
BRANCH   7   8
ATOM      8  C   LIG d   1      -5.205  76.283 115.316  0.00  0.00     0.119 C 
BRANCH   8   9
ATOM      9  C   LIG d   1      -6.650  76.361 115.845  0.00  0.00     0.028 C 
ATOM     10  C   LIG d   1      -6.744  77.103 117.189  0.00  0.00     0.006 C 
ENDBRANCH   8   9
BRANCH   8  11
ATOM     11  C   LIG d   1      -5.063  74.875 114.730  0.00  0.00     0.028 C 
ATOM     12  C   LIG d   1      -5.973  73.848 115.421  0.00  0.00     0.006 C 
ENDBRANCH   8  11
ENDBRANCH   7   8
ENDBRANCH   1   7
BRANCH   6  13
ATOM     13  N   LIG d   1      -1.522  75.707 117.270  0.00  0.00    -0.311 N 
ATOM     14  C   LIG d   1      -1.066  74.468 117.444  0.00  0.00     0.210 C 
ATOM     15  C   LIG d   1      -0.723  74.103 118.892  0.00  0.00     0.109 C 
ATOM     16  O   LIG d   1      -0.883  73.647 116.533  0.00  0.00    -0.276 OA
ATOM     17  H   LIG d   1      -1.609  76.317 118.059  0.00  0.00     0.149 HD
ENDBRANCH   6  13
BRANCH   5  18
ATOM     18  N   LIG d   1       0.337  76.024 114.866  0.00  0.00     0.381 N 
ATOM     19  H   LIG d   1       1.125  76.197 115.458  0.00  0.00    -0.090 HD
ATOM     20  H   LIG d   1       0.615  76.190 113.915  0.00  0.00    -0.090 HD
ATOM     21  H   LIG d   1       0.035  75.080 114.972  0.00  0.00    -0.090 HD
ENDBRANCH   5  18
BRANCH   3  22
ATOM     22  C   LIG d   1      -2.617  79.411 113.213  0.00  0.00     0.382 C 
ATOM     23  O   LIG d   1      -2.280  79.302 112.009  0.00  0.00    -0.241 OA
ATOM     24  O   LIG d   1      -3.088  80.489 113.622  0.00  0.00    -0.241 OA
ENDBRANCH   3  22
TORSDOF 7
ENDMDL
MODEL 2
REMARK VINA RESULT:      -5.2      4.128      6.461
REMARK  7 active torsions:
REMARK  status: ('A' for Active; 'I' for Inactive)
REMARK    1  A    between atoms: C_2  and  C_3 
REMARK    2  A    between atoms: C_3  and  O_6 
REMARK    3  A    between atoms: C_3  and  C_4 
REMARK    4  A    between atoms: C_7  and  O_6 
REMARK    5  A    between atoms: C_9  and  C_10 
REMARK    6  A    between atoms: N_15  and  C_14 
REMARK    7  A    between atoms: N_20  and  C_19 
REMARK       I    between atoms: C_22  and  N_20 
ROOT
ATOM      1  C   LIG d   1      -7.099  76.856 116.795  0.00  0.00     0.161 C 
ATOM      2  C   LIG d   1      -6.783  78.182 117.134  0.00  0.00     0.016 C 
ATOM      3  C   LIG d   1      -7.481  78.922 118.115  0.00  0.00     0.038 C 
ATOM      4  C   LIG d   1      -8.453  78.332 118.937  0.00  0.00     0.028 C 
ATOM      5  C   LIG d   1      -9.153  77.142 118.289  0.00  0.00    -0.047 C 
ATOM      6  C   LIG d   1      -8.084  76.160 117.758  0.00  0.00     0.091 C 
ENDROOT
BRANCH   1   7
ATOM      7  O   LIG d   1      -5.890  76.082 116.669  0.00  0.00    -0.368 OA
BRANCH   7   8
ATOM      8  C   LIG d   1      -5.027  76.425 115.557  0.00  0.00     0.119 C 
BRANCH   8   9
ATOM      9  C   LIG d   1      -5.334  75.440 114.412  0.00  0.00     0.028 C 
ATOM     10  C   LIG d   1      -5.441  73.986 114.901  0.00  0.00     0.006 C 
ENDBRANCH   8   9
BRANCH   8  11
ATOM     11  C   LIG d   1      -3.553  76.196 115.904  0.00  0.00     0.028 C 
ATOM     12  C   LIG d   1      -3.047  77.139 117.007  0.00  0.00     0.006 C 
ENDBRANCH   8  11
ENDBRANCH   7   8
ENDBRANCH   1   7
BRANCH   6  13
ATOM     13  N   LIG d   1      -8.682  75.007 117.035  0.00  0.00    -0.311 N 
ATOM     14  C   LIG d   1      -8.321  73.743 117.244  0.00  0.00     0.210 C 
ATOM     15  C   LIG d   1      -9.049  72.710 116.378  0.00  0.00     0.109 C 
ATOM     16  O   LIG d   1      -7.490  73.375 118.088  0.00  0.00    -0.276 OA
ATOM     17  H   LIG d   1      -9.386  75.213 116.353  0.00  0.00     0.149 HD
ENDBRANCH   6  13
BRANCH   5  18
ATOM     18  N   LIG d   1     -10.039  76.540 119.303  0.00  0.00     0.381 N 
ATOM     19  H   LIG d   1      -9.710  76.769 120.219  0.00  0.00    -0.090 HD
ATOM     20  H   LIG d   1     -10.017  75.540 119.201  0.00  0.00    -0.090 HD
ATOM     21  H   LIG d   1     -10.970  76.873 119.183  0.00  0.00    -0.090 HD
ENDBRANCH   5  18
BRANCH   3  22
ATOM     22  C   LIG d   1      -7.237  80.280 118.255  0.00  0.00     0.382 C 
ATOM     23  O   LIG d   1      -8.070  81.114 117.827  0.00  0.00    -0.241 OA
ATOM     24  O   LIG d   1      -6.173  80.681 118.765  0.00  0.00    -0.241 OA
ENDBRANCH   3  22
TORSDOF 7
ENDMDL
MODEL 3
REMARK VINA RESULT:      -5.1      8.950     11.613
REMARK  7 active torsions:
REMARK  status: ('A' for Active; 'I' for Inactive)
REMARK    1  A    between atoms: C_2  and  C_3 
REMARK    2  A    between atoms: C_3  and  O_6 
REMARK    3  A    between atoms: C_3  and  C_4 
REMARK    4  A    between atoms: C_7  and  O_6 
REMARK    5  A    between atoms: C_9  and  C_10 
REMARK    6  A    between atoms: N_15  and  C_14 
REMARK    7  A    between atoms: N_20  and  C_19 
REMARK       I    between atoms: C_22  and  N_20 
ROOT
ATOM      1  C   LIG d   1       3.539  85.054 112.634  0.00  0.00     0.161 C 
ATOM      2  C   LIG d   1       4.342  86.199 112.763  0.00  0.00     0.016 C 
ATOM      3  C   LIG d   1       3.869  87.511 112.530  0.00  0.00     0.038 C 
ATOM      4  C   LIG d   1       2.513  87.780 112.297  0.00  0.00     0.028 C 
ATOM      5  C   LIG d   1       1.765  86.614 111.660  0.00  0.00    -0.047 C 
ATOM      6  C   LIG d   1       2.029  85.336 112.489  0.00  0.00     0.091 C 
ENDROOT
BRANCH   1   7
ATOM      7  O   LIG d   1       3.778  84.162 113.740  0.00  0.00    -0.368 OA
BRANCH   7   8
ATOM      8  C   LIG d   1       3.070  84.465 114.968  0.00  0.00     0.119 C 
BRANCH   8   9
ATOM      9  C   LIG d   1       4.124  84.836 116.030  0.00  0.00     0.028 C 
ATOM     10  C   LIG d   1       4.083  86.328 116.401  0.00  0.00     0.006 C 
ENDBRANCH   8   9
BRANCH   8  11
ATOM     11  C   LIG d   1       2.356  83.228 115.520  0.00  0.00     0.028 C 
ATOM     12  C   LIG d   1       1.908  83.401 116.980  0.00  0.00     0.006 C 
ENDBRANCH   8  11
ENDBRANCH   7   8
ENDBRANCH   1   7
BRANCH   6  13
ATOM     13  N   LIG d   1       1.402  84.130 111.887  0.00  0.00    -0.311 N 
ATOM     14  C   LIG d   1       0.192  83.687 112.225  0.00  0.00     0.210 C 
ATOM     15  C   LIG d   1      -0.257  82.416 111.497  0.00  0.00     0.109 C 
ATOM     16  O   LIG d   1      -0.565  84.244 113.034  0.00  0.00    -0.276 OA
ATOM     17  H   LIG d   1       1.934  83.635 111.198  0.00  0.00     0.149 HD
ENDBRANCH   6  13
BRANCH   5  18
ATOM     18  N   LIG d   1       0.337  86.979 111.600  0.00  0.00     0.381 N 
ATOM     19  H   LIG d   1      -0.044  86.715 110.714  0.00  0.00    -0.090 HD
ATOM     20  H   LIG d   1       0.252  87.976 111.695  0.00  0.00    -0.090 HD
ATOM     21  H   LIG d   1      -0.163  86.525 112.333  0.00  0.00    -0.090 HD
ENDBRANCH   5  18
BRANCH   3  22
ATOM     22  C   LIG d   1       4.767  88.568 112.490  0.00  0.00     0.382 C 
ATOM     23  O   LIG d   1       4.355  89.745 112.620  0.00  0.00    -0.241 OA
ATOM     24  O   LIG d   1       5.977  88.361 112.280  0.00  0.00    -0.241 OA
ENDBRANCH   3  22
TORSDOF 7
ENDMDL
MODEL 4
REMARK VINA RESULT:      -4.9      3.653      6.664
REMARK  7 active torsions:
REMARK  status: ('A' for Active; 'I' for Inactive)
REMARK    1  A    between atoms: C_2  and  C_3 
REMARK    2  A    between atoms: C_3  and  O_6 
REMARK    3  A    between atoms: C_3  and  C_4 
REMARK    4  A    between atoms: C_7  and  O_6 
REMARK    5  A    between atoms: C_9  and  C_10 
REMARK    6  A    between atoms: N_15  and  C_14 
REMARK    7  A    between atoms: N_20  and  C_19 
REMARK       I    between atoms: C_22  and  N_20 
ROOT
ATOM      1  C   LIG d   1      -6.793  77.015 116.956  0.00  0.00     0.161 C 
ATOM      2  C   LIG d   1      -7.413  78.138 117.529  0.00  0.00     0.016 C 
ATOM      3  C   LIG d   1      -8.683  78.094 118.149  0.00  0.00     0.038 C 
ATOM      4  C   LIG d   1      -9.356  76.884 118.374  0.00  0.00     0.028 C 
ATOM      5  C   LIG d   1      -9.001  75.796 117.366  0.00  0.00    -0.047 C 
ATOM      6  C   LIG d   1      -7.462  75.666 117.290  0.00  0.00     0.091 C 
ENDROOT
BRANCH   1   7
ATOM      7  O   LIG d   1      -5.399  76.988 117.322  0.00  0.00    -0.368 OA
BRANCH   7   8
ATOM      8  C   LIG d   1      -4.455  77.277 116.262  0.00  0.00     0.119 C 
BRANCH   8   9
ATOM      9  C   LIG d   1      -3.219  76.386 116.486  0.00  0.00     0.028 C 
ATOM     10  C   LIG d   1      -3.154  75.212 115.494  0.00  0.00     0.006 C 
ENDBRANCH   8   9
BRANCH   8  11
ATOM     11  C   LIG d   1      -3.940  78.716 116.353  0.00  0.00     0.028 C 
ATOM     12  C   LIG d   1      -2.860  79.030 115.305  0.00  0.00     0.006 C 
ENDBRANCH   8  11
ENDBRANCH   7   8
ENDBRANCH   1   7
BRANCH   6  13
ATOM     13  N   LIG d   1      -7.027  74.682 116.265  0.00  0.00    -0.311 N 
ATOM     14  C   LIG d   1      -6.918  73.376 116.502  0.00  0.00     0.210 C 
ATOM     15  C   LIG d   1      -6.433  72.541 115.312  0.00  0.00     0.109 C 
ATOM     16  O   LIG d   1      -7.209  72.825 117.574  0.00  0.00    -0.276 OA
ATOM     17  H   LIG d   1      -6.801  75.039 115.357  0.00  0.00     0.149 HD
ENDBRANCH   6  13
BRANCH   5  18
ATOM     18  N   LIG d   1      -9.666  74.552 117.798  0.00  0.00     0.381 N 
ATOM     19  H   LIG d   1      -9.789  73.944 117.014  0.00  0.00    -0.090 HD
ATOM     20  H   LIG d   1     -10.572  74.780 118.167  0.00  0.00    -0.090 HD
ATOM     21  H   LIG d   1      -9.119  74.099 118.497  0.00  0.00    -0.090 HD
ENDBRANCH   5  18
BRANCH   3  22
ATOM     22  C   LIG d   1      -9.310  79.274 118.516  0.00  0.00     0.382 C 
ATOM     23  O   LIG d   1     -10.463  79.244 119.011  0.00  0.00    -0.241 OA
ATOM     24  O   LIG d   1      -8.756  80.372 118.318  0.00  0.00    -0.241 OA
ENDBRANCH   3  22
TORSDOF 7
ENDMDL
MODEL 5
REMARK VINA RESULT:      -4.8     21.818     24.349
REMARK  7 active torsions:
REMARK  status: ('A' for Active; 'I' for Inactive)
REMARK    1  A    between atoms: C_2  and  C_3 
REMARK    2  A    between atoms: C_3  and  O_6 
REMARK    3  A    between atoms: C_3  and  C_4 
REMARK    4  A    between atoms: C_7  and  O_6 
REMARK    5  A    between atoms: C_9  and  C_10 
REMARK    6  A    between atoms: N_15  and  C_14 
REMARK    7  A    between atoms: N_20  and  C_19 
REMARK       I    between atoms: C_22  and  N_20 
ROOT
ATOM      1  C   LIG d   1     -25.724  84.977 113.186  0.00  0.00     0.161 C 
ATOM      2  C   LIG d   1     -24.694  85.913 113.377  0.00  0.00     0.016 C 
ATOM      3  C   LIG d   1     -23.324  85.565 113.423  0.00  0.00     0.038 C 
ATOM      4  C   LIG d   1     -22.879  84.268 113.129  0.00  0.00     0.028 C 
ATOM      5  C   LIG d   1     -23.914  83.189 113.429  0.00  0.00    -0.047 C 
ATOM      6  C   LIG d   1     -25.250  83.574 112.753  0.00  0.00     0.091 C 
ENDROOT
BRANCH   1   7
ATOM      7  O   LIG d   1     -26.686  85.493 112.246  0.00  0.00    -0.368 OA
BRANCH   7   8
ATOM      8  C   LIG d   1     -27.095  86.869 112.443  0.00  0.00     0.119 C 
BRANCH   8   9
ATOM      9  C   LIG d   1     -28.534  86.850 112.994  0.00  0.00     0.028 C 
ATOM     10  C   LIG d   1     -28.584  87.096 114.511  0.00  0.00     0.006 C 
ENDBRANCH   8   9
BRANCH   8  11
ATOM     11  C   LIG d   1     -27.181  87.621 111.111  0.00  0.00     0.028 C 
ATOM     12  C   LIG d   1     -26.720  89.083 111.222  0.00  0.00     0.006 C 
ENDBRANCH   8  11
ENDBRANCH   7   8
ENDBRANCH   1   7
BRANCH   6  13
ATOM     13  N   LIG d   1     -26.340  82.614 113.066  0.00  0.00    -0.311 N 
ATOM     14  C   LIG d   1     -26.646  81.574 112.292  0.00  0.00     0.210 C 
ATOM     15  C   LIG d   1     -27.818  80.722 112.789  0.00  0.00     0.109 C 
ATOM     16  O   LIG d   1     -26.038  81.258 111.259  0.00  0.00    -0.276 OA
ATOM     17  H   LIG d   1     -26.865  82.777 113.903  0.00  0.00     0.149 HD
ENDBRANCH   6  13
BRANCH   5  18
ATOM     18  N   LIG d   1     -23.371  81.905 112.949  0.00  0.00     0.381 N 
ATOM     19  H   LIG d   1     -22.737  82.067 112.191  0.00  0.00    -0.090 HD
ATOM     20  H   LIG d   1     -24.129  81.338 112.610  0.00  0.00    -0.090 HD
ATOM     21  H   LIG d   1     -22.901  81.435 113.690  0.00  0.00    -0.090 HD
ENDBRANCH   5  18
BRANCH   3  22
ATOM     22  C   LIG d   1     -22.387  86.513 113.805  0.00  0.00     0.382 C 
ATOM     23  O   LIG d   1     -22.667  87.345 114.702  0.00  0.00    -0.241 OA
ATOM     24  O   LIG d   1     -21.281  86.574 113.235  0.00  0.00    -0.241 OA
ENDBRANCH   3  22
TORSDOF 7
ENDMDL
MODEL 6
REMARK VINA RESULT:      -4.7      9.742     12.004
REMARK  7 active torsions:
REMARK  status: ('A' for Active; 'I' for Inactive)
REMARK    1  A    between atoms: C_2  and  C_3 
REMARK    2  A    between atoms: C_3  and  O_6 
REMARK    3  A    between atoms: C_3  and  C_4 
REMARK    4  A    between atoms: C_7  and  O_6 
REMARK    5  A    between atoms: C_9  and  C_10 
REMARK    6  A    between atoms: N_15  and  C_14 
REMARK    7  A    between atoms: N_20  and  C_19 
REMARK       I    between atoms: C_22  and  N_20 
ROOT
ATOM      1  C   LIG d   1       2.491  86.790 114.337  0.00  0.00     0.161 C 
ATOM      2  C   LIG d   1       3.004  87.822 113.533  0.00  0.00     0.016 C 
ATOM      3  C   LIG d   1       4.288  88.384 113.713  0.00  0.00     0.038 C 
ATOM      4  C   LIG d   1       5.213  87.845 114.620  0.00  0.00     0.028 C 
ATOM      5  C   LIG d   1       4.560  87.130 115.798  0.00  0.00    -0.047 C 
ATOM      6  C   LIG d   1       3.528  86.114 115.259  0.00  0.00     0.091 C 
ENDROOT
BRANCH   1   7
ATOM      7  O   LIG d   1       1.838  85.806 113.511  0.00  0.00    -0.368 OA
BRANCH   7   8
ATOM      8  C   LIG d   1       1.409  86.255 112.202  0.00  0.00     0.119 C 
BRANCH   8   9
ATOM      9  C   LIG d   1      -0.131  86.207 112.178  0.00  0.00     0.028 C 
ATOM     10  C   LIG d   1      -0.728  87.085 111.065  0.00  0.00     0.006 C 
ENDBRANCH   8   9
BRANCH   8  11
ATOM     11  C   LIG d   1       1.863  85.288 111.104  0.00  0.00     0.028 C 
ATOM     12  C   LIG d   1       3.389  85.116 111.056  0.00  0.00     0.006 C 
ENDBRANCH   8  11
ENDBRANCH   7   8
ENDBRANCH   1   7
BRANCH   6  13
ATOM     13  N   LIG d   1       2.782  85.431 116.348  0.00  0.00    -0.311 N 
ATOM     14  C   LIG d   1       2.737  84.107 116.488  0.00  0.00     0.210 C 
ATOM     15  C   LIG d   1       1.895  83.609 117.667  0.00  0.00     0.109 C 
ATOM     16  O   LIG d   1       3.341  83.299 115.766  0.00  0.00    -0.276 OA
ATOM     17  H   LIG d   1       2.289  86.012 116.998  0.00  0.00     0.149 HD
ENDBRANCH   6  13
BRANCH   5  18
ATOM     18  N   LIG d   1       5.634  86.500 116.588  0.00  0.00     0.381 N 
ATOM     19  H   LIG d   1       6.175  85.895 116.003  0.00  0.00    -0.090 HD
ATOM     20  H   LIG d   1       5.219  85.945 117.316  0.00  0.00    -0.090 HD
ATOM     21  H   LIG d   1       6.220  87.200 116.987  0.00  0.00    -0.090 HD
ENDBRANCH   5  18
BRANCH   3  22
ATOM     22  C   LIG d   1       4.645  89.524 113.009  0.00  0.00     0.382 C 
ATOM     23  O   LIG d   1       5.801  89.631 112.533  0.00  0.00    -0.241 OA
ATOM     24  O   LIG d   1       3.839  90.465 112.881  0.00  0.00    -0.241 OA
ENDBRANCH   3  22
TORSDOF 7
ENDMDL
MODEL 7
REMARK VINA RESULT:      -4.6     13.315     15.911
REMARK  7 active torsions:
REMARK  status: ('A' for Active; 'I' for Inactive)
REMARK    1  A    between atoms: C_2  and  C_3 
REMARK    2  A    between atoms: C_3  and  O_6 
REMARK    3  A    between atoms: C_3  and  C_4 
REMARK    4  A    between atoms: C_7  and  O_6 
REMARK    5  A    between atoms: C_9  and  C_10 
REMARK    6  A    between atoms: N_15  and  C_14 
REMARK    7  A    between atoms: N_20  and  C_19 
REMARK       I    between atoms: C_22  and  N_20 
ROOT
ATOM      1  C   LIG d   1      11.890  77.611 115.042  0.00  0.00     0.161 C 
ATOM      2  C   LIG d   1      12.492  76.472 115.601  0.00  0.00     0.016 C 
ATOM      3  C   LIG d   1      13.736  75.958 115.168  0.00  0.00     0.038 C 
ATOM      4  C   LIG d   1      14.539  76.642 114.243  0.00  0.00     0.028 C 
ATOM      5  C   LIG d   1      13.745  77.525 113.287  0.00  0.00    -0.047 C 
ATOM      6  C   LIG d   1      12.803  78.434 114.109  0.00  0.00     0.091 C 
ENDROOT
BRANCH   1   7
ATOM      7  O   LIG d   1      11.361  78.448 116.090  0.00  0.00    -0.368 OA
BRANCH   7   8
ATOM      8  C   LIG d   1       9.948  78.296 116.375  0.00  0.00     0.119 C 
BRANCH   8   9
ATOM      9  C   LIG d   1       9.268  77.796 115.086  0.00  0.00     0.028 C 
ATOM     10  C   LIG d   1       7.807  77.375 115.319  0.00  0.00     0.006 C 
ENDBRANCH   8   9
BRANCH   8  11
ATOM     11  C   LIG d   1       9.294  79.647 116.681  0.00  0.00     0.028 C 
ATOM     12  C   LIG d   1       9.448  80.658 115.534  0.00  0.00     0.006 C 
ENDBRANCH   8  11
ENDBRANCH   7   8
ENDBRANCH   1   7
BRANCH   6  13
ATOM     13  N   LIG d   1      11.928  79.271 113.247  0.00  0.00    -0.311 N 
ATOM     14  C   LIG d   1      12.221  80.523 112.902  0.00  0.00     0.210 C 
ATOM     15  C   LIG d   1      11.174  81.214 112.023  0.00  0.00     0.109 C 
ATOM     16  O   LIG d   1      13.265  81.117 113.214  0.00  0.00    -0.276 OA
ATOM     17  H   LIG d   1      11.076  78.857 112.923  0.00  0.00     0.149 HD
ENDBRANCH   6  13
BRANCH   5  18
ATOM     18  N   LIG d   1      14.713  78.282 112.471  0.00  0.00     0.381 N 
ATOM     19  H   LIG d   1      14.289  79.125 112.138  0.00  0.00    -0.090 HD
ATOM     20  H   LIG d   1      14.974  77.725 111.677  0.00  0.00    -0.090 HD
ATOM     21  H   LIG d   1      15.520  78.499 113.014  0.00  0.00    -0.090 HD
ENDBRANCH   5  18
BRANCH   3  22
ATOM     22  C   LIG d   1      14.170  74.726 115.633  0.00  0.00     0.382 C 
ATOM     23  O   LIG d   1      13.736  74.279 116.722  0.00  0.00    -0.241 OA
ATOM     24  O   LIG d   1      15.023  74.076 115.000  0.00  0.00    -0.241 OA
ENDBRANCH   3  22
TORSDOF 7
ENDMDL
MODEL 8
REMARK VINA RESULT:      -4.6      4.321      6.895
REMARK  7 active torsions:
REMARK  status: ('A' for Active; 'I' for Inactive)
REMARK    1  A    between atoms: C_2  and  C_3 
REMARK    2  A    between atoms: C_3  and  O_6 
REMARK    3  A    between atoms: C_3  and  C_4 
REMARK    4  A    between atoms: C_7  and  O_6 
REMARK    5  A    between atoms: C_9  and  C_10 
REMARK    6  A    between atoms: N_15  and  C_14 
REMARK    7  A    between atoms: N_20  and  C_19 
REMARK       I    between atoms: C_22  and  N_20 
ROOT
ATOM      1  C   LIG d   1      -7.357  76.678 117.159  0.00  0.00     0.161 C 
ATOM      2  C   LIG d   1      -8.157  77.650 117.783  0.00  0.00     0.016 C 
ATOM      3  C   LIG d   1      -9.447  77.383 118.296  0.00  0.00     0.038 C 
ATOM      4  C   LIG d   1      -9.967  76.082 118.356  0.00  0.00     0.028 C 
ATOM      5  C   LIG d   1      -9.405  75.155 117.283  0.00  0.00    -0.047 C 
ATOM      6  C   LIG d   1      -7.862  75.228 117.315  0.00  0.00     0.091 C 
ENDROOT
BRANCH   1   7
ATOM      7  O   LIG d   1      -5.999  76.789 117.628  0.00  0.00    -0.368 OA
BRANCH   7   8
ATOM      8  C   LIG d   1      -5.022  77.230 116.653  0.00  0.00     0.119 C 
BRANCH   8   9
ATOM      9  C   LIG d   1      -4.810  78.742 116.862  0.00  0.00     0.028 C 
ATOM     10  C   LIG d   1      -4.758  79.128 118.350  0.00  0.00     0.006 C 
ENDBRANCH   8   9
BRANCH   8  11
ATOM     11  C   LIG d   1      -5.556  77.089 115.225  0.00  0.00     0.028 C 
ATOM     12  C   LIG d   1      -4.778  76.054 114.397  0.00  0.00     0.006 C 
ENDBRANCH   8  11
ENDBRANCH   7   8
ENDBRANCH   1   7
BRANCH   6  13
ATOM     13  N   LIG d   1      -7.234  74.415 116.240  0.00  0.00    -0.311 N 
ATOM     14  C   LIG d   1      -6.924  73.128 116.381  0.00  0.00     0.210 C 
ATOM     15  C   LIG d   1      -6.265  72.483 115.157  0.00  0.00     0.109 C 
ATOM     16  O   LIG d   1      -7.162  72.449 117.392  0.00  0.00    -0.276 OA
ATOM     17  H   LIG d   1      -7.034  74.879 115.375  0.00  0.00     0.149 HD
ENDBRANCH   6  13
BRANCH   5  18
ATOM     18  N   LIG d   1      -9.926  73.801 117.546  0.00  0.00     0.381 N 
ATOM     19  H   LIG d   1     -10.784  73.665 117.051  0.00  0.00    -0.090 HD
ATOM     20  H   LIG d   1     -10.112  73.709 118.530  0.00  0.00    -0.090 HD
ATOM     21  H   LIG d   1      -9.259  73.117 117.263  0.00  0.00    -0.090 HD
ENDBRANCH   5  18
BRANCH   3  22
ATOM     22  C   LIG d   1     -10.248  78.433 118.721  0.00  0.00     0.382 C 
ATOM     23  O   LIG d   1     -11.339  78.196 119.294  0.00  0.00    -0.241 OA
ATOM     24  O   LIG d   1      -9.914  79.612 118.499  0.00  0.00    -0.241 OA
ENDBRANCH   3  22
TORSDOF 7
ENDMDL
MODEL 9
REMARK VINA RESULT:      -4.5     12.148     14.656
REMARK  7 active torsions:
REMARK  status: ('A' for Active; 'I' for Inactive)
REMARK    1  A    between atoms: C_2  and  C_3 
REMARK    2  A    between atoms: C_3  and  O_6 
REMARK    3  A    between atoms: C_3  and  C_4 
REMARK    4  A    between atoms: C_7  and  O_6 
REMARK    5  A    between atoms: C_9  and  C_10 
REMARK    6  A    between atoms: N_15  and  C_14 
REMARK    7  A    between atoms: N_20  and  C_19 
REMARK       I    between atoms: C_22  and  N_20 
ROOT
ATOM      1  C   LIG d   1      10.345  79.986 115.503  0.00  0.00     0.161 C 
ATOM      2  C   LIG d   1       9.216  79.330 114.983  0.00  0.00     0.016 C 
ATOM      3  C   LIG d   1       8.003  79.187 115.694  0.00  0.00     0.038 C 
ATOM      4  C   LIG d   1       7.784  79.827 116.923  0.00  0.00     0.028 C 
ATOM      5  C   LIG d   1       9.065  80.076 117.713  0.00  0.00    -0.047 C 
ATOM      6  C   LIG d   1      10.088  80.786 116.797  0.00  0.00     0.091 C 
ENDROOT
BRANCH   1   7
ATOM      7  O   LIG d   1      10.923  80.837 114.494  0.00  0.00    -0.368 OA
BRANCH   7   8
ATOM      8  C   LIG d   1      12.015  80.269 113.730  0.00  0.00     0.119 C 
BRANCH   8   9
ATOM      9  C   LIG d   1      13.322  80.892 114.256  0.00  0.00     0.028 C 
ATOM     10  C   LIG d   1      14.182  79.882 115.034  0.00  0.00     0.006 C 
ENDBRANCH   8   9
BRANCH   8  11
ATOM     11  C   LIG d   1      11.935  80.677 112.256  0.00  0.00     0.028 C 
ATOM     12  C   LIG d   1      10.731  81.584 111.953  0.00  0.00     0.006 C 
ENDBRANCH   8  11
ENDBRANCH   7   8
ENDBRANCH   1   7
BRANCH   6  13
ATOM     13  N   LIG d   1      11.399  80.992 117.466  0.00  0.00    -0.311 N 
ATOM     14  C   LIG d   1      12.021  82.169 117.513  0.00  0.00     0.210 C 
ATOM     15  C   LIG d   1      13.373  82.157 118.234  0.00  0.00     0.109 C 
ATOM     16  O   LIG d   1      11.567  83.228 117.055  0.00  0.00    -0.276 OA
ATOM     17  H   LIG d   1      11.825  80.192 117.891  0.00  0.00     0.149 HD
ENDBRANCH   6  13
BRANCH   5  18
ATOM     18  N   LIG d   1       8.707  80.870 118.904  0.00  0.00     0.381 N 
ATOM     19  H   LIG d   1       8.864  80.329 119.731  0.00  0.00    -0.090 HD
ATOM     20  H   LIG d   1       7.730  81.101 118.859  0.00  0.00    -0.090 HD
ATOM     21  H   LIG d   1       9.252  81.703 118.935  0.00  0.00    -0.090 HD
ENDBRANCH   5  18
BRANCH   3  22
ATOM     22  C   LIG d   1       7.006  78.364 115.193  0.00  0.00     0.382 C 
ATOM     23  O   LIG d   1       5.816  78.763 115.169  0.00  0.00    -0.241 OA
ATOM     24  O   LIG d   1       7.273  77.211 114.807  0.00  0.00    -0.241 OA
ENDBRANCH   3  22
TORSDOF 7
ENDMDL
