MODEL 1
REMARK VINA RESULT:      -5.6      0.000      0.000
REMARK  7 active torsions:
REMARK  status: ('A' for Active; 'I' for Inactive)
REMARK    1  A    between atoms: C_2  and  C_3 
REMARK    2  A    between atoms: C_3  and  O_6 
REMARK    3  A    between atoms: C_3  and  C_4 
REMARK    4  A    between atoms: C_7  and  O_6 
REMARK    5  A    between atoms: C_9  and  C_10 
REMARK    6  A    between atoms: N_15  and  C_14 
REMARK    7  A    between atoms: N_20  and  C_19 
REMARK       I    between atoms: C_22  and  N_20 
ROOT
ATOM      1  C   LIG d   1      -7.117  76.739 117.246  0.00  0.00     0.161 C 
ATOM      2  C   LIG d   1      -8.422  77.182 117.520  0.00  0.00     0.016 C 
ATOM      3  C   LIG d   1      -8.740  78.525 117.825  0.00  0.00     0.038 C 
ATOM      4  C   LIG d   1      -7.791  79.553 117.727  0.00  0.00     0.028 C 
ATOM      5  C   LIG d   1      -6.358  79.077 117.946  0.00  0.00    -0.047 C 
ATOM      6  C   LIG d   1      -6.085  77.866 117.025  0.00  0.00     0.091 C 
ENDROOT
BRANCH   1   7
ATOM      7  O   LIG d   1      -7.132  75.845 116.116  0.00  0.00    -0.368 OA
BRANCH   7   8
ATOM      8  C   LIG d   1      -6.432  74.588 116.288  0.00  0.00     0.119 C 
BRANCH   8   9
ATOM      9  C   LIG d   1      -5.575  74.358 115.029  0.00  0.00     0.028 C 
ATOM     10  C   LIG d   1      -5.547  75.588 114.106  0.00  0.00     0.006 C 
ENDBRANCH   8   9
BRANCH   8  11
ATOM     11  C   LIG d   1      -7.409  73.409 116.335  0.00  0.00     0.028 C 
ATOM     12  C   LIG d   1      -6.756  72.078 115.928  0.00  0.00     0.006 C 
ENDBRANCH   8  11
ENDBRANCH   7   8
ENDBRANCH   1   7
BRANCH   6  13
ATOM     13  N   LIG d   1      -4.734  77.286 117.238  0.00  0.00    -0.311 N 
ATOM     14  C   LIG d   1      -3.670  77.620 116.509  0.00  0.00     0.210 C 
ATOM     15  C   LIG d   1      -2.376  76.888 116.880  0.00  0.00     0.109 C 
ATOM     16  O   LIG d   1      -3.668  78.477 115.613  0.00  0.00    -0.276 OA
ATOM     17  H   LIG d   1      -4.639  76.605 117.966  0.00  0.00     0.149 HD
ENDBRANCH   6  13
BRANCH   5  18
ATOM     18  N   LIG d   1      -5.464  80.219 117.680  0.00  0.00     0.381 N 
ATOM     19  H   LIG d   1      -4.762  80.272 118.391  0.00  0.00    -0.090 HD
ATOM     20  H   LIG d   1      -6.002  81.067 117.705  0.00  0.00    -0.090 HD
ATOM     21  H   LIG d   1      -5.035  80.115 116.787  0.00  0.00    -0.090 HD
ENDBRANCH   5  18
BRANCH   3  22
ATOM     22  C   LIG d   1     -10.013  78.845 118.272  0.00  0.00     0.382 C 
ATOM     23  O   LIG d   1     -10.783  77.939 118.673  0.00  0.00    -0.241 OA
ATOM     24  O   LIG d   1     -10.418  80.023 118.237  0.00  0.00    -0.241 OA
ENDBRANCH   3  22
TORSDOF 7
ENDMDL
MODEL 2
REMARK VINA RESULT:      -5.5      3.853      6.447
REMARK  7 active torsions:
REMARK  status: ('A' for Active; 'I' for Inactive)
REMARK    1  A    between atoms: C_2  and  C_3 
REMARK    2  A    between atoms: C_3  and  O_6 
REMARK    3  A    between atoms: C_3  and  C_4 
REMARK    4  A    between atoms: C_7  and  O_6 
REMARK    5  A    between atoms: C_9  and  C_10 
REMARK    6  A    between atoms: N_15  and  C_14 
REMARK    7  A    between atoms: N_20  and  C_19 
REMARK       I    between atoms: C_22  and  N_20 
ROOT
ATOM      1  C   LIG d   1      -2.518  75.094 116.045  0.00  0.00     0.161 C 
ATOM      2  C   LIG d   1      -2.091  74.219 117.057  0.00  0.00     0.016 C 
ATOM      3  C   LIG d   1      -0.863  74.362 117.743  0.00  0.00     0.038 C 
ATOM      4  C   LIG d   1      -0.042  75.486 117.567  0.00  0.00     0.028 C 
ATOM      5  C   LIG d   1      -0.189  76.134 116.195  0.00  0.00    -0.047 C 
ATOM      6  C   LIG d   1      -1.688  76.389 115.917  0.00  0.00     0.091 C 
ENDROOT
BRANCH   1   7
ATOM      7  O   LIG d   1      -3.912  75.409 116.228  0.00  0.00    -0.368 OA
BRANCH   7   8
ATOM      8  C   LIG d   1      -4.854  74.578 115.506  0.00  0.00     0.119 C 
BRANCH   8   9
ATOM      9  C   LIG d   1      -5.505  75.453 114.418  0.00  0.00     0.028 C 
ATOM     10  C   LIG d   1      -6.685  76.279 114.958  0.00  0.00     0.006 C 
ENDBRANCH   8   9
BRANCH   8  11
ATOM     11  C   LIG d   1      -6.007  74.128 116.409  0.00  0.00     0.028 C 
ATOM     12  C   LIG d   1      -6.540  72.734 116.044  0.00  0.00     0.006 C 
ENDBRANCH   8  11
ENDBRANCH   7   8
ENDBRANCH   1   7
BRANCH   6  13
ATOM     13  N   LIG d   1      -1.927  76.944 114.559  0.00  0.00    -0.311 N 
ATOM     14  C   LIG d   1      -2.713  77.992 114.324  0.00  0.00     0.210 C 
ATOM     15  C   LIG d   1      -2.837  78.389 112.849  0.00  0.00     0.109 C 
ATOM     16  O   LIG d   1      -3.293  78.652 115.199  0.00  0.00    -0.276 OA
ATOM     17  H   LIG d   1      -1.469  76.488 113.793  0.00  0.00     0.149 HD
ENDBRANCH   6  13
BRANCH   5  18
ATOM     18  N   LIG d   1       0.617  77.370 116.197  0.00  0.00     0.381 N 
ATOM     19  H   LIG d   1       1.582  77.145 116.057  0.00  0.00    -0.090 HD
ATOM     20  H   LIG d   1       0.523  77.817 117.091  0.00  0.00    -0.090 HD
ATOM     21  H   LIG d   1       0.304  77.982 115.476  0.00  0.00    -0.090 HD
ENDBRANCH   5  18
BRANCH   3  22
ATOM     22  C   LIG d   1      -0.426  73.354 118.588  0.00  0.00     0.382 C 
ATOM     23  O   LIG d   1       0.643  73.492 119.230  0.00  0.00    -0.241 OA
ATOM     24  O   LIG d   1      -1.064  72.288 118.684  0.00  0.00    -0.241 OA
ENDBRANCH   3  22
TORSDOF 7
ENDMDL
MODEL 3
REMARK VINA RESULT:      -5.4     10.662     13.793
REMARK  7 active torsions:
REMARK  status: ('A' for Active; 'I' for Inactive)
REMARK    1  A    between atoms: C_2  and  C_3 
REMARK    2  A    between atoms: C_3  and  O_6 
REMARK    3  A    between atoms: C_3  and  C_4 
REMARK    4  A    between atoms: C_7  and  O_6 
REMARK    5  A    between atoms: C_9  and  C_10 
REMARK    6  A    between atoms: N_15  and  C_14 
REMARK    7  A    between atoms: N_20  and  C_19 
REMARK       I    between atoms: C_22  and  N_20 
ROOT
ATOM      1  C   LIG d   1       3.289  84.927 112.818  0.00  0.00     0.161 C 
ATOM      2  C   LIG d   1       4.077  86.084 112.936  0.00  0.00     0.016 C 
ATOM      3  C   LIG d   1       3.653  87.362 112.503  0.00  0.00     0.038 C 
ATOM      4  C   LIG d   1       2.344  87.597 112.058  0.00  0.00     0.028 C 
ATOM      5  C   LIG d   1       1.680  86.366 111.451  0.00  0.00    -0.047 C 
ATOM      6  C   LIG d   1       1.816  85.184 112.438  0.00  0.00     0.091 C 
ENDROOT
BRANCH   1   7
ATOM      7  O   LIG d   1       3.366  84.158 114.035  0.00  0.00    -0.368 OA
BRANCH   7   8
ATOM      8  C   LIG d   1       2.346  84.432 115.027  0.00  0.00     0.119 C 
BRANCH   8   9
ATOM      9  C   LIG d   1       3.012  85.222 116.170  0.00  0.00     0.028 C 
ATOM     10  C   LIG d   1       2.492  86.666 116.266  0.00  0.00     0.006 C 
ENDBRANCH   8   9
BRANCH   8  11
ATOM     11  C   LIG d   1       1.835  83.140 115.671  0.00  0.00     0.028 C 
ATOM     12  C   LIG d   1       2.153  81.890 114.835  0.00  0.00     0.006 C 
ENDBRANCH   8  11
ENDBRANCH   7   8
ENDBRANCH   1   7
BRANCH   6  13
ATOM     13  N   LIG d   1       1.267  83.918 111.886  0.00  0.00    -0.311 N 
ATOM     14  C   LIG d   1       0.031  83.486 112.131  0.00  0.00     0.210 C 
ATOM     15  C   LIG d   1      -0.327  82.147 111.480  0.00  0.00     0.109 C 
ATOM     16  O   LIG d   1      -0.813  84.102 112.800  0.00  0.00    -0.276 OA
ATOM     17  H   LIG d   1       1.874  83.372 111.307  0.00  0.00     0.149 HD
ENDBRANCH   6  13
BRANCH   5  18
ATOM     18  N   LIG d   1       0.277  86.715 111.157  0.00  0.00     0.381 N 
ATOM     19  H   LIG d   1      -0.281  85.885 111.134  0.00  0.00    -0.090 HD
ATOM     20  H   LIG d   1       0.233  87.150 110.252  0.00  0.00    -0.090 HD
ATOM     21  H   LIG d   1      -0.072  87.339 111.851  0.00  0.00    -0.090 HD
ENDBRANCH   5  18
BRANCH   3  22
ATOM     22  C   LIG d   1       4.557  88.413 112.475  0.00  0.00     0.382 C 
ATOM     23  O   LIG d   1       5.744  88.210 112.122  0.00  0.00    -0.241 OA
ATOM     24  O   LIG d   1       4.212  89.552 112.841  0.00  0.00    -0.241 OA
ENDBRANCH   3  22
TORSDOF 7
ENDMDL
MODEL 4
REMARK VINA RESULT:      -5.1      1.885      2.787
REMARK  7 active torsions:
REMARK  status: ('A' for Active; 'I' for Inactive)
REMARK    1  A    between atoms: C_2  and  C_3 
REMARK    2  A    between atoms: C_3  and  O_6 
REMARK    3  A    between atoms: C_3  and  C_4 
REMARK    4  A    between atoms: C_7  and  O_6 
REMARK    5  A    between atoms: C_9  and  C_10 
REMARK    6  A    between atoms: N_15  and  C_14 
REMARK    7  A    between atoms: N_20  and  C_19 
REMARK       I    between atoms: C_22  and  N_20 
ROOT
ATOM      1  C   LIG d   1      -5.411  75.950 117.928  0.00  0.00     0.161 C 
ATOM      2  C   LIG d   1      -6.546  76.771 117.824  0.00  0.00     0.016 C 
ATOM      3  C   LIG d   1      -6.486  78.144 117.493  0.00  0.00     0.038 C 
ATOM      4  C   LIG d   1      -5.290  78.758 117.092  0.00  0.00     0.028 C 
ATOM      5  C   LIG d   1      -4.045  78.094 117.669  0.00  0.00    -0.047 C 
ATOM      6  C   LIG d   1      -4.109  76.575 117.386  0.00  0.00     0.091 C 
ENDROOT
BRANCH   1   7
ATOM      7  O   LIG d   1      -5.663  74.684 117.287  0.00  0.00    -0.368 OA
BRANCH   7   8
ATOM      8  C   LIG d   1      -6.618  74.700 116.198  0.00  0.00     0.119 C 
BRANCH   8   9
ATOM      9  C   LIG d   1      -7.458  73.412 116.299  0.00  0.00     0.028 C 
ATOM     10  C   LIG d   1      -6.652  72.156 115.927  0.00  0.00     0.006 C 
ENDBRANCH   8   9
BRANCH   8  11
ATOM     11  C   LIG d   1      -5.916  74.620 114.840  0.00  0.00     0.028 C 
ATOM     12  C   LIG d   1      -5.977  75.943 114.058  0.00  0.00     0.006 C 
ENDBRANCH   8  11
ENDBRANCH   7   8
ENDBRANCH   1   7
BRANCH   6  13
ATOM     13  N   LIG d   1      -2.969  75.837 117.991  0.00  0.00    -0.311 N 
ATOM     14  C   LIG d   1      -2.197  74.994 117.308  0.00  0.00     0.210 C 
ATOM     15  C   LIG d   1      -1.091  74.322 118.128  0.00  0.00     0.109 C 
ATOM     16  O   LIG d   1      -2.304  74.762 116.095  0.00  0.00    -0.276 OA
ATOM     17  H   LIG d   1      -2.792  75.990 118.964  0.00  0.00     0.149 HD
ENDBRANCH   6  13
BRANCH   5  18
ATOM     18  N   LIG d   1      -2.869  78.746 117.062  0.00  0.00     0.381 N 
ATOM     19  H   LIG d   1      -2.049  78.527 117.592  0.00  0.00    -0.090 HD
ATOM     20  H   LIG d   1      -3.002  79.742 117.085  0.00  0.00    -0.090 HD
ATOM     21  H   LIG d   1      -2.757  78.440 116.121  0.00  0.00    -0.090 HD
ENDBRANCH   5  18
BRANCH   3  22
ATOM     22  C   LIG d   1      -7.625  78.927 117.599  0.00  0.00     0.382 C 
ATOM     23  O   LIG d   1      -8.733  78.392 117.844  0.00  0.00    -0.241 OA
ATOM     24  O   LIG d   1      -7.566  80.157 117.409  0.00  0.00    -0.241 OA
ENDBRANCH   3  22
TORSDOF 7
ENDMDL
MODEL 5
REMARK VINA RESULT:      -5.0      3.027      4.998
REMARK  7 active torsions:
REMARK  status: ('A' for Active; 'I' for Inactive)
REMARK    1  A    between atoms: C_2  and  C_3 
REMARK    2  A    between atoms: C_3  and  O_6 
REMARK    3  A    between atoms: C_3  and  C_4 
REMARK    4  A    between atoms: C_7  and  O_6 
REMARK    5  A    between atoms: C_9  and  C_10 
REMARK    6  A    between atoms: N_15  and  C_14 
REMARK    7  A    between atoms: N_20  and  C_19 
REMARK       I    between atoms: C_22  and  N_20 
ROOT
ATOM      1  C   LIG d   1      -4.354  75.186 116.619  0.00  0.00     0.161 C 
ATOM      2  C   LIG d   1      -5.074  74.040 116.244  0.00  0.00     0.016 C 
ATOM      3  C   LIG d   1      -6.486  73.967 116.261  0.00  0.00     0.038 C 
ATOM      4  C   LIG d   1      -7.283  75.094 116.513  0.00  0.00     0.028 C 
ATOM      5  C   LIG d   1      -6.597  76.138 117.388  0.00  0.00    -0.047 C 
ATOM      6  C   LIG d   1      -5.208  76.460 116.790  0.00  0.00     0.091 C 
ENDROOT
BRANCH   1   7
ATOM      7  O   LIG d   1      -3.286  75.422 115.680  0.00  0.00    -0.368 OA
BRANCH   7   8
ATOM      8  C   LIG d   1      -2.019  74.789 115.984  0.00  0.00     0.119 C 
BRANCH   8   9
ATOM      9  C   LIG d   1      -1.777  74.941 117.498  0.00  0.00     0.028 C 
ATOM     10  C   LIG d   1      -0.944  73.785 118.078  0.00  0.00     0.006 C 
ENDBRANCH   8   9
BRANCH   8  11
ATOM     11  C   LIG d   1      -0.854  75.523 115.312  0.00  0.00     0.028 C 
ATOM     12  C   LIG d   1      -1.053  77.047 115.273  0.00  0.00     0.006 C 
ENDBRANCH   8  11
ENDBRANCH   7   8
ENDBRANCH   1   7
BRANCH   6  13
ATOM     13  N   LIG d   1      -4.435  77.411 117.631  0.00  0.00    -0.311 N 
ATOM     14  C   LIG d   1      -3.906  78.540 117.163  0.00  0.00     0.210 C 
ATOM     15  C   LIG d   1      -3.130  79.366 118.194  0.00  0.00     0.109 C 
ATOM     16  O   LIG d   1      -4.031  78.951 116.000  0.00  0.00    -0.276 OA
ATOM     17  H   LIG d   1      -4.311  77.170 118.595  0.00  0.00     0.149 HD
ENDBRANCH   6  13
BRANCH   5  18
ATOM     18  N   LIG d   1      -7.484  77.315 117.456  0.00  0.00     0.381 N 
ATOM     19  H   LIG d   1      -7.419  77.736 118.361  0.00  0.00    -0.090 HD
ATOM     20  H   LIG d   1      -8.433  77.015 117.315  0.00  0.00    -0.090 HD
ATOM     21  H   LIG d   1      -7.229  77.975 116.755  0.00  0.00    -0.090 HD
ENDBRANCH   5  18
BRANCH   3  22
ATOM     22  C   LIG d   1      -7.114  72.747 116.064  0.00  0.00     0.382 C 
ATOM     23  O   LIG d   1      -6.499  71.809 115.501  0.00  0.00    -0.241 OA
ATOM     24  O   LIG d   1      -8.302  72.586 116.402  0.00  0.00    -0.241 OA
ENDBRANCH   3  22
TORSDOF 7
ENDMDL
MODEL 6
REMARK VINA RESULT:      -4.9     18.219     21.115
REMARK  7 active torsions:
REMARK  status: ('A' for Active; 'I' for Inactive)
REMARK    1  A    between atoms: C_2  and  C_3 
REMARK    2  A    between atoms: C_3  and  O_6 
REMARK    3  A    between atoms: C_3  and  C_4 
REMARK    4  A    between atoms: C_7  and  O_6 
REMARK    5  A    between atoms: C_9  and  C_10 
REMARK    6  A    between atoms: N_15  and  C_14 
REMARK    7  A    between atoms: N_20  and  C_19 
REMARK       I    between atoms: C_22  and  N_20 
ROOT
ATOM      1  C   LIG d   1     -25.269  85.485 114.426  0.00  0.00     0.161 C 
ATOM      2  C   LIG d   1     -24.175  86.356 114.293  0.00  0.00     0.016 C 
ATOM      3  C   LIG d   1     -22.910  85.949 113.811  0.00  0.00     0.038 C 
ATOM      4  C   LIG d   1     -22.695  84.667 113.284  0.00  0.00     0.028 C 
ATOM      5  C   LIG d   1     -23.627  83.609 113.865  0.00  0.00    -0.047 C 
ATOM      6  C   LIG d   1     -25.085  84.109 113.753  0.00  0.00     0.091 C 
ENDROOT
BRANCH   1   7
ATOM      7  O   LIG d   1     -26.466  86.124 113.941  0.00  0.00    -0.368 OA
BRANCH   7   8
ATOM      8  C   LIG d   1     -26.277  87.369 113.224  0.00  0.00     0.119 C 
BRANCH   8   9
ATOM      9  C   LIG d   1     -27.127  88.443 113.930  0.00  0.00     0.028 C 
ATOM     10  C   LIG d   1     -26.265  89.484 114.665  0.00  0.00     0.006 C 
ENDBRANCH   8   9
BRANCH   8  11
ATOM     11  C   LIG d   1     -26.835  87.282 111.800  0.00  0.00     0.028 C 
ATOM     12  C   LIG d   1     -26.779  88.625 111.055  0.00  0.00     0.006 C 
ENDBRANCH   8  11
ENDBRANCH   7   8
ENDBRANCH   1   7
BRANCH   6  13
ATOM     13  N   LIG d   1     -26.055  83.170 114.374  0.00  0.00    -0.311 N 
ATOM     14  C   LIG d   1     -26.681  82.209 113.698  0.00  0.00     0.210 C 
ATOM     15  C   LIG d   1     -27.656  81.365 114.526  0.00  0.00     0.109 C 
ATOM     16  O   LIG d   1     -26.498  81.953 112.499  0.00  0.00    -0.276 OA
ATOM     17  H   LIG d   1     -26.240  83.286 115.352  0.00  0.00     0.149 HD
ENDBRANCH   6  13
BRANCH   5  18
ATOM     18  N   LIG d   1     -23.388  82.353 113.131  0.00  0.00     0.381 N 
ATOM     19  H   LIG d   1     -22.408  82.148 113.120  0.00  0.00    -0.090 HD
ATOM     20  H   LIG d   1     -23.696  82.467 112.181  0.00  0.00    -0.090 HD
ATOM     21  H   LIG d   1     -23.886  81.605 113.562  0.00  0.00    -0.090 HD
ENDBRANCH   5  18
BRANCH   3  22
ATOM     22  C   LIG d   1     -21.832  86.818 113.891  0.00  0.00     0.382 C 
ATOM     23  O   LIG d   1     -21.894  87.827 114.634  0.00  0.00    -0.241 OA
ATOM     24  O   LIG d   1     -20.817  86.630 113.195  0.00  0.00    -0.241 OA
ENDBRANCH   3  22
TORSDOF 7
ENDMDL
MODEL 7
REMARK VINA RESULT:      -4.9     15.495     18.310
REMARK  7 active torsions:
REMARK  status: ('A' for Active; 'I' for Inactive)
REMARK    1  A    between atoms: C_2  and  C_3 
REMARK    2  A    between atoms: C_3  and  O_6 
REMARK    3  A    between atoms: C_3  and  C_4 
REMARK    4  A    between atoms: C_7  and  O_6 
REMARK    5  A    between atoms: C_9  and  C_10 
REMARK    6  A    between atoms: N_15  and  C_14 
REMARK    7  A    between atoms: N_20  and  C_19 
REMARK       I    between atoms: C_22  and  N_20 
ROOT
ATOM      1  C   LIG d   1      10.997  78.964 115.305  0.00  0.00     0.161 C 
ATOM      2  C   LIG d   1      10.688  77.648 114.920  0.00  0.00     0.016 C 
ATOM      3  C   LIG d   1       9.441  77.034 115.178  0.00  0.00     0.038 C 
ATOM      4  C   LIG d   1       8.358  77.750 115.710  0.00  0.00     0.028 C 
ATOM      5  C   LIG d   1       8.780  78.932 116.576  0.00  0.00    -0.047 C 
ATOM      6  C   LIG d   1       9.790  79.796 115.787  0.00  0.00     0.091 C 
ENDROOT
BRANCH   1   7
ATOM      7  O   LIG d   1      11.676  79.641 114.229  0.00  0.00    -0.368 OA
BRANCH   7   8
ATOM      8  C   LIG d   1      13.120  79.533 114.218  0.00  0.00     0.119 C 
BRANCH   8   9
ATOM      9  C   LIG d   1      13.670  80.568 115.218  0.00  0.00     0.028 C 
ATOM     10  C   LIG d   1      15.031  81.138 114.785  0.00  0.00     0.006 C 
ENDBRANCH   8   9
BRANCH   8  11
ATOM     11  C   LIG d   1      13.699  79.935 112.859  0.00  0.00     0.028 C 
ATOM     12  C   LIG d   1      12.615  80.309 111.836  0.00  0.00     0.006 C 
ENDBRANCH   8  11
ENDBRANCH   7   8
ENDBRANCH   1   7
BRANCH   6  13
ATOM     13  N   LIG d   1      10.318  80.929 116.592  0.00  0.00    -0.311 N 
ATOM     14  C   LIG d   1      10.429  82.171 116.125  0.00  0.00     0.210 C 
ATOM     15  C   LIG d   1      11.016  83.183 117.114  0.00  0.00     0.109 C 
ATOM     16  O   LIG d   1      10.067  82.538 114.997  0.00  0.00    -0.276 OA
ATOM     17  H   LIG d   1      10.606  80.727 117.529  0.00  0.00     0.149 HD
ENDBRANCH   6  13
BRANCH   5  18
ATOM     18  N   LIG d   1       7.558  79.669 116.950  0.00  0.00     0.381 N 
ATOM     19  H   LIG d   1       7.802  80.575 117.298  0.00  0.00    -0.090 HD
ATOM     20  H   LIG d   1       7.087  79.166 117.682  0.00  0.00    -0.090 HD
ATOM     21  H   LIG d   1       6.958  79.759 116.160  0.00  0.00    -0.090 HD
ENDBRANCH   5  18
BRANCH   3  22
ATOM     22  C   LIG d   1       9.281  75.677 114.941  0.00  0.00     0.382 C 
ATOM     23  O   LIG d   1       8.293  75.268 114.285  0.00  0.00    -0.241 OA
ATOM     24  O   LIG d   1      10.089  74.854 115.412  0.00  0.00    -0.241 OA
ENDBRANCH   3  22
TORSDOF 7
ENDMDL
MODEL 8
REMARK VINA RESULT:      -4.8     11.440     14.677
REMARK  7 active torsions:
REMARK  status: ('A' for Active; 'I' for Inactive)
REMARK    1  A    between atoms: C_2  and  C_3 
REMARK    2  A    between atoms: C_3  and  O_6 
REMARK    3  A    between atoms: C_3  and  C_4 
REMARK    4  A    between atoms: C_7  and  O_6 
REMARK    5  A    between atoms: C_9  and  C_10 
REMARK    6  A    between atoms: N_15  and  C_14 
REMARK    7  A    between atoms: N_20  and  C_19 
REMARK       I    between atoms: C_22  and  N_20 
ROOT
ATOM      1  C   LIG d   1       3.242  85.699 113.989  0.00  0.00     0.161 C 
ATOM      2  C   LIG d   1       4.262  86.656 114.119  0.00  0.00     0.016 C 
ATOM      3  C   LIG d   1       4.329  87.833 113.338  0.00  0.00     0.038 C 
ATOM      4  C   LIG d   1       3.290  88.209 112.473  0.00  0.00     0.028 C 
ATOM      5  C   LIG d   1       2.489  87.027 111.939  0.00  0.00    -0.047 C 
ATOM      6  C   LIG d   1       2.041  86.146 113.128  0.00  0.00     0.091 C 
ENDROOT
BRANCH   1   7
ATOM      7  O   LIG d   1       2.795  85.281 115.293  0.00  0.00    -0.368 OA
BRANCH   7   8
ATOM      8  C   LIG d   1       2.833  86.288 116.334  0.00  0.00     0.119 C 
BRANCH   8   9
ATOM      9  C   LIG d   1       3.327  85.604 117.623  0.00  0.00     0.028 C 
ATOM     10  C   LIG d   1       4.848  85.376 117.620  0.00  0.00     0.006 C 
ENDBRANCH   8   9
BRANCH   8  11
ATOM     11  C   LIG d   1       1.429  86.804 116.662  0.00  0.00     0.028 C 
ATOM     12  C   LIG d   1       1.101  86.729 118.161  0.00  0.00     0.006 C 
ENDBRANCH   8  11
ENDBRANCH   7   8
ENDBRANCH   1   7
BRANCH   6  13
ATOM     13  N   LIG d   1       1.323  84.922 112.688  0.00  0.00    -0.311 N 
ATOM     14  C   LIG d   1      -0.005  84.823 112.656  0.00  0.00     0.210 C 
ATOM     15  C   LIG d   1      -0.541  83.466 112.189  0.00  0.00     0.109 C 
ATOM     16  O   LIG d   1      -0.790  85.741 112.939  0.00  0.00    -0.276 OA
ATOM     17  H   LIG d   1       1.882  84.140 112.411  0.00  0.00     0.149 HD
ENDBRANCH   6  13
BRANCH   5  18
ATOM     18  N   LIG d   1       1.357  87.570 111.164  0.00  0.00     0.381 N 
ATOM     19  H   LIG d   1       1.672  88.328 110.592  0.00  0.00    -0.090 HD
ATOM     20  H   LIG d   1       0.665  87.921 111.801  0.00  0.00    -0.090 HD
ATOM     21  H   LIG d   1       0.962  86.855 110.593  0.00  0.00    -0.090 HD
ENDBRANCH   5  18
BRANCH   3  22
ATOM     22  C   LIG d   1       5.463  88.629 113.390  0.00  0.00     0.382 C 
ATOM     23  O   LIG d   1       5.947  88.959 114.500  0.00  0.00    -0.241 OA
ATOM     24  O   LIG d   1       5.983  89.056 112.342  0.00  0.00    -0.241 OA
ENDBRANCH   3  22
TORSDOF 7
ENDMDL
MODEL 9
REMARK VINA RESULT:      -4.7     14.192     17.919
REMARK  7 active torsions:
REMARK  status: ('A' for Active; 'I' for Inactive)
REMARK    1  A    between atoms: C_2  and  C_3 
REMARK    2  A    between atoms: C_3  and  O_6 
REMARK    3  A    between atoms: C_3  and  C_4 
REMARK    4  A    between atoms: C_7  and  O_6 
REMARK    5  A    between atoms: C_9  and  C_10 
REMARK    6  A    between atoms: N_15  and  C_14 
REMARK    7  A    between atoms: N_20  and  C_19 
REMARK       I    between atoms: C_22  and  N_20 
ROOT
ATOM      1  C   LIG d   1      10.333  78.743 114.893  0.00  0.00     0.161 C 
ATOM      2  C   LIG d   1       9.011  78.984 115.303  0.00  0.00     0.016 C 
ATOM      3  C   LIG d   1       8.101  77.957 115.642  0.00  0.00     0.038 C 
ATOM      4  C   LIG d   1       8.500  76.615 115.738  0.00  0.00     0.028 C 
ATOM      5  C   LIG d   1       9.687  76.271 114.845  0.00  0.00    -0.047 C 
ATOM      6  C   LIG d   1      10.819  77.293 115.099  0.00  0.00     0.091 C 
ENDROOT
BRANCH   1   7
ATOM      7  O   LIG d   1      11.225  79.668 115.546  0.00  0.00    -0.368 OA
BRANCH   7   8
ATOM      8  C   LIG d   1      11.888  80.628 114.687  0.00  0.00     0.119 C 
BRANCH   8   9
ATOM      9  C   LIG d   1      11.337  80.432 113.262  0.00  0.00     0.028 C 
ATOM     10  C   LIG d   1      12.453  80.365 112.206  0.00  0.00     0.006 C 
ENDBRANCH   8   9
BRANCH   8  11
ATOM     11  C   LIG d   1      13.389  80.341 114.585  0.00  0.00     0.028 C 
ATOM     12  C   LIG d   1      13.962  79.708 115.863  0.00  0.00     0.006 C 
ENDBRANCH   8  11
ENDBRANCH   7   8
ENDBRANCH   1   7
BRANCH   6  13
ATOM     13  N   LIG d   1      11.987  77.079 114.205  0.00  0.00    -0.311 N 
ATOM     14  C   LIG d   1      13.058  76.368 114.555  0.00  0.00     0.210 C 
ATOM     15  C   LIG d   1      14.157  76.289 113.492  0.00  0.00     0.109 C 
ATOM     16  O   LIG d   1      13.188  75.770 115.634  0.00  0.00    -0.276 OA
ATOM     17  H   LIG d   1      11.952  77.503 113.299  0.00  0.00     0.149 HD
ENDBRANCH   6  13
BRANCH   5  18
ATOM     18  N   LIG d   1      10.084  74.882 115.147  0.00  0.00     0.381 N 
ATOM     19  H   LIG d   1       9.880  74.294 114.364  0.00  0.00    -0.090 HD
ATOM     20  H   LIG d   1       9.551  74.556 115.934  0.00  0.00    -0.090 HD
ATOM     21  H   LIG d   1      11.057  74.843 115.357  0.00  0.00    -0.090 HD
ENDBRANCH   5  18
BRANCH   3  22
ATOM     22  C   LIG d   1       6.765  78.263 115.849  0.00  0.00     0.382 C 
ATOM     23  O   LIG d   1       6.001  77.416 116.372  0.00  0.00    -0.241 OA
ATOM     24  O   LIG d   1       6.303  79.360 115.480  0.00  0.00    -0.241 OA
ENDBRANCH   3  22
TORSDOF 7
ENDMDL
