MODEL 1
REMARK VINA RESULT:      -5.5      0.000      0.000
REMARK  7 active torsions:
REMARK  status: ('A' for Active; 'I' for Inactive)
REMARK    1  A    between atoms: C_2  and  C_3 
REMARK    2  A    between atoms: C_3  and  O_6 
REMARK    3  A    between atoms: C_3  and  C_4 
REMARK    4  A    between atoms: C_7  and  O_6 
REMARK    5  A    between atoms: C_9  and  C_10 
REMARK    6  A    between atoms: N_15  and  C_14 
REMARK    7  A    between atoms: N_20  and  C_19 
REMARK       I    between atoms: C_22  and  N_20 
ROOT
ATOM      1  C   LIG d   1       0.364  83.265 113.423  0.00  0.00     0.161 C 
ATOM      2  C   LIG d   1      -0.918  82.780 113.112  0.00  0.00     0.016 C 
ATOM      3  C   LIG d   1      -1.773  82.178 114.063  0.00  0.00     0.038 C 
ATOM      4  C   LIG d   1      -1.463  82.155 115.431  0.00  0.00     0.028 C 
ATOM      5  C   LIG d   1       0.036  82.177 115.712  0.00  0.00    -0.047 C 
ATOM      6  C   LIG d   1       0.675  83.349 114.932  0.00  0.00     0.091 C 
ENDROOT
BRANCH   1   7
ATOM      7  O   LIG d   1       0.567  84.547 112.797  0.00  0.00    -0.368 OA
BRANCH   7   8
ATOM      8  C   LIG d   1       1.506  84.577 111.694  0.00  0.00     0.119 C 
BRANCH   8   9
ATOM      9  C   LIG d   1       2.008  83.136 111.474  0.00  0.00     0.028 C 
ATOM     10  C   LIG d   1       3.543  83.043 111.474  0.00  0.00     0.006 C 
ENDBRANCH   8   9
BRANCH   8  11
ATOM     11  C   LIG d   1       2.754  85.391 112.048  0.00  0.00     0.028 C 
ATOM     12  C   LIG d   1       2.499  86.907 112.040  0.00  0.00     0.006 C 
ENDBRANCH   8  11
ENDBRANCH   7   8
ENDBRANCH   1   7
BRANCH   6  13
ATOM     13  N   LIG d   1       2.153  83.392 115.084  0.00  0.00    -0.311 N 
ATOM     14  C   LIG d   1       2.810  84.444 115.569  0.00  0.00     0.210 C 
ATOM     15  C   LIG d   1       4.333  84.287 115.623  0.00  0.00     0.109 C 
ATOM     16  O   LIG d   1       2.273  85.480 115.991  0.00  0.00    -0.276 OA
ATOM     17  H   LIG d   1       2.665  82.581 114.796  0.00  0.00     0.149 HD
ENDBRANCH   6  13
BRANCH   5  18
ATOM     18  N   LIG d   1       0.214  82.290 117.172  0.00  0.00     0.381 N 
ATOM     19  H   LIG d   1       0.877  81.609 117.485  0.00  0.00    -0.090 HD
ATOM     20  H   LIG d   1      -0.665  82.104 117.622  0.00  0.00    -0.090 HD
ATOM     21  H   LIG d   1       0.530  83.205 117.407  0.00  0.00    -0.090 HD
ENDBRANCH   5  18
BRANCH   3  22
ATOM     22  C   LIG d   1      -2.938  81.554 113.641  0.00  0.00     0.382 C 
ATOM     23  O   LIG d   1      -3.360  80.540 114.247  0.00  0.00    -0.241 OA
ATOM     24  O   LIG d   1      -3.547  81.966 112.636  0.00  0.00    -0.241 OA
ENDBRANCH   3  22
TORSDOF 7
ENDMDL
MODEL 2
REMARK VINA RESULT:      -5.4      3.012      5.306
REMARK  7 active torsions:
REMARK  status: ('A' for Active; 'I' for Inactive)
REMARK    1  A    between atoms: C_2  and  C_3 
REMARK    2  A    between atoms: C_3  and  O_6 
REMARK    3  A    between atoms: C_3  and  C_4 
REMARK    4  A    between atoms: C_7  and  O_6 
REMARK    5  A    between atoms: C_9  and  C_10 
REMARK    6  A    between atoms: N_15  and  C_14 
REMARK    7  A    between atoms: N_20  and  C_19 
REMARK       I    between atoms: C_22  and  N_20 
ROOT
ATOM      1  C   LIG d   1      -2.584  81.696 112.982  0.00  0.00     0.161 C 
ATOM      2  C   LIG d   1      -2.977  80.361 113.175  0.00  0.00     0.016 C 
ATOM      3  C   LIG d   1      -2.229  79.255 112.709  0.00  0.00     0.038 C 
ATOM      4  C   LIG d   1      -0.953  79.407 112.146  0.00  0.00     0.028 C 
ATOM      5  C   LIG d   1      -0.744  80.761 111.476  0.00  0.00    -0.047 C 
ATOM      6  C   LIG d   1      -1.141  81.878 112.468  0.00  0.00     0.091 C 
ENDROOT
BRANCH   1   7
ATOM      7  O   LIG d   1      -2.781  82.444 114.198  0.00  0.00    -0.368 OA
BRANCH   7   8
ATOM      8  C   LIG d   1      -2.353  81.797 115.421  0.00  0.00     0.119 C 
BRANCH   8   9
ATOM      9  C   LIG d   1      -3.450  82.031 116.478  0.00  0.00     0.028 C 
ATOM     10  C   LIG d   1      -4.184  80.735 116.860  0.00  0.00     0.006 C 
ENDBRANCH   8   9
BRANCH   8  11
ATOM     11  C   LIG d   1      -1.094  82.457 115.990  0.00  0.00     0.028 C 
ATOM     12  C   LIG d   1      -1.308  83.035 117.398  0.00  0.00     0.006 C 
ENDBRANCH   8  11
ENDBRANCH   7   8
ENDBRANCH   1   7
BRANCH   6  13
ATOM     13  N   LIG d   1      -1.046  83.233 111.863  0.00  0.00    -0.311 N 
ATOM     14  C   LIG d   1      -0.202  84.169 112.292  0.00  0.00     0.210 C 
ATOM     15  C   LIG d   1      -0.280  85.503 111.542  0.00  0.00     0.109 C 
ATOM     16  O   LIG d   1       0.627  84.012 113.200  0.00  0.00    -0.276 OA
ATOM     17  H   LIG d   1      -1.661  83.435 111.100  0.00  0.00     0.149 HD
ENDBRANCH   6  13
BRANCH   5  18
ATOM     18  N   LIG d   1       0.668  80.836 111.055  0.00  0.00     0.381 N 
ATOM     19  H   LIG d   1       0.805  81.637 110.472  0.00  0.00    -0.090 HD
ATOM     20  H   LIG d   1       0.892  80.015 110.521  0.00  0.00    -0.090 HD
ATOM     21  H   LIG d   1       1.259  80.893 111.854  0.00  0.00    -0.090 HD
ENDBRANCH   5  18
BRANCH   3  22
ATOM     22  C   LIG d   1      -2.776  77.982 112.769  0.00  0.00     0.382 C 
ATOM     23  O   LIG d   1      -2.049  77.001 113.056  0.00  0.00    -0.241 OA
ATOM     24  O   LIG d   1      -3.977  77.797 112.494  0.00  0.00    -0.241 OA
ENDBRANCH   3  22
TORSDOF 7
ENDMDL
MODEL 3
REMARK VINA RESULT:      -5.2      2.095      4.158
REMARK  7 active torsions:
REMARK  status: ('A' for Active; 'I' for Inactive)
REMARK    1  A    between atoms: C_2  and  C_3 
REMARK    2  A    between atoms: C_3  and  O_6 
REMARK    3  A    between atoms: C_3  and  C_4 
REMARK    4  A    between atoms: C_7  and  O_6 
REMARK    5  A    between atoms: C_9  and  C_10 
REMARK    6  A    between atoms: N_15  and  C_14 
REMARK    7  A    between atoms: N_20  and  C_19 
REMARK       I    between atoms: C_22  and  N_20 
ROOT
ATOM      1  C   LIG d   1       0.107  83.049 114.824  0.00  0.00     0.161 C 
ATOM      2  C   LIG d   1      -1.069  82.287 114.716  0.00  0.00     0.016 C 
ATOM      3  C   LIG d   1      -1.749  82.075 113.495  0.00  0.00     0.038 C 
ATOM      4  C   LIG d   1      -1.212  82.488 112.266  0.00  0.00     0.028 C 
ATOM      5  C   LIG d   1      -0.288  83.696 112.384  0.00  0.00    -0.047 C 
ATOM      6  C   LIG d   1       0.767  83.415 113.478  0.00  0.00     0.091 C 
ENDROOT
BRANCH   1   7
ATOM      7  O   LIG d   1       1.051  82.373 115.678  0.00  0.00    -0.368 OA
BRANCH   7   8
ATOM      8  C   LIG d   1       0.861  82.550 117.104  0.00  0.00     0.119 C 
BRANCH   8   9
ATOM      9  C   LIG d   1       0.571  84.043 117.350  0.00  0.00     0.028 C 
ATOM     10  C   LIG d   1      -0.424  84.265 118.502  0.00  0.00     0.006 C 
ENDBRANCH   8   9
BRANCH   8  11
ATOM     11  C   LIG d   1       2.150  82.255 117.877  0.00  0.00     0.028 C 
ATOM     12  C   LIG d   1       3.397  82.857 117.211  0.00  0.00     0.006 C 
ENDBRANCH   8  11
ENDBRANCH   7   8
ENDBRANCH   1   7
BRANCH   6  13
ATOM     13  N   LIG d   1       1.660  84.579 113.717  0.00  0.00    -0.311 N 
ATOM     14  C   LIG d   1       2.821  84.753 113.088  0.00  0.00     0.210 C 
ATOM     15  C   LIG d   1       3.595  86.010 113.497  0.00  0.00     0.109 C 
ATOM     16  O   LIG d   1       3.268  84.003 112.208  0.00  0.00    -0.276 OA
ATOM     17  H   LIG d   1       1.359  85.253 114.393  0.00  0.00     0.149 HD
ENDBRANCH   6  13
BRANCH   5  18
ATOM     18  N   LIG d   1       0.307  83.933 111.055  0.00  0.00     0.381 N 
ATOM     19  H   LIG d   1      -0.231  84.616 110.560  0.00  0.00    -0.090 HD
ATOM     20  H   LIG d   1       0.286  83.076 110.532  0.00  0.00    -0.090 HD
ATOM     21  H   LIG d   1       1.247  84.248 111.154  0.00  0.00    -0.090 HD
ENDBRANCH   5  18
BRANCH   3  22
ATOM     22  C   LIG d   1      -3.000  81.477 113.499  0.00  0.00     0.382 C 
ATOM     23  O   LIG d   1      -3.261  80.577 114.333  0.00  0.00    -0.241 OA
ATOM     24  O   LIG d   1      -3.855  81.796 112.652  0.00  0.00    -0.241 OA
ENDBRANCH   3  22
TORSDOF 7
ENDMDL
MODEL 4
REMARK VINA RESULT:      -4.9      8.724     11.446
REMARK  7 active torsions:
REMARK  status: ('A' for Active; 'I' for Inactive)
REMARK    1  A    between atoms: C_2  and  C_3 
REMARK    2  A    between atoms: C_3  and  O_6 
REMARK    3  A    between atoms: C_3  and  C_4 
REMARK    4  A    between atoms: C_7  and  O_6 
REMARK    5  A    between atoms: C_9  and  C_10 
REMARK    6  A    between atoms: N_15  and  C_14 
REMARK    7  A    between atoms: N_20  and  C_19 
REMARK       I    between atoms: C_22  and  N_20 
ROOT
ATOM      1  C   LIG d   1       9.795  79.529 115.692  0.00  0.00     0.161 C 
ATOM      2  C   LIG d   1      11.006  79.866 115.064  0.00  0.00     0.016 C 
ATOM      3  C   LIG d   1      11.681  79.010 114.164  0.00  0.00     0.038 C 
ATOM      4  C   LIG d   1      11.111  77.810 113.713  0.00  0.00     0.028 C 
ATOM      5  C   LIG d   1      10.129  77.196 114.704  0.00  0.00    -0.047 C 
ATOM      6  C   LIG d   1       9.102  78.271 115.126  0.00  0.00     0.091 C 
ENDROOT
BRANCH   1   7
ATOM      7  O   LIG d   1       8.896  80.655 115.658  0.00  0.00    -0.368 OA
BRANCH   7   8
ATOM      8  C   LIG d   1       9.339  81.845 116.355  0.00  0.00     0.119 C 
BRANCH   8   9
ATOM      9  C   LIG d   1       8.859  81.732 117.815  0.00  0.00     0.028 C 
ATOM     10  C   LIG d   1      10.021  81.532 118.801  0.00  0.00     0.006 C 
ENDBRANCH   8   9
BRANCH   8  11
ATOM     11  C   LIG d   1       8.660  83.101 115.800  0.00  0.00     0.028 C 
ATOM     12  C   LIG d   1       8.954  84.356 116.636  0.00  0.00     0.006 C 
ENDBRANCH   8  11
ENDBRANCH   7   8
ENDBRANCH   1   7
BRANCH   6  13
ATOM     13  N   LIG d   1       8.155  77.777 116.160  0.00  0.00    -0.311 N 
ATOM     14  C   LIG d   1       6.973  77.235 115.872  0.00  0.00     0.210 C 
ATOM     15  C   LIG d   1       6.144  76.809 117.087  0.00  0.00     0.109 C 
ATOM     16  O   LIG d   1       6.547  77.037 114.724  0.00  0.00    -0.276 OA
ATOM     17  H   LIG d   1       8.435  77.870 117.117  0.00  0.00     0.149 HD
ENDBRANCH   6  13
BRANCH   5  18
ATOM     18  N   LIG d   1       9.508  76.028 114.051  0.00  0.00     0.381 N 
ATOM     19  H   LIG d   1       8.921  76.333 113.300  0.00  0.00    -0.090 HD
ATOM     20  H   LIG d   1       8.936  75.546 114.722  0.00  0.00    -0.090 HD
ATOM     21  H   LIG d   1      10.213  75.416 113.704  0.00  0.00    -0.090 HD
ENDBRANCH   5  18
BRANCH   3  22
ATOM     22  C   LIG d   1      12.960  79.332 113.737  0.00  0.00     0.382 C 
ATOM     23  O   LIG d   1      13.870  79.532 114.578  0.00  0.00    -0.241 OA
ATOM     24  O   LIG d   1      13.206  79.469 112.524  0.00  0.00    -0.241 OA
ENDBRANCH   3  22
TORSDOF 7
ENDMDL
MODEL 5
REMARK VINA RESULT:      -4.9     10.250     12.671
REMARK  7 active torsions:
REMARK  status: ('A' for Active; 'I' for Inactive)
REMARK    1  A    between atoms: C_2  and  C_3 
REMARK    2  A    between atoms: C_3  and  O_6 
REMARK    3  A    between atoms: C_3  and  C_4 
REMARK    4  A    between atoms: C_7  and  O_6 
REMARK    5  A    between atoms: C_9  and  C_10 
REMARK    6  A    between atoms: N_15  and  C_14 
REMARK    7  A    between atoms: N_20  and  C_19 
REMARK       I    between atoms: C_22  and  N_20 
ROOT
ATOM      1  C   LIG d   1       9.863  77.104 114.045  0.00  0.00     0.161 C 
ATOM      2  C   LIG d   1      11.060  77.571 113.476  0.00  0.00     0.016 C 
ATOM      3  C   LIG d   1      11.625  78.831 113.778  0.00  0.00     0.038 C 
ATOM      4  C   LIG d   1      11.108  79.652 114.791  0.00  0.00     0.028 C 
ATOM      5  C   LIG d   1       9.617  79.447 115.035  0.00  0.00    -0.047 C 
ATOM      6  C   LIG d   1       9.344  77.938 115.235  0.00  0.00     0.091 C 
ENDROOT
BRANCH   1   7
ATOM      7  O   LIG d   1      10.012  75.723 114.428  0.00  0.00    -0.368 OA
BRANCH   7   8
ATOM      8  C   LIG d   1      11.232  75.383 115.131  0.00  0.00     0.119 C 
BRANCH   8   9
ATOM      9  C   LIG d   1      11.757  74.062 114.536  0.00  0.00     0.028 C 
ATOM     10  C   LIG d   1      11.086  72.829 115.164  0.00  0.00     0.006 C 
ENDBRANCH   8   9
BRANCH   8  11
ATOM     11  C   LIG d   1      10.960  75.084 116.608  0.00  0.00     0.028 C 
ATOM     12  C   LIG d   1      11.520  76.163 117.548  0.00  0.00     0.006 C 
ENDBRANCH   8  11
ENDBRANCH   7   8
ENDBRANCH   1   7
BRANCH   6  13
ATOM     13  N   LIG d   1       7.897  77.640 115.396  0.00  0.00    -0.311 N 
ATOM     14  C   LIG d   1       7.375  77.120 116.505  0.00  0.00     0.210 C 
ATOM     15  C   LIG d   1       5.864  76.872 116.454  0.00  0.00     0.109 C 
ATOM     16  O   LIG d   1       8.014  76.870 117.538  0.00  0.00    -0.276 OA
ATOM     17  H   LIG d   1       7.301  77.841 114.617  0.00  0.00     0.149 HD
ENDBRANCH   6  13
BRANCH   5  18
ATOM     18  N   LIG d   1       9.240  80.262 116.206  0.00  0.00     0.381 N 
ATOM     19  H   LIG d   1       9.467  81.221 116.037  0.00  0.00    -0.090 HD
ATOM     20  H   LIG d   1       9.766  79.949 117.003  0.00  0.00    -0.090 HD
ATOM     21  H   LIG d   1       8.265  80.170 116.386  0.00  0.00    -0.090 HD
ENDBRANCH   5  18
BRANCH   3  22
ATOM     22  C   LIG d   1      12.698  79.299 113.035  0.00  0.00     0.382 C 
ATOM     23  O   LIG d   1      13.683  79.818 113.613  0.00  0.00    -0.241 OA
ATOM     24  O   LIG d   1      12.674  79.250 111.790  0.00  0.00    -0.241 OA
ENDBRANCH   3  22
TORSDOF 7
ENDMDL
MODEL 6
REMARK VINA RESULT:      -4.8      4.187      6.849
REMARK  7 active torsions:
REMARK  status: ('A' for Active; 'I' for Inactive)
REMARK    1  A    between atoms: C_2  and  C_3 
REMARK    2  A    between atoms: C_3  and  O_6 
REMARK    3  A    between atoms: C_3  and  C_4 
REMARK    4  A    between atoms: C_7  and  O_6 
REMARK    5  A    between atoms: C_9  and  C_10 
REMARK    6  A    between atoms: N_15  and  C_14 
REMARK    7  A    between atoms: N_20  and  C_19 
REMARK       I    between atoms: C_22  and  N_20 
ROOT
ATOM      1  C   LIG d   1       4.334  86.229 116.118  0.00  0.00     0.161 C 
ATOM      2  C   LIG d   1       3.394  87.218 115.785  0.00  0.00     0.016 C 
ATOM      3  C   LIG d   1       3.674  88.603 115.824  0.00  0.00     0.038 C 
ATOM      4  C   LIG d   1       4.969  89.091 116.056  0.00  0.00     0.028 C 
ATOM      5  C   LIG d   1       5.830  88.150 116.892  0.00  0.00    -0.047 C 
ATOM      6  C   LIG d   1       5.783  86.738 116.266  0.00  0.00     0.091 C 
ENDROOT
BRANCH   1   7
ATOM      7  O   LIG d   1       4.275  85.155 115.159  0.00  0.00    -0.368 OA
BRANCH   7   8
ATOM      8  C   LIG d   1       3.116  85.139 114.290  0.00  0.00     0.119 C 
BRANCH   8   9
ATOM      9  C   LIG d   1       2.356  83.826 114.556  0.00  0.00     0.028 C 
ATOM     10  C   LIG d   1       1.277  83.547 113.496  0.00  0.00     0.006 C 
ENDBRANCH   8   9
BRANCH   8  11
ATOM     11  C   LIG d   1       3.526  85.079 112.815  0.00  0.00     0.028 C 
ATOM     12  C   LIG d   1       3.814  86.466 112.220  0.00  0.00     0.006 C 
ENDBRANCH   8  11
ENDBRANCH   7   8
ENDBRANCH   1   7
BRANCH   6  13
ATOM     13  N   LIG d   1       6.532  85.737 117.070  0.00  0.00    -0.311 N 
ATOM     14  C   LIG d   1       7.820  85.459 116.879  0.00  0.00     0.210 C 
ATOM     15  C   LIG d   1       8.393  84.380 117.804  0.00  0.00     0.109 C 
ATOM     16  O   LIG d   1       8.551  86.026 116.054  0.00  0.00    -0.276 OA
ATOM     17  H   LIG d   1       6.023  85.252 117.783  0.00  0.00     0.149 HD
ENDBRANCH   6  13
BRANCH   5  18
ATOM     18  N   LIG d   1       7.191  88.717 116.940  0.00  0.00     0.381 N 
ATOM     19  H   LIG d   1       7.365  89.251 116.112  0.00  0.00    -0.090 HD
ATOM     20  H   LIG d   1       7.855  87.964 116.975  0.00  0.00    -0.090 HD
ATOM     21  H   LIG d   1       7.291  89.296 117.744  0.00  0.00    -0.090 HD
ENDBRANCH   5  18
BRANCH   3  22
ATOM     22  C   LIG d   1       2.643  89.517 115.669  0.00  0.00     0.382 C 
ATOM     23  O   LIG d   1       1.709  89.279 114.866  0.00  0.00    -0.241 OA
ATOM     24  O   LIG d   1       2.659  90.598 116.288  0.00  0.00    -0.241 OA
ENDBRANCH   3  22
TORSDOF 7
ENDMDL
MODEL 7
REMARK VINA RESULT:      -4.6      3.419      5.814
REMARK  7 active torsions:
REMARK  status: ('A' for Active; 'I' for Inactive)
REMARK    1  A    between atoms: C_2  and  C_3 
REMARK    2  A    between atoms: C_3  and  O_6 
REMARK    3  A    between atoms: C_3  and  C_4 
REMARK    4  A    between atoms: C_7  and  O_6 
REMARK    5  A    between atoms: C_9  and  C_10 
REMARK    6  A    between atoms: N_15  and  C_14 
REMARK    7  A    between atoms: N_20  and  C_19 
REMARK       I    between atoms: C_22  and  N_20 
ROOT
ATOM      1  C   LIG d   1      -2.292  80.272 114.514  0.00  0.00     0.161 C 
ATOM      2  C   LIG d   1      -2.886  79.120 115.056  0.00  0.00     0.016 C 
ATOM      3  C   LIG d   1      -3.027  77.908 114.342  0.00  0.00     0.038 C 
ATOM      4  C   LIG d   1      -2.445  77.719 113.080  0.00  0.00     0.028 C 
ATOM      5  C   LIG d   1      -2.276  79.013 112.291  0.00  0.00    -0.047 C 
ATOM      6  C   LIG d   1      -1.552  80.051 113.178  0.00  0.00     0.091 C 
ENDROOT
BRANCH   1   7
ATOM      7  O   LIG d   1      -1.409  80.870 115.484  0.00  0.00    -0.368 OA
BRANCH   7   8
ATOM      8  C   LIG d   1      -1.802  82.169 115.989  0.00  0.00     0.119 C 
BRANCH   8   9
ATOM      9  C   LIG d   1      -0.514  82.975 116.247  0.00  0.00     0.028 C 
ATOM     10  C   LIG d   1       0.662  82.495 115.379  0.00  0.00     0.006 C 
ENDBRANCH   8   9
BRANCH   8  11
ATOM     11  C   LIG d   1      -2.488  82.053 117.353  0.00  0.00     0.028 C 
ATOM     12  C   LIG d   1      -4.006  82.278 117.278  0.00  0.00     0.006 C 
ENDBRANCH   8  11
ENDBRANCH   7   8
ENDBRANCH   1   7
BRANCH   6  13
ATOM     13  N   LIG d   1      -1.421  81.373 112.512  0.00  0.00    -0.311 N 
ATOM     14  C   LIG d   1      -0.325  81.761 111.862  0.00  0.00     0.210 C 
ATOM     15  C   LIG d   1      -0.392  83.170 111.265  0.00  0.00     0.109 C 
ATOM     16  O   LIG d   1       0.684  81.059 111.694  0.00  0.00    -0.276 OA
ATOM     17  H   LIG d   1      -2.204  81.993 112.572  0.00  0.00     0.149 HD
ENDBRANCH   6  13
BRANCH   5  18
ATOM     18  N   LIG d   1      -1.534  78.689 111.058  0.00  0.00     0.381 N 
ATOM     19  H   LIG d   1      -1.704  77.737 110.800  0.00  0.00    -0.090 HD
ATOM     20  H   LIG d   1      -0.550  78.798 111.232  0.00  0.00    -0.090 HD
ATOM     21  H   LIG d   1      -1.817  79.296 110.320  0.00  0.00    -0.090 HD
ENDBRANCH   5  18
BRANCH   3  22
ATOM     22  C   LIG d   1      -3.793  76.882 114.875  0.00  0.00     0.382 C 
ATOM     23  O   LIG d   1      -4.367  76.067 114.113  0.00  0.00    -0.241 OA
ATOM     24  O   LIG d   1      -3.953  76.787 116.107  0.00  0.00    -0.241 OA
ENDBRANCH   3  22
TORSDOF 7
ENDMDL
MODEL 8
REMARK VINA RESULT:      -4.5      6.533      9.909
REMARK  7 active torsions:
REMARK  status: ('A' for Active; 'I' for Inactive)
REMARK    1  A    between atoms: C_2  and  C_3 
REMARK    2  A    between atoms: C_3  and  O_6 
REMARK    3  A    between atoms: C_3  and  C_4 
REMARK    4  A    between atoms: C_7  and  O_6 
REMARK    5  A    between atoms: C_9  and  C_10 
REMARK    6  A    between atoms: N_15  and  C_14 
REMARK    7  A    between atoms: N_20  and  C_19 
REMARK       I    between atoms: C_22  and  N_20 
ROOT
ATOM      1  C   LIG d   1      -3.416  76.576 116.733  0.00  0.00     0.161 C 
ATOM      2  C   LIG d   1      -3.643  77.805 116.091  0.00  0.00     0.016 C 
ATOM      3  C   LIG d   1      -2.606  78.622 115.586  0.00  0.00     0.038 C 
ATOM      4  C   LIG d   1      -1.271  78.191 115.553  0.00  0.00     0.028 C 
ATOM      5  C   LIG d   1      -0.935  77.179 116.644  0.00  0.00    -0.047 C 
ATOM      6  C   LIG d   1      -1.975  76.037 116.607  0.00  0.00     0.091 C 
ENDROOT
BRANCH   1   7
ATOM      7  O   LIG d   1      -4.360  75.595 116.259  0.00  0.00    -0.368 OA
BRANCH   7   8
ATOM      8  C   LIG d   1      -5.676  75.633 116.864  0.00  0.00     0.119 C 
BRANCH   8   9
ATOM      9  C   LIG d   1      -5.733  74.511 117.919  0.00  0.00     0.028 C 
ATOM     10  C   LIG d   1      -5.116  73.197 117.412  0.00  0.00     0.006 C 
ENDBRANCH   8   9
BRANCH   8  11
ATOM     11  C   LIG d   1      -6.768  75.289 115.847  0.00  0.00     0.028 C 
ATOM     12  C   LIG d   1      -8.179  75.642 116.344  0.00  0.00     0.006 C 
ENDBRANCH   8  11
ENDBRANCH   7   8
ENDBRANCH   1   7
BRANCH   6  13
ATOM     13  N   LIG d   1      -1.769  75.047 117.696  0.00  0.00    -0.311 N 
ATOM     14  C   LIG d   1      -1.410  73.783 117.479  0.00  0.00     0.210 C 
ATOM     15  C   LIG d   1      -1.271  72.925 118.741  0.00  0.00     0.109 C 
ATOM     16  O   LIG d   1      -1.161  73.300 116.365  0.00  0.00    -0.276 OA
ATOM     17  H   LIG d   1      -1.919  75.363 118.634  0.00  0.00     0.149 HD
ENDBRANCH   6  13
BRANCH   5  18
ATOM     18  N   LIG d   1       0.445  76.713 116.408  0.00  0.00     0.381 N 
ATOM     19  H   LIG d   1       0.470  76.127 115.598  0.00  0.00    -0.090 HD
ATOM     20  H   LIG d   1       0.744  76.170 117.199  0.00  0.00    -0.090 HD
ATOM     21  H   LIG d   1       1.052  77.493 116.282  0.00  0.00    -0.090 HD
ENDBRANCH   5  18
BRANCH   3  22
ATOM     22  C   LIG d   1      -2.895  79.903 115.142  0.00  0.00     0.382 C 
ATOM     23  O   LIG d   1      -3.434  80.072 114.022  0.00  0.00    -0.241 OA
ATOM     24  O   LIG d   1      -2.584  80.895 115.829  0.00  0.00    -0.241 OA
ENDBRANCH   3  22
TORSDOF 7
ENDMDL
MODEL 9
REMARK VINA RESULT:      -4.5     12.609     14.427
REMARK  7 active torsions:
REMARK  status: ('A' for Active; 'I' for Inactive)
REMARK    1  A    between atoms: C_2  and  C_3 
REMARK    2  A    between atoms: C_3  and  O_6 
REMARK    3  A    between atoms: C_3  and  C_4 
REMARK    4  A    between atoms: C_7  and  O_6 
REMARK    5  A    between atoms: C_9  and  C_10 
REMARK    6  A    between atoms: N_15  and  C_14 
REMARK    7  A    between atoms: N_20  and  C_19 
REMARK       I    between atoms: C_22  and  N_20 
ROOT
ATOM      1  C   LIG d   1      11.873  75.453 115.677  0.00  0.00     0.161 C 
ATOM      2  C   LIG d   1      10.516  75.517 115.321  0.00  0.00     0.016 C 
ATOM      3  C   LIG d   1       9.992  76.468 114.415  0.00  0.00     0.038 C 
ATOM      4  C   LIG d   1      10.823  77.330 113.683  0.00  0.00     0.028 C 
ATOM      5  C   LIG d   1      12.141  77.641 114.384  0.00  0.00    -0.047 C 
ATOM      6  C   LIG d   1      12.811  76.313 114.805  0.00  0.00     0.091 C 
ENDROOT
BRANCH   1   7
ATOM      7  O   LIG d   1      12.313  74.081 115.683  0.00  0.00    -0.368 OA
BRANCH   7   8
ATOM      8  C   LIG d   1      11.873  73.266 114.569  0.00  0.00     0.119 C 
BRANCH   8   9
ATOM      9  C   LIG d   1      11.506  71.877 115.128  0.00  0.00     0.028 C 
ATOM     10  C   LIG d   1       9.991  71.615 115.098  0.00  0.00     0.006 C 
ENDBRANCH   8   9
BRANCH   8  11
ATOM     11  C   LIG d   1      13.014  73.015 113.578  0.00  0.00     0.028 C 
ATOM     12  C   LIG d   1      13.322  71.521 113.390  0.00  0.00     0.006 C 
ENDBRANCH   8  11
ENDBRANCH   7   8
ENDBRANCH   1   7
BRANCH   6  13
ATOM     13  N   LIG d   1      14.066  76.530 115.572  0.00  0.00    -0.311 N 
ATOM     14  C   LIG d   1      15.274  76.546 115.012  0.00  0.00     0.210 C 
ATOM     15  C   LIG d   1      16.435  76.765 115.986  0.00  0.00     0.109 C 
ATOM     16  O   LIG d   1      15.492  76.432 113.796  0.00  0.00    -0.276 OA
ATOM     17  H   LIG d   1      13.979  76.662 116.560  0.00  0.00     0.149 HD
ENDBRANCH   6  13
BRANCH   5  18
ATOM     18  N   LIG d   1      12.964  78.435 113.453  0.00  0.00     0.381 N 
ATOM     19  H   LIG d   1      12.461  78.589 112.602  0.00  0.00    -0.090 HD
ATOM     20  H   LIG d   1      13.799  77.920 113.237  0.00  0.00    -0.090 HD
ATOM     21  H   LIG d   1      13.203  79.309 113.868  0.00  0.00    -0.090 HD
ENDBRANCH   5  18
BRANCH   3  22
ATOM     22  C   LIG d   1       8.620  76.590 114.263  0.00  0.00     0.382 C 
ATOM     23  O   LIG d   1       7.948  75.622 113.831  0.00  0.00    -0.241 OA
ATOM     24  O   LIG d   1       8.050  77.670 114.511  0.00  0.00    -0.241 OA
ENDBRANCH   3  22
TORSDOF 7
ENDMDL
