MODEL 1
REMARK VINA RESULT:      -6.0      0.000      0.000
REMARK  7 active torsions:
REMARK  status: ('A' for Active; 'I' for Inactive)
REMARK    1  A    between atoms: C_2  and  C_3 
REMARK    2  A    between atoms: C_3  and  O_6 
REMARK    3  A    between atoms: C_3  and  C_4 
REMARK    4  A    between atoms: C_7  and  O_6 
REMARK    5  A    between atoms: C_9  and  C_10 
REMARK    6  A    between atoms: N_15  and  C_14 
REMARK    7  A    between atoms: N_20  and  C_19 
REMARK       I    between atoms: C_22  and  N_20 
ROOT
ATOM      1  C   LIG d   1      -5.214  75.175 115.570  0.00  0.00     0.161 C 
ATOM      2  C   LIG d   1      -6.028  75.451 114.459  0.00  0.00     0.016 C 
ATOM      3  C   LIG d   1      -5.532  75.962 113.238  0.00  0.00     0.038 C 
ATOM      4  C   LIG d   1      -4.157  76.091 112.993  0.00  0.00     0.028 C 
ATOM      5  C   LIG d   1      -3.333  76.302 114.258  0.00  0.00    -0.047 C 
ATOM      6  C   LIG d   1      -3.698  75.204 115.284  0.00  0.00     0.091 C 
ENDROOT
BRANCH   1   7
ATOM      7  O   LIG d   1      -5.590  73.910 116.150  0.00  0.00    -0.368 OA
BRANCH   7   8
ATOM      8  C   LIG d   1      -6.911  73.421 115.810  0.00  0.00     0.119 C 
BRANCH   8   9
ATOM      9  C   LIG d   1      -7.848  73.766 116.983  0.00  0.00     0.028 C 
ATOM     10  C   LIG d   1      -8.998  74.697 116.561  0.00  0.00     0.006 C 
ENDBRANCH   8   9
BRANCH   8  11
ATOM     11  C   LIG d   1      -6.930  71.893 115.711  0.00  0.00     0.028 C 
ATOM     12  C   LIG d   1      -8.110  71.262 116.468  0.00  0.00     0.006 C 
ENDBRANCH   8  11
ENDBRANCH   7   8
ENDBRANCH   1   7
BRANCH   6  13
ATOM     13  N   LIG d   1      -2.998  75.386 116.582  0.00  0.00    -0.311 N 
ATOM     14  C   LIG d   1      -1.864  74.764 116.897  0.00  0.00     0.210 C 
ATOM     15  C   LIG d   1      -1.320  75.077 118.294  0.00  0.00     0.109 C 
ATOM     16  O   LIG d   1      -1.239  74.006 116.139  0.00  0.00    -0.276 OA
ATOM     17  H   LIG d   1      -3.420  76.008 117.244  0.00  0.00     0.149 HD
ENDBRANCH   6  13
BRANCH   5  18
ATOM     18  N   LIG d   1      -1.909  76.281 113.872  0.00  0.00     0.381 N 
ATOM     19  H   LIG d   1      -1.365  76.763 114.559  0.00  0.00    -0.090 HD
ATOM     20  H   LIG d   1      -1.804  76.759 112.994  0.00  0.00    -0.090 HD
ATOM     21  H   LIG d   1      -1.593  75.340 113.786  0.00  0.00    -0.090 HD
ENDBRANCH   5  18
BRANCH   3  22
ATOM     22  C   LIG d   1      -6.418  76.389 112.261  0.00  0.00     0.382 C 
ATOM     23  O   LIG d   1      -7.552  76.818 112.586  0.00  0.00    -0.241 OA
ATOM     24  O   LIG d   1      -6.116  76.309 111.055  0.00  0.00    -0.241 OA
ENDBRANCH   3  22
TORSDOF 7
ENDMDL
MODEL 2
REMARK VINA RESULT:      -5.8      3.609      5.053
REMARK  7 active torsions:
REMARK  status: ('A' for Active; 'I' for Inactive)
REMARK    1  A    between atoms: C_2  and  C_3 
REMARK    2  A    between atoms: C_3  and  O_6 
REMARK    3  A    between atoms: C_3  and  C_4 
REMARK    4  A    between atoms: C_7  and  O_6 
REMARK    5  A    between atoms: C_9  and  C_10 
REMARK    6  A    between atoms: N_15  and  C_14 
REMARK    7  A    between atoms: N_20  and  C_19 
REMARK       I    between atoms: C_22  and  N_20 
ROOT
ATOM      1  C   LIG d   1      -7.663  75.711 117.665  0.00  0.00     0.161 C 
ATOM      2  C   LIG d   1      -8.984  76.075 117.975  0.00  0.00     0.016 C 
ATOM      3  C   LIG d   1      -9.367  77.390 118.325  0.00  0.00     0.038 C 
ATOM      4  C   LIG d   1      -8.475  78.470 118.242  0.00  0.00     0.028 C 
ATOM      5  C   LIG d   1      -7.016  78.065 118.422  0.00  0.00    -0.047 C 
ATOM      6  C   LIG d   1      -6.697  76.897 117.461  0.00  0.00     0.091 C 
ENDROOT
BRANCH   1   7
ATOM      7  O   LIG d   1      -7.652  74.851 116.509  0.00  0.00    -0.368 OA
BRANCH   7   8
ATOM      8  C   LIG d   1      -7.588  73.428 116.775  0.00  0.00     0.119 C 
BRANCH   8   9
ATOM      9  C   LIG d   1      -6.466  72.843 115.895  0.00  0.00     0.028 C 
ATOM     10  C   LIG d   1      -5.720  73.926 115.098  0.00  0.00     0.006 C 
ENDBRANCH   8   9
BRANCH   8  11
ATOM     11  C   LIG d   1      -8.868  72.719 116.324  0.00  0.00     0.028 C 
ATOM     12  C   LIG d   1      -8.906  71.238 116.735  0.00  0.00     0.006 C 
ENDBRANCH   8  11
ENDBRANCH   7   8
ENDBRANCH   1   7
BRANCH   6  13
ATOM     13  N   LIG d   1      -5.313  76.384 117.632  0.00  0.00    -0.311 N 
ATOM     14  C   LIG d   1      -4.279  76.804 116.904  0.00  0.00     0.210 C 
ATOM     15  C   LIG d   1      -2.943  76.130 117.229  0.00  0.00     0.109 C 
ATOM     16  O   LIG d   1      -4.337  77.694 116.042  0.00  0.00    -0.276 OA
ATOM     17  H   LIG d   1      -5.170  75.682 118.331  0.00  0.00     0.149 HD
ENDBRANCH   6  13
BRANCH   5  18
ATOM     18  N   LIG d   1      -6.188  79.260 118.175  0.00  0.00     0.381 N 
ATOM     19  H   LIG d   1      -6.702  79.921 117.627  0.00  0.00    -0.090 HD
ATOM     20  H   LIG d   1      -5.371  78.988 117.656  0.00  0.00    -0.090 HD
ATOM     21  H   LIG d   1      -5.918  79.673 119.040  0.00  0.00    -0.090 HD
ENDBRANCH   5  18
BRANCH   3  22
ATOM     22  C   LIG d   1     -10.647  77.629 118.803  0.00  0.00     0.382 C 
ATOM     23  O   LIG d   1     -11.532  76.747 118.692  0.00  0.00    -0.241 OA
ATOM     24  O   LIG d   1     -10.938  78.731 119.305  0.00  0.00    -0.241 OA
ENDBRANCH   3  22
TORSDOF 7
ENDMDL
MODEL 3
REMARK VINA RESULT:      -5.8      2.835      5.594
REMARK  7 active torsions:
REMARK  status: ('A' for Active; 'I' for Inactive)
REMARK    1  A    between atoms: C_2  and  C_3 
REMARK    2  A    between atoms: C_3  and  O_6 
REMARK    3  A    between atoms: C_3  and  C_4 
REMARK    4  A    between atoms: C_7  and  O_6 
REMARK    5  A    between atoms: C_9  and  C_10 
REMARK    6  A    between atoms: N_15  and  C_14 
REMARK    7  A    between atoms: N_20  and  C_19 
REMARK       I    between atoms: C_22  and  N_20 
ROOT
ATOM      1  C   LIG d   1      -6.111  75.621 115.446  0.00  0.00     0.161 C 
ATOM      2  C   LIG d   1      -6.710  74.367 115.243  0.00  0.00     0.016 C 
ATOM      3  C   LIG d   1      -7.597  73.769 116.167  0.00  0.00     0.038 C 
ATOM      4  C   LIG d   1      -8.067  74.458 117.296  0.00  0.00     0.028 C 
ATOM      5  C   LIG d   1      -7.100  75.524 117.800  0.00  0.00    -0.047 C 
ATOM      6  C   LIG d   1      -6.697  76.435 116.619  0.00  0.00     0.091 C 
ENDROOT
BRANCH   1   7
ATOM      7  O   LIG d   1      -6.160  76.390 114.228  0.00  0.00    -0.368 OA
BRANCH   7   8
ATOM      8  C   LIG d   1      -5.387  75.874 113.117  0.00  0.00     0.119 C 
BRANCH   8   9
ATOM      9  C   LIG d   1      -3.944  76.391 113.278  0.00  0.00     0.028 C 
ATOM     10  C   LIG d   1      -3.571  77.432 112.209  0.00  0.00     0.006 C 
ENDBRANCH   8   9
BRANCH   8  11
ATOM     11  C   LIG d   1      -5.876  76.447 111.784  0.00  0.00     0.028 C 
ATOM     12  C   LIG d   1      -7.363  76.837 111.812  0.00  0.00     0.006 C 
ENDBRANCH   8  11
ENDBRANCH   7   8
ENDBRANCH   1   7
BRANCH   6  13
ATOM     13  N   LIG d   1      -5.687  77.454 117.008  0.00  0.00    -0.311 N 
ATOM     14  C   LIG d   1      -6.005  78.668 117.454  0.00  0.00     0.210 C 
ATOM     15  C   LIG d   1      -4.811  79.571 117.780  0.00  0.00     0.109 C 
ATOM     16  O   LIG d   1      -7.163  79.072 117.642  0.00  0.00    -0.276 OA
ATOM     17  H   LIG d   1      -4.723  77.200 116.917  0.00  0.00     0.149 HD
ENDBRANCH   6  13
BRANCH   5  18
ATOM     18  N   LIG d   1      -7.772  76.255 118.891  0.00  0.00     0.381 N 
ATOM     19  H   LIG d   1      -7.232  77.058 119.144  0.00  0.00    -0.090 HD
ATOM     20  H   LIG d   1      -7.838  75.653 119.693  0.00  0.00    -0.090 HD
ATOM     21  H   LIG d   1      -8.683  76.536 118.602  0.00  0.00    -0.090 HD
ENDBRANCH   5  18
BRANCH   3  22
ATOM     22  C   LIG d   1      -7.994  72.453 115.987  0.00  0.00     0.382 C 
ATOM     23  O   LIG d   1      -7.137  71.568 115.749  0.00  0.00    -0.241 OA
ATOM     24  O   LIG d   1      -9.201  72.147 116.015  0.00  0.00    -0.241 OA
ENDBRANCH   3  22
TORSDOF 7
ENDMDL
MODEL 4
REMARK VINA RESULT:      -5.8      2.408      4.211
REMARK  7 active torsions:
REMARK  status: ('A' for Active; 'I' for Inactive)
REMARK    1  A    between atoms: C_2  and  C_3 
REMARK    2  A    between atoms: C_3  and  O_6 
REMARK    3  A    between atoms: C_3  and  C_4 
REMARK    4  A    between atoms: C_7  and  O_6 
REMARK    5  A    between atoms: C_9  and  C_10 
REMARK    6  A    between atoms: N_15  and  C_14 
REMARK    7  A    between atoms: N_20  and  C_19 
REMARK       I    between atoms: C_22  and  N_20 
ROOT
ATOM      1  C   LIG d   1      -6.367  75.914 115.148  0.00  0.00     0.161 C 
ATOM      2  C   LIG d   1      -5.223  75.568 114.411  0.00  0.00     0.016 C 
ATOM      3  C   LIG d   1      -3.907  75.879 114.825  0.00  0.00     0.038 C 
ATOM      4  C   LIG d   1      -3.637  76.428 116.088  0.00  0.00     0.028 C 
ATOM      5  C   LIG d   1      -4.791  77.253 116.648  0.00  0.00    -0.047 C 
ATOM      6  C   LIG d   1      -6.087  76.414 116.581  0.00  0.00     0.091 C 
ENDROOT
BRANCH   1   7
ATOM      7  O   LIG d   1      -7.285  74.803 115.177  0.00  0.00    -0.368 OA
BRANCH   7   8
ATOM      8  C   LIG d   1      -7.194  73.930 116.330  0.00  0.00     0.119 C 
BRANCH   8   9
ATOM      9  C   LIG d   1      -6.717  72.552 115.831  0.00  0.00     0.028 C 
ATOM     10  C   LIG d   1      -7.708  71.428 116.176  0.00  0.00     0.006 C 
ENDBRANCH   8   9
BRANCH   8  11
ATOM     11  C   LIG d   1      -8.572  73.682 116.951  0.00  0.00     0.028 C 
ATOM     12  C   LIG d   1      -9.659  74.605 116.377  0.00  0.00     0.006 C 
ENDBRANCH   8  11
ENDBRANCH   7   8
ENDBRANCH   1   7
BRANCH   6  13
ATOM     13  N   LIG d   1      -7.280  77.177 117.032  0.00  0.00    -0.311 N 
ATOM     14  C   LIG d   1      -7.701  77.200 118.296  0.00  0.00     0.210 C 
ATOM     15  C   LIG d   1      -8.963  78.033 118.542  0.00  0.00     0.109 C 
ATOM     16  O   LIG d   1      -7.130  76.636 119.241  0.00  0.00    -0.276 OA
ATOM     17  H   LIG d   1      -7.785  77.689 116.335  0.00  0.00     0.149 HD
ENDBRANCH   6  13
BRANCH   5  18
ATOM     18  N   LIG d   1      -4.429  77.650 118.022  0.00  0.00     0.381 N 
ATOM     19  H   LIG d   1      -5.231  78.023 118.490  0.00  0.00    -0.090 HD
ATOM     20  H   LIG d   1      -3.727  78.367 117.979  0.00  0.00    -0.090 HD
ATOM     21  H   LIG d   1      -4.080  76.862 118.523  0.00  0.00    -0.090 HD
ENDBRANCH   5  18
BRANCH   3  22
ATOM     22  C   LIG d   1      -2.847  75.677 113.955  0.00  0.00     0.382 C 
ATOM     23  O   LIG d   1      -1.866  74.981 114.312  0.00  0.00    -0.241 OA
ATOM     24  O   LIG d   1      -2.838  76.219 112.833  0.00  0.00    -0.241 OA
ENDBRANCH   3  22
TORSDOF 7
ENDMDL
MODEL 5
REMARK VINA RESULT:      -5.8      1.782      2.387
REMARK  7 active torsions:
REMARK  status: ('A' for Active; 'I' for Inactive)
REMARK    1  A    between atoms: C_2  and  C_3 
REMARK    2  A    between atoms: C_3  and  O_6 
REMARK    3  A    between atoms: C_3  and  C_4 
REMARK    4  A    between atoms: C_7  and  O_6 
REMARK    5  A    between atoms: C_9  and  C_10 
REMARK    6  A    between atoms: N_15  and  C_14 
REMARK    7  A    between atoms: N_20  and  C_19 
REMARK       I    between atoms: C_22  and  N_20 
ROOT
ATOM      1  C   LIG d   1      -3.489  75.662 115.326  0.00  0.00     0.161 C 
ATOM      2  C   LIG d   1      -3.880  76.304 114.139  0.00  0.00     0.016 C 
ATOM      3  C   LIG d   1      -2.964  76.784 113.176  0.00  0.00     0.038 C 
ATOM      4  C   LIG d   1      -1.589  76.517 113.262  0.00  0.00     0.028 C 
ATOM      5  C   LIG d   1      -1.101  76.313 114.693  0.00  0.00    -0.047 C 
ATOM      6  C   LIG d   1      -2.000  75.263 115.385  0.00  0.00     0.091 C 
ENDROOT
BRANCH   1   7
ATOM      7  O   LIG d   1      -4.326  74.511 115.557  0.00  0.00    -0.368 OA
BRANCH   7   8
ATOM      8  C   LIG d   1      -5.754  74.756 115.582  0.00  0.00     0.119 C 
BRANCH   8   9
ATOM      9  C   LIG d   1      -6.084  75.435 116.925  0.00  0.00     0.028 C 
ATOM     10  C   LIG d   1      -6.601  76.872 116.745  0.00  0.00     0.006 C 
ENDBRANCH   8   9
BRANCH   8  11
ATOM     11  C   LIG d   1      -6.544  73.444 115.585  0.00  0.00     0.028 C 
ATOM     12  C   LIG d   1      -7.987  73.618 116.085  0.00  0.00     0.006 C 
ENDBRANCH   8  11
ENDBRANCH   7   8
ENDBRANCH   1   7
BRANCH   6  13
ATOM     13  N   LIG d   1      -1.644  75.066 116.815  0.00  0.00    -0.311 N 
ATOM     14  C   LIG d   1      -0.847  74.089 117.243  0.00  0.00     0.210 C 
ATOM     15  C   LIG d   1      -0.625  74.054 118.759  0.00  0.00     0.109 C 
ATOM     16  O   LIG d   1      -0.277  73.268 116.509  0.00  0.00    -0.276 OA
ATOM     17  H   LIG d   1      -2.037  75.707 117.475  0.00  0.00     0.149 HD
ENDBRANCH   6  13
BRANCH   5  18
ATOM     18  N   LIG d   1       0.316  75.908 114.627  0.00  0.00     0.381 N 
ATOM     19  H   LIG d   1       0.903  76.699 114.800  0.00  0.00    -0.090 HD
ATOM     20  H   LIG d   1       0.513  75.565 113.703  0.00  0.00    -0.090 HD
ATOM     21  H   LIG d   1       0.498  75.195 115.299  0.00  0.00    -0.090 HD
ENDBRANCH   5  18
BRANCH   3  22
ATOM     22  C   LIG d   1      -3.416  77.574 112.130  0.00  0.00     0.382 C 
ATOM     23  O   LIG d   1      -2.872  78.680 111.899  0.00  0.00    -0.241 OA
ATOM     24  O   LIG d   1      -4.391  77.214 111.442  0.00  0.00    -0.241 OA
ENDBRANCH   3  22
TORSDOF 7
ENDMDL
MODEL 6
REMARK VINA RESULT:      -5.7      3.058      5.817
REMARK  7 active torsions:
REMARK  status: ('A' for Active; 'I' for Inactive)
REMARK    1  A    between atoms: C_2  and  C_3 
REMARK    2  A    between atoms: C_3  and  O_6 
REMARK    3  A    between atoms: C_3  and  C_4 
REMARK    4  A    between atoms: C_7  and  O_6 
REMARK    5  A    between atoms: C_9  and  C_10 
REMARK    6  A    between atoms: N_15  and  C_14 
REMARK    7  A    between atoms: N_20  and  C_19 
REMARK       I    between atoms: C_22  and  N_20 
ROOT
ATOM      1  C   LIG d   1      -6.693  75.564 116.317  0.00  0.00     0.161 C 
ATOM      2  C   LIG d   1      -6.713  74.195 116.003  0.00  0.00     0.016 C 
ATOM      3  C   LIG d   1      -7.822  73.355 116.255  0.00  0.00     0.038 C 
ATOM      4  C   LIG d   1      -9.051  73.864 116.702  0.00  0.00     0.028 C 
ATOM      5  C   LIG d   1      -8.916  75.152 117.506  0.00  0.00    -0.047 C 
ATOM      6  C   LIG d   1      -8.063  76.159 116.702  0.00  0.00     0.091 C 
ENDROOT
BRANCH   1   7
ATOM      7  O   LIG d   1      -6.113  76.307 115.226  0.00  0.00    -0.368 OA
BRANCH   7   8
ATOM      8  C   LIG d   1      -6.114  75.649 113.935  0.00  0.00     0.119 C 
BRANCH   8   9
ATOM      9  C   LIG d   1      -4.711  75.830 113.322  0.00  0.00     0.028 C 
ATOM     10  C   LIG d   1      -3.694  76.378 114.337  0.00  0.00     0.006 C 
ENDBRANCH   8   9
BRANCH   8  11
ATOM     11  C   LIG d   1      -7.074  76.336 112.960  0.00  0.00     0.028 C 
ATOM     12  C   LIG d   1      -6.513  76.423 111.532  0.00  0.00     0.006 C 
ENDBRANCH   8  11
ENDBRANCH   7   8
ENDBRANCH   1   7
BRANCH   6  13
ATOM     13  N   LIG d   1      -7.812  77.417 117.454  0.00  0.00    -0.311 N 
ATOM     14  C   LIG d   1      -7.186  77.456 118.629  0.00  0.00     0.210 C 
ATOM     15  C   LIG d   1      -7.049  78.853 119.242  0.00  0.00     0.109 C 
ATOM     16  O   LIG d   1      -6.703  76.470 119.206  0.00  0.00    -0.276 OA
ATOM     17  H   LIG d   1      -8.143  78.268 117.043  0.00  0.00     0.149 HD
ENDBRANCH   6  13
BRANCH   5  18
ATOM     18  N   LIG d   1     -10.277  75.644 117.790  0.00  0.00     0.381 N 
ATOM     19  H   LIG d   1     -10.454  75.604 118.774  0.00  0.00    -0.090 HD
ATOM     20  H   LIG d   1     -10.941  75.050 117.326  0.00  0.00    -0.090 HD
ATOM     21  H   LIG d   1     -10.376  76.581 117.466  0.00  0.00    -0.090 HD
ENDBRANCH   5  18
BRANCH   3  22
ATOM     22  C   LIG d   1      -7.695  71.983 116.097  0.00  0.00     0.382 C 
ATOM     23  O   LIG d   1      -6.651  71.504 115.592  0.00  0.00    -0.241 OA
ATOM     24  O   LIG d   1      -8.630  71.222 116.412  0.00  0.00    -0.241 OA
ENDBRANCH   3  22
TORSDOF 7
ENDMDL
MODEL 7
REMARK VINA RESULT:      -5.5     12.213     14.561
REMARK  7 active torsions:
REMARK  status: ('A' for Active; 'I' for Inactive)
REMARK    1  A    between atoms: C_2  and  C_3 
REMARK    2  A    between atoms: C_3  and  O_6 
REMARK    3  A    between atoms: C_3  and  C_4 
REMARK    4  A    between atoms: C_7  and  O_6 
REMARK    5  A    between atoms: C_9  and  C_10 
REMARK    6  A    between atoms: N_15  and  C_14 
REMARK    7  A    between atoms: N_20  and  C_19 
REMARK       I    between atoms: C_22  and  N_20 
ROOT
ATOM      1  C   LIG d   1       3.487  85.611 112.746  0.00  0.00     0.161 C 
ATOM      2  C   LIG d   1       4.119  86.825 113.063  0.00  0.00     0.016 C 
ATOM      3  C   LIG d   1       3.563  88.092 112.770  0.00  0.00     0.038 C 
ATOM      4  C   LIG d   1       2.259  88.232 112.273  0.00  0.00     0.028 C 
ATOM      5  C   LIG d   1       1.783  87.026 111.470  0.00  0.00    -0.047 C 
ATOM      6  C   LIG d   1       2.014  85.745 112.304  0.00  0.00     0.091 C 
ENDROOT
BRANCH   1   7
ATOM      7  O   LIG d   1       3.596  84.699 113.856  0.00  0.00    -0.368 OA
BRANCH   7   8
ATOM      8  C   LIG d   1       3.483  85.285 115.176  0.00  0.00     0.119 C 
BRANCH   8   9
ATOM      9  C   LIG d   1       4.406  84.486 116.117  0.00  0.00     0.028 C 
ATOM     10  C   LIG d   1       4.695  85.234 117.429  0.00  0.00     0.006 C 
ENDBRANCH   8   9
BRANCH   8  11
ATOM     11  C   LIG d   1       2.073  85.108 115.746  0.00  0.00     0.028 C 
ATOM     12  C   LIG d   1       1.336  86.444 115.937  0.00  0.00     0.006 C 
ENDBRANCH   8  11
ENDBRANCH   7   8
ENDBRANCH   1   7
BRANCH   6  13
ATOM     13  N   LIG d   1       1.654  84.511 111.559  0.00  0.00    -0.311 N 
ATOM     14  C   LIG d   1       0.710  83.661 111.960  0.00  0.00     0.210 C 
ATOM     15  C   LIG d   1       0.512  82.441 111.055  0.00  0.00     0.109 C 
ATOM     16  O   LIG d   1      -0.004  83.819 112.961  0.00  0.00    -0.276 OA
ATOM     17  H   LIG d   1       2.162  84.322 110.717  0.00  0.00     0.149 HD
ENDBRANCH   6  13
BRANCH   5  18
ATOM     18  N   LIG d   1       0.365  87.247 111.131  0.00  0.00     0.381 N 
ATOM     19  H   LIG d   1      -0.091  86.368 110.992  0.00  0.00    -0.090 HD
ATOM     20  H   LIG d   1       0.313  87.768 110.273  0.00  0.00    -0.090 HD
ATOM     21  H   LIG d   1      -0.086  87.752 111.862  0.00  0.00    -0.090 HD
ENDBRANCH   5  18
BRANCH   3  22
ATOM     22  C   LIG d   1       4.330  89.234 112.938  0.00  0.00     0.382 C 
ATOM     23  O   LIG d   1       5.572  89.187 112.762  0.00  0.00    -0.241 OA
ATOM     24  O   LIG d   1       3.803  90.301 113.307  0.00  0.00    -0.241 OA
ENDBRANCH   3  22
TORSDOF 7
ENDMDL
MODEL 8
REMARK VINA RESULT:      -5.5      2.359      4.993
REMARK  7 active torsions:
REMARK  status: ('A' for Active; 'I' for Inactive)
REMARK    1  A    between atoms: C_2  and  C_3 
REMARK    2  A    between atoms: C_3  and  O_6 
REMARK    3  A    between atoms: C_3  and  C_4 
REMARK    4  A    between atoms: C_7  and  O_6 
REMARK    5  A    between atoms: C_9  and  C_10 
REMARK    6  A    between atoms: N_15  and  C_14 
REMARK    7  A    between atoms: N_20  and  C_19 
REMARK       I    between atoms: C_22  and  N_20 
ROOT
ATOM      1  C   LIG d   1      -5.106  74.303 115.793  0.00  0.00     0.161 C 
ATOM      2  C   LIG d   1      -6.111  73.345 115.579  0.00  0.00     0.016 C 
ATOM      3  C   LIG d   1      -7.377  73.391 116.207  0.00  0.00     0.038 C 
ATOM      4  C   LIG d   1      -7.780  74.489 116.982  0.00  0.00     0.028 C 
ATOM      5  C   LIG d   1      -6.617  75.231 117.632  0.00  0.00    -0.047 C 
ATOM      6  C   LIG d   1      -5.567  75.566 116.549  0.00  0.00     0.091 C 
ENDROOT
BRANCH   1   7
ATOM      7  O   LIG d   1      -4.499  74.663 114.537  0.00  0.00    -0.368 OA
BRANCH   7   8
ATOM      8  C   LIG d   1      -4.938  75.914 113.953  0.00  0.00     0.119 C 
BRANCH   8   9
ATOM      9  C   LIG d   1      -5.974  75.578 112.863  0.00  0.00     0.028 C 
ATOM     10  C   LIG d   1      -6.059  76.664 111.778  0.00  0.00     0.006 C 
ENDBRANCH   8   9
BRANCH   8  11
ATOM     11  C   LIG d   1      -3.793  76.620 113.220  0.00  0.00     0.028 C 
ATOM     12  C   LIG d   1      -2.439  76.450 113.927  0.00  0.00     0.006 C 
ENDBRANCH   8  11
ENDBRANCH   7   8
ENDBRANCH   1   7
BRANCH   6  13
ATOM     13  N   LIG d   1      -4.358  76.219 117.114  0.00  0.00    -0.311 N 
ATOM     14  C   LIG d   1      -4.178  77.539 117.132  0.00  0.00     0.210 C 
ATOM     15  C   LIG d   1      -2.851  78.002 117.743  0.00  0.00     0.109 C 
ATOM     16  O   LIG d   1      -5.004  78.371 116.729  0.00  0.00    -0.276 OA
ATOM     17  H   LIG d   1      -3.650  75.620 117.491  0.00  0.00     0.149 HD
ENDBRANCH   6  13
BRANCH   5  18
ATOM     18  N   LIG d   1      -7.168  76.429 118.294  0.00  0.00     0.381 N 
ATOM     19  H   LIG d   1      -8.152  76.317 118.433  0.00  0.00    -0.090 HD
ATOM     20  H   LIG d   1      -7.021  77.225 117.699  0.00  0.00    -0.090 HD
ATOM     21  H   LIG d   1      -6.716  76.572 119.171  0.00  0.00    -0.090 HD
ENDBRANCH   5  18
BRANCH   3  22
ATOM     22  C   LIG d   1      -8.239  72.311 116.095  0.00  0.00     0.382 C 
ATOM     23  O   LIG d   1      -9.468  72.505 115.932  0.00  0.00    -0.241 OA
ATOM     24  O   LIG d   1      -7.811  71.147 116.201  0.00  0.00    -0.241 OA
ENDBRANCH   3  22
TORSDOF 7
ENDMDL
MODEL 9
REMARK VINA RESULT:      -5.2      3.317      4.723
REMARK  7 active torsions:
REMARK  status: ('A' for Active; 'I' for Inactive)
REMARK    1  A    between atoms: C_2  and  C_3 
REMARK    2  A    between atoms: C_3  and  O_6 
REMARK    3  A    between atoms: C_3  and  C_4 
REMARK    4  A    between atoms: C_7  and  O_6 
REMARK    5  A    between atoms: C_9  and  C_10 
REMARK    6  A    between atoms: N_15  and  C_14 
REMARK    7  A    between atoms: N_20  and  C_19 
REMARK       I    between atoms: C_22  and  N_20 
ROOT
ATOM      1  C   LIG d   1      -6.742  75.502 118.109  0.00  0.00     0.161 C 
ATOM      2  C   LIG d   1      -8.140  75.643 118.141  0.00  0.00     0.016 C 
ATOM      3  C   LIG d   1      -8.797  76.893 118.064  0.00  0.00     0.038 C 
ATOM      4  C   LIG d   1      -8.102  78.081 117.797  0.00  0.00     0.028 C 
ATOM      5  C   LIG d   1      -6.649  78.051 118.261  0.00  0.00    -0.047 C 
ATOM      6  C   LIG d   1      -5.972  76.777 117.706  0.00  0.00     0.091 C 
ENDROOT
BRANCH   1   7
ATOM      7  O   LIG d   1      -6.382  74.405 117.247  0.00  0.00    -0.368 OA
BRANCH   7   8
ATOM      8  C   LIG d   1      -7.178  74.250 116.046  0.00  0.00     0.119 C 
BRANCH   8   9
ATOM      9  C   LIG d   1      -7.503  72.751 115.896  0.00  0.00     0.028 C 
ATOM     10  C   LIG d   1      -8.975  72.435 116.211  0.00  0.00     0.006 C 
ENDBRANCH   8   9
BRANCH   8  11
ATOM     11  C   LIG d   1      -6.376  74.618 114.794  0.00  0.00     0.028 C 
ATOM     12  C   LIG d   1      -6.875  75.907 114.124  0.00  0.00     0.006 C 
ENDBRANCH   8  11
ENDBRANCH   7   8
ENDBRANCH   1   7
BRANCH   6  13
ATOM     13  N   LIG d   1      -4.572  76.626 118.182  0.00  0.00    -0.311 N 
ATOM     14  C   LIG d   1      -3.513  77.031 117.484  0.00  0.00     0.210 C 
ATOM     15  C   LIG d   1      -2.159  76.762 118.149  0.00  0.00     0.109 C 
ATOM     16  O   LIG d   1      -3.567  77.617 116.393  0.00  0.00    -0.276 OA
ATOM     17  H   LIG d   1      -4.438  76.189 119.073  0.00  0.00     0.149 HD
ENDBRANCH   6  13
BRANCH   5  18
ATOM     18  N   LIG d   1      -6.007  79.295 117.797  0.00  0.00     0.381 N 
ATOM     19  H   LIG d   1      -6.085  80.000 118.503  0.00  0.00    -0.090 HD
ATOM     20  H   LIG d   1      -6.483  79.619 116.973  0.00  0.00    -0.090 HD
ATOM     21  H   LIG d   1      -5.047  79.127 117.590  0.00  0.00    -0.090 HD
ENDBRANCH   5  18
BRANCH   3  22
ATOM     22  C   LIG d   1     -10.162  76.966 118.296  0.00  0.00     0.382 C 
ATOM     23  O   LIG d   1     -10.671  78.036 118.709  0.00  0.00    -0.241 OA
ATOM     24  O   LIG d   1     -10.885  75.963 118.139  0.00  0.00    -0.241 OA
ENDBRANCH   3  22
TORSDOF 7
ENDMDL
