MODEL 1
REMARK VINA RESULT:      -5.4      0.000      0.000
REMARK  7 active torsions:
REMARK  status: ('A' for Active; 'I' for Inactive)
REMARK    1  A    between atoms: C_2  and  C_3 
REMARK    2  A    between atoms: C_3  and  O_6 
REMARK    3  A    between atoms: C_3  and  C_4 
REMARK    4  A    between atoms: C_7  and  O_6 
REMARK    5  A    between atoms: C_9  and  C_10 
REMARK    6  A    between atoms: N_15  and  C_14 
REMARK    7  A    between atoms: N_20  and  C_19 
REMARK       I    between atoms: C_22  and  N_20 
ROOT
ATOM      1  C   LIG d   1      -6.685  90.995 118.225  0.00  0.00     0.161 C 
ATOM      2  C   LIG d   1      -7.483  92.144 118.099  0.00  0.00     0.016 C 
ATOM      3  C   LIG d   1      -7.005  93.453 118.339  0.00  0.00     0.038 C 
ATOM      4  C   LIG d   1      -5.648  93.715 118.576  0.00  0.00     0.028 C 
ATOM      5  C   LIG d   1      -4.906  92.543 119.209  0.00  0.00    -0.047 C 
ATOM      6  C   LIG d   1      -5.174  91.270 118.374  0.00  0.00     0.091 C 
ENDROOT
BRANCH   1   7
ATOM      7  O   LIG d   1      -6.925  90.109 117.114  0.00  0.00    -0.368 OA
BRANCH   7   8
ATOM      8  C   LIG d   1      -7.044  90.736 115.813  0.00  0.00     0.119 C 
BRANCH   8   9
ATOM      9  C   LIG d   1      -8.080  89.931 115.004  0.00  0.00     0.028 C 
ATOM     10  C   LIG d   1      -8.983  89.068 115.901  0.00  0.00     0.006 C 
ENDBRANCH   8   9
BRANCH   8  11
ATOM     11  C   LIG d   1      -5.738  90.627 115.021  0.00  0.00     0.028 C 
ATOM     12  C   LIG d   1      -5.041  89.270 115.204  0.00  0.00     0.006 C 
ENDBRANCH   8  11
ENDBRANCH   7   8
ENDBRANCH   1   7
BRANCH   6  13
ATOM     13  N   LIG d   1      -4.554  90.059 118.972  0.00  0.00    -0.311 N 
ATOM     14  C   LIG d   1      -3.389  89.556 118.567  0.00  0.00     0.210 C 
ATOM     15  C   LIG d   1      -2.940  88.290 119.305  0.00  0.00     0.109 C 
ATOM     16  O   LIG d   1      -2.670  90.055 117.689  0.00  0.00    -0.276 OA
ATOM     17  H   LIG d   1      -5.055  89.608 119.713  0.00  0.00     0.149 HD
ENDBRANCH   6  13
BRANCH   5  18
ATOM     18  N   LIG d   1      -3.477  92.902 119.274  0.00  0.00     0.381 N 
ATOM     19  H   LIG d   1      -3.373  93.807 119.688  0.00  0.00    -0.090 HD
ATOM     20  H   LIG d   1      -3.108  92.939 118.340  0.00  0.00    -0.090 HD
ATOM     21  H   LIG d   1      -2.979  92.225 119.809  0.00  0.00    -0.090 HD
ENDBRANCH   5  18
BRANCH   3  22
ATOM     22  C   LIG d   1      -7.898  94.513 118.382  0.00  0.00     0.382 C 
ATOM     23  O   LIG d   1      -7.500  95.654 118.720  0.00  0.00    -0.241 OA
ATOM     24  O   LIG d   1      -9.104  94.334 118.129  0.00  0.00    -0.241 OA
ENDBRANCH   3  22
TORSDOF 7
ENDMDL
MODEL 2
REMARK VINA RESULT:      -5.0     18.257     21.192
REMARK  7 active torsions:
REMARK  status: ('A' for Active; 'I' for Inactive)
REMARK    1  A    between atoms: C_2  and  C_3 
REMARK    2  A    between atoms: C_3  and  O_6 
REMARK    3  A    between atoms: C_3  and  C_4 
REMARK    4  A    between atoms: C_7  and  O_6 
REMARK    5  A    between atoms: C_9  and  C_10 
REMARK    6  A    between atoms: N_15  and  C_14 
REMARK    7  A    between atoms: N_20  and  C_19 
REMARK       I    between atoms: C_22  and  N_20 
ROOT
ATOM      1  C   LIG d   1     -25.753  85.497 113.894  0.00  0.00     0.161 C 
ATOM      2  C   LIG d   1     -24.738  86.460 114.022  0.00  0.00     0.016 C 
ATOM      3  C   LIG d   1     -23.384  86.211 113.700  0.00  0.00     0.038 C 
ATOM      4  C   LIG d   1     -22.976  85.021 113.080  0.00  0.00     0.028 C 
ATOM      5  C   LIG d   1     -23.879  83.833 113.396  0.00  0.00    -0.047 C 
ATOM      6  C   LIG d   1     -25.346  84.229 113.115  0.00  0.00     0.091 C 
ENDROOT
BRANCH   1   7
ATOM      7  O   LIG d   1     -26.922  86.096 113.301  0.00  0.00    -0.368 OA
BRANCH   7   8
ATOM      8  C   LIG d   1     -26.848  87.520 113.045  0.00  0.00     0.119 C 
BRANCH   8   9
ATOM      9  C   LIG d   1     -28.092  88.170 113.683  0.00  0.00     0.028 C 
ATOM     10  C   LIG d   1     -29.074  87.130 114.246  0.00  0.00     0.006 C 
ENDBRANCH   8   9
BRANCH   8  11
ATOM     11  C   LIG d   1     -26.955  87.823 111.548  0.00  0.00     0.028 C 
ATOM     12  C   LIG d   1     -26.910  89.328 111.239  0.00  0.00     0.006 C 
ENDBRANCH   8  11
ENDBRANCH   7   8
ENDBRANCH   1   7
BRANCH   6  13
ATOM     13  N   LIG d   1     -26.303  83.152 113.478  0.00  0.00    -0.311 N 
ATOM     14  C   LIG d   1     -26.705  82.210 112.626  0.00  0.00     0.210 C 
ATOM     15  C   LIG d   1     -27.711  81.207 113.198  0.00  0.00     0.109 C 
ATOM     16  O   LIG d   1     -26.300  82.092 111.460  0.00  0.00    -0.276 OA
ATOM     17  H   LIG d   1     -26.659  83.154 114.414  0.00  0.00     0.149 HD
ENDBRANCH   6  13
BRANCH   5  18
ATOM     18  N   LIG d   1     -23.420  82.694 112.578  0.00  0.00     0.381 N 
ATOM     19  H   LIG d   1     -23.782  82.777 111.650  0.00  0.00    -0.090 HD
ATOM     20  H   LIG d   1     -23.772  81.843 112.980  0.00  0.00    -0.090 HD
ATOM     21  H   LIG d   1     -22.424  82.672 112.554  0.00  0.00    -0.090 HD
ENDBRANCH   5  18
BRANCH   3  22
ATOM     22  C   LIG d   1     -22.415  87.145 114.035  0.00  0.00     0.382 C 
ATOM     23  O   LIG d   1     -21.283  87.095 113.495  0.00  0.00    -0.241 OA
ATOM     24  O   LIG d   1     -22.643  88.009 114.903  0.00  0.00    -0.241 OA
ENDBRANCH   3  22
TORSDOF 7
ENDMDL
MODEL 3
REMARK VINA RESULT:      -4.9      8.540     11.703
REMARK  7 active torsions:
REMARK  status: ('A' for Active; 'I' for Inactive)
REMARK    1  A    between atoms: C_2  and  C_3 
REMARK    2  A    between atoms: C_3  and  O_6 
REMARK    3  A    between atoms: C_3  and  C_4 
REMARK    4  A    between atoms: C_7  and  O_6 
REMARK    5  A    between atoms: C_9  and  C_10 
REMARK    6  A    between atoms: N_15  and  C_14 
REMARK    7  A    between atoms: N_20  and  C_19 
REMARK       I    between atoms: C_22  and  N_20 
ROOT
ATOM      1  C   LIG d   1       2.805  86.322 114.571  0.00  0.00     0.161 C 
ATOM      2  C   LIG d   1       3.364  87.532 114.126  0.00  0.00     0.016 C 
ATOM      3  C   LIG d   1       4.034  87.671 112.889  0.00  0.00     0.038 C 
ATOM      4  C   LIG d   1       4.059  86.639 111.940  0.00  0.00     0.028 C 
ATOM      5  C   LIG d   1       3.947  85.247 112.554  0.00  0.00    -0.047 C 
ATOM      6  C   LIG d   1       2.726  85.214 113.501  0.00  0.00     0.091 C 
ENDROOT
BRANCH   1   7
ATOM      7  O   LIG d   1       1.503  86.565 115.139  0.00  0.00    -0.368 OA
BRANCH   7   8
ATOM      8  C   LIG d   1       1.457  86.748 116.575  0.00  0.00     0.119 C 
BRANCH   8   9
ATOM      9  C   LIG d   1       0.824  85.482 117.184  0.00  0.00     0.028 C 
ATOM     10  C   LIG d   1       1.879  84.476 117.675  0.00  0.00     0.006 C 
ENDBRANCH   8   9
BRANCH   8  11
ATOM     11  C   LIG d   1       0.520  87.896 116.961  0.00  0.00     0.028 C 
ATOM     12  C   LIG d   1      -0.792  87.406 117.594  0.00  0.00     0.006 C 
ENDBRANCH   8  11
ENDBRANCH   7   8
ENDBRANCH   1   7
BRANCH   6  13
ATOM     13  N   LIG d   1       2.593  83.914 114.208  0.00  0.00    -0.311 N 
ATOM     14  C   LIG d   1       1.772  82.943 113.810  0.00  0.00     0.210 C 
ATOM     15  C   LIG d   1       1.773  81.692 114.694  0.00  0.00     0.109 C 
ATOM     16  O   LIG d   1       1.066  82.987 112.791  0.00  0.00    -0.276 OA
ATOM     17  H   LIG d   1       3.152  83.781 115.028  0.00  0.00     0.149 HD
ENDBRANCH   6  13
BRANCH   5  18
ATOM     18  N   LIG d   1       3.848  84.278 111.447  0.00  0.00     0.381 N 
ATOM     19  H   LIG d   1       3.451  83.422 111.780  0.00  0.00    -0.090 HD
ATOM     20  H   LIG d   1       4.771  84.084 111.100  0.00  0.00    -0.090 HD
ATOM     21  H   LIG d   1       3.282  84.652 110.716  0.00  0.00    -0.090 HD
ENDBRANCH   5  18
BRANCH   3  22
ATOM     22  C   LIG d   1       4.723  88.841 112.609  0.00  0.00     0.382 C 
ATOM     23  O   LIG d   1       5.926  88.791 112.255  0.00  0.00    -0.241 OA
ATOM     24  O   LIG d   1       4.170  89.948 112.748  0.00  0.00    -0.241 OA
ENDBRANCH   3  22
TORSDOF 7
ENDMDL
MODEL 4
REMARK VINA RESULT:      -4.9     11.473     12.340
REMARK  7 active torsions:
REMARK  status: ('A' for Active; 'I' for Inactive)
REMARK    1  A    between atoms: C_2  and  C_3 
REMARK    2  A    between atoms: C_3  and  O_6 
REMARK    3  A    between atoms: C_3  and  C_4 
REMARK    4  A    between atoms: C_7  and  O_6 
REMARK    5  A    between atoms: C_9  and  C_10 
REMARK    6  A    between atoms: N_15  and  C_14 
REMARK    7  A    between atoms: N_20  and  C_19 
REMARK       I    between atoms: C_22  and  N_20 
ROOT
ATOM      1  C   LIG d   1       2.791  84.576 113.026  0.00  0.00     0.161 C 
ATOM      2  C   LIG d   1       3.235  85.704 112.315  0.00  0.00     0.016 C 
ATOM      3  C   LIG d   1       3.956  86.764 112.910  0.00  0.00     0.038 C 
ATOM      4  C   LIG d   1       4.417  86.697 114.233  0.00  0.00     0.028 C 
ATOM      5  C   LIG d   1       3.561  85.807 115.128  0.00  0.00    -0.047 C 
ATOM      6  C   LIG d   1       3.380  84.433 114.444  0.00  0.00     0.091 C 
ENDROOT
BRANCH   1   7
ATOM      7  O   LIG d   1       3.042  83.384 112.256  0.00  0.00    -0.368 OA
BRANCH   7   8
ATOM      8  C   LIG d   1       1.902  82.824 111.558  0.00  0.00     0.119 C 
BRANCH   8   9
ATOM      9  C   LIG d   1       0.635  83.476 112.143  0.00  0.00     0.028 C 
ATOM     10  C   LIG d   1      -0.379  83.870 111.055  0.00  0.00     0.006 C 
ENDBRANCH   8   9
BRANCH   8  11
ATOM     11  C   LIG d   1       1.756  81.326 111.842  0.00  0.00     0.028 C 
ATOM     12  C   LIG d   1       0.951  81.038 113.119  0.00  0.00     0.006 C 
ENDBRANCH   8  11
ENDBRANCH   7   8
ENDBRANCH   1   7
BRANCH   6  13
ATOM     13  N   LIG d   1       2.484  83.530 115.214  0.00  0.00    -0.311 N 
ATOM     14  C   LIG d   1       2.930  82.584 116.039  0.00  0.00     0.210 C 
ATOM     15  C   LIG d   1       1.838  81.752 116.719  0.00  0.00     0.109 C 
ATOM     16  O   LIG d   1       4.125  82.377 116.298  0.00  0.00    -0.276 OA
ATOM     17  H   LIG d   1       1.498  83.650 115.088  0.00  0.00     0.149 HD
ENDBRANCH   6  13
BRANCH   5  18
ATOM     18  N   LIG d   1       4.230  85.717 116.439  0.00  0.00     0.381 N 
ATOM     19  H   LIG d   1       4.867  84.945 116.442  0.00  0.00    -0.090 HD
ATOM     20  H   LIG d   1       3.537  85.557 117.149  0.00  0.00    -0.090 HD
ATOM     21  H   LIG d   1       4.722  86.563 116.630  0.00  0.00    -0.090 HD
ENDBRANCH   5  18
BRANCH   3  22
ATOM     22  C   LIG d   1       4.189  87.926 112.190  0.00  0.00     0.382 C 
ATOM     23  O   LIG d   1       3.224  88.600 111.757  0.00  0.00    -0.241 OA
ATOM     24  O   LIG d   1       5.353  88.285 111.930  0.00  0.00    -0.241 OA
ENDBRANCH   3  22
TORSDOF 7
ENDMDL
MODEL 5
REMARK VINA RESULT:      -4.7     18.126     20.753
REMARK  7 active torsions:
REMARK  status: ('A' for Active; 'I' for Inactive)
REMARK    1  A    between atoms: C_2  and  C_3 
REMARK    2  A    between atoms: C_3  and  O_6 
REMARK    3  A    between atoms: C_3  and  C_4 
REMARK    4  A    between atoms: C_7  and  O_6 
REMARK    5  A    between atoms: C_9  and  C_10 
REMARK    6  A    between atoms: N_15  and  C_14 
REMARK    7  A    between atoms: N_20  and  C_19 
REMARK       I    between atoms: C_22  and  N_20 
ROOT
ATOM      1  C   LIG d   1     -24.037  83.669 113.719  0.00  0.00     0.161 C 
ATOM      2  C   LIG d   1     -23.167  84.716 114.067  0.00  0.00     0.016 C 
ATOM      3  C   LIG d   1     -23.458  86.080 113.833  0.00  0.00     0.038 C 
ATOM      4  C   LIG d   1     -24.713  86.501 113.369  0.00  0.00     0.028 C 
ATOM      5  C   LIG d   1     -25.434  85.449 112.532  0.00  0.00    -0.047 C 
ATOM      6  C   LIG d   1     -25.457  84.116 113.314  0.00  0.00     0.091 C 
ENDROOT
BRANCH   1   7
ATOM      7  O   LIG d   1     -24.100  82.710 114.793  0.00  0.00    -0.368 OA
BRANCH   7   8
ATOM      8  C   LIG d   1     -23.683  83.184 116.097  0.00  0.00     0.119 C 
BRANCH   8   9
ATOM      9  C   LIG d   1     -23.227  81.958 116.911  0.00  0.00     0.028 C 
ATOM     10  C   LIG d   1     -21.834  82.153 117.535  0.00  0.00     0.006 C 
ENDBRANCH   8   9
BRANCH   8  11
ATOM     11  C   LIG d   1     -24.860  83.775 116.879  0.00  0.00     0.028 C 
ATOM     12  C   LIG d   1     -24.552  85.163 117.462  0.00  0.00     0.006 C 
ENDBRANCH   8  11
ENDBRANCH   7   8
ENDBRANCH   1   7
BRANCH   6  13
ATOM     13  N   LIG d   1     -26.070  83.011 112.532  0.00  0.00    -0.311 N 
ATOM     14  C   LIG d   1     -27.358  82.682 112.613  0.00  0.00     0.210 C 
ATOM     15  C   LIG d   1     -27.780  81.499 111.736  0.00  0.00     0.109 C 
ATOM     16  O   LIG d   1     -28.199  83.280 113.302  0.00  0.00    -0.276 OA
ATOM     17  H   LIG d   1     -25.467  82.494 111.923  0.00  0.00     0.149 HD
ENDBRANCH   6  13
BRANCH   5  18
ATOM     18  N   LIG d   1     -26.782  85.966 112.231  0.00  0.00     0.381 N 
ATOM     19  H   LIG d   1     -27.436  85.620 112.905  0.00  0.00    -0.090 HD
ATOM     20  H   LIG d   1     -27.061  85.639 111.323  0.00  0.00    -0.090 HD
ATOM     21  H   LIG d   1     -26.777  86.963 112.245  0.00  0.00    -0.090 HD
ENDBRANCH   5  18
BRANCH   3  22
ATOM     22  C   LIG d   1     -22.473  87.036 114.026  0.00  0.00     0.382 C 
ATOM     23  O   LIG d   1     -22.684  88.009 114.789  0.00  0.00    -0.241 OA
ATOM     24  O   LIG d   1     -21.392  86.962 113.412  0.00  0.00    -0.241 OA
ENDBRANCH   3  22
TORSDOF 7
ENDMDL
MODEL 6
REMARK VINA RESULT:      -4.6      9.964     12.306
REMARK  7 active torsions:
REMARK  status: ('A' for Active; 'I' for Inactive)
REMARK    1  A    between atoms: C_2  and  C_3 
REMARK    2  A    between atoms: C_3  and  O_6 
REMARK    3  A    between atoms: C_3  and  C_4 
REMARK    4  A    between atoms: C_7  and  O_6 
REMARK    5  A    between atoms: C_9  and  C_10 
REMARK    6  A    between atoms: N_15  and  C_14 
REMARK    7  A    between atoms: N_20  and  C_19 
REMARK       I    between atoms: C_22  and  N_20 
ROOT
ATOM      1  C   LIG d   1       3.837  87.522 114.908  0.00  0.00     0.161 C 
ATOM      2  C   LIG d   1       3.174  86.869 113.855  0.00  0.00     0.016 C 
ATOM      3  C   LIG d   1       3.560  86.988 112.500  0.00  0.00     0.038 C 
ATOM      4  C   LIG d   1       4.735  87.653 112.119  0.00  0.00     0.028 C 
ATOM      5  C   LIG d   1       5.154  88.749 113.094  0.00  0.00    -0.047 C 
ATOM      6  C   LIG d   1       5.187  88.162 114.524  0.00  0.00     0.091 C 
ENDROOT
BRANCH   1   7
ATOM      7  O   LIG d   1       4.010  86.614 116.014  0.00  0.00    -0.368 OA
BRANCH   7   8
ATOM      8  C   LIG d   1       3.099  86.786 117.128  0.00  0.00     0.119 C 
BRANCH   8   9
ATOM      9  C   LIG d   1       3.941  86.795 118.418  0.00  0.00     0.028 C 
ATOM     10  C   LIG d   1       5.301  86.100 118.236  0.00  0.00     0.006 C 
ENDBRANCH   8   9
BRANCH   8  11
ATOM     11  C   LIG d   1       2.156  85.587 117.267  0.00  0.00     0.028 C 
ATOM     12  C   LIG d   1       0.675  85.995 117.315  0.00  0.00     0.006 C 
ENDBRANCH   8  11
ENDBRANCH   7   8
ENDBRANCH   1   7
BRANCH   6  13
ATOM     13  N   LIG d   1       5.507  89.189 115.550  0.00  0.00    -0.311 N 
ATOM     14  C   LIG d   1       6.559  89.110 116.363  0.00  0.00     0.210 C 
ATOM     15  C   LIG d   1       6.692  90.264 117.361  0.00  0.00     0.109 C 
ATOM     16  O   LIG d   1       7.412  88.210 116.331  0.00  0.00    -0.276 OA
ATOM     17  H   LIG d   1       4.884  89.969 115.624  0.00  0.00     0.149 HD
ENDBRANCH   6  13
BRANCH   5  18
ATOM     18  N   LIG d   1       6.462  89.264 112.649  0.00  0.00     0.381 N 
ATOM     19  H   LIG d   1       6.365  90.208 112.332  0.00  0.00    -0.090 HD
ATOM     20  H   LIG d   1       6.788  88.705 111.881  0.00  0.00    -0.090 HD
ATOM     21  H   LIG d   1       7.117  89.225 113.399  0.00  0.00    -0.090 HD
ENDBRANCH   5  18
BRANCH   3  22
ATOM     22  C   LIG d   1       2.743  86.472 111.505  0.00  0.00     0.382 C 
ATOM     23  O   LIG d   1       1.794  87.157 111.055  0.00  0.00    -0.241 OA
ATOM     24  O   LIG d   1       2.917  85.312 111.084  0.00  0.00    -0.241 OA
ENDBRANCH   3  22
TORSDOF 7
ENDMDL
MODEL 7
REMARK VINA RESULT:      -4.6     19.891     22.428
REMARK  7 active torsions:
REMARK  status: ('A' for Active; 'I' for Inactive)
REMARK    1  A    between atoms: C_2  and  C_3 
REMARK    2  A    between atoms: C_3  and  O_6 
REMARK    3  A    between atoms: C_3  and  C_4 
REMARK    4  A    between atoms: C_7  and  O_6 
REMARK    5  A    between atoms: C_9  and  C_10 
REMARK    6  A    between atoms: N_15  and  C_14 
REMARK    7  A    between atoms: N_20  and  C_19 
REMARK       I    between atoms: C_22  and  N_20 
ROOT
ATOM      1  C   LIG d   1      12.850  79.060 114.698  0.00  0.00     0.161 C 
ATOM      2  C   LIG d   1      11.581  78.509 114.452  0.00  0.00     0.016 C 
ATOM      3  C   LIG d   1      10.372  79.194 114.712  0.00  0.00     0.038 C 
ATOM      4  C   LIG d   1      10.352  80.543 115.097  0.00  0.00     0.028 C 
ATOM      5  C   LIG d   1      11.609  80.979 115.842  0.00  0.00    -0.047 C 
ATOM      6  C   LIG d   1      12.849  80.570 115.014  0.00  0.00     0.091 C 
ENDROOT
BRANCH   1   7
ATOM      7  O   LIG d   1      13.728  78.780 113.590  0.00  0.00    -0.368 OA
BRANCH   7   8
ATOM      8  C   LIG d   1      13.118  78.790 112.276  0.00  0.00     0.119 C 
BRANCH   8   9
ATOM      9  C   LIG d   1      14.028  77.975 111.337  0.00  0.00     0.028 C 
ATOM     10  C   LIG d   1      15.327  77.523 112.025  0.00  0.00     0.006 C 
ENDBRANCH   8   9
BRANCH   8  11
ATOM     11  C   LIG d   1      13.089  80.203 111.686  0.00  0.00     0.028 C 
ATOM     12  C   LIG d   1      11.662  80.727 111.463  0.00  0.00     0.006 C 
ENDBRANCH   8  11
ENDBRANCH   7   8
ENDBRANCH   1   7
BRANCH   6  13
ATOM     13  N   LIG d   1      14.124  80.884 115.711  0.00  0.00    -0.311 N 
ATOM     14  C   LIG d   1      15.199  81.366 115.090  0.00  0.00     0.210 C 
ATOM     15  C   LIG d   1      16.415  81.602 115.991  0.00  0.00     0.109 C 
ATOM     16  O   LIG d   1      15.251  81.651 113.884  0.00  0.00    -0.276 OA
ATOM     17  H   LIG d   1      14.159  80.713 116.697  0.00  0.00     0.149 HD
ENDBRANCH   6  13
BRANCH   5  18
ATOM     18  N   LIG d   1      11.515  82.434 116.062  0.00  0.00     0.381 N 
ATOM     19  H   LIG d   1      11.208  82.616 116.996  0.00  0.00    -0.090 HD
ATOM     20  H   LIG d   1      10.835  82.815 115.427  0.00  0.00    -0.090 HD
ATOM     21  H   LIG d   1      12.401  82.861 115.906  0.00  0.00    -0.090 HD
ENDBRANCH   5  18
BRANCH   3  22
ATOM     22  C   LIG d   1       9.166  78.516 114.624  0.00  0.00     0.382 C 
ATOM     23  O   LIG d   1       8.086  79.155 114.623  0.00  0.00    -0.241 OA
ATOM     24  O   LIG d   1       9.142  77.271 114.592  0.00  0.00    -0.241 OA
ENDBRANCH   3  22
TORSDOF 7
ENDMDL
MODEL 8
REMARK VINA RESULT:      -4.6     19.095     22.033
REMARK  7 active torsions:
REMARK  status: ('A' for Active; 'I' for Inactive)
REMARK    1  A    between atoms: C_2  and  C_3 
REMARK    2  A    between atoms: C_3  and  O_6 
REMARK    3  A    between atoms: C_3  and  C_4 
REMARK    4  A    between atoms: C_7  and  O_6 
REMARK    5  A    between atoms: C_9  and  C_10 
REMARK    6  A    between atoms: N_15  and  C_14 
REMARK    7  A    between atoms: N_20  and  C_19 
REMARK       I    between atoms: C_22  and  N_20 
ROOT
ATOM      1  C   LIG d   1      10.861  78.565 114.181  0.00  0.00     0.161 C 
ATOM      2  C   LIG d   1       9.547  78.983 114.453  0.00  0.00     0.016 C 
ATOM      3  C   LIG d   1       8.807  78.540 115.573  0.00  0.00     0.038 C 
ATOM      4  C   LIG d   1       9.387  77.761 116.585  0.00  0.00     0.028 C 
ATOM      5  C   LIG d   1      10.551  76.905 116.098  0.00  0.00    -0.047 C 
ATOM      6  C   LIG d   1      11.549  77.803 115.332  0.00  0.00     0.091 C 
ENDROOT
BRANCH   1   7
ATOM      7  O   LIG d   1      11.660  79.696 113.780  0.00  0.00    -0.368 OA
BRANCH   7   8
ATOM      8  C   LIG d   1      12.385  79.554 112.534  0.00  0.00     0.119 C 
BRANCH   8   9
ATOM      9  C   LIG d   1      13.779  80.180 112.736  0.00  0.00     0.028 C 
ATOM     10  C   LIG d   1      14.890  79.375 112.041  0.00  0.00     0.006 C 
ENDBRANCH   8   9
BRANCH   8  11
ATOM     11  C   LIG d   1      11.733  80.370 111.414  0.00  0.00     0.028 C 
ATOM     12  C   LIG d   1      10.797  81.468 111.943  0.00  0.00     0.006 C 
ENDBRANCH   8  11
ENDBRANCH   7   8
ENDBRANCH   1   7
BRANCH   6  13
ATOM     13  N   LIG d   1      12.677  77.030 114.749  0.00  0.00    -0.311 N 
ATOM     14  C   LIG d   1      13.955  77.262 115.043  0.00  0.00     0.210 C 
ATOM     15  C   LIG d   1      14.959  76.363 114.316  0.00  0.00     0.109 C 
ATOM     16  O   LIG d   1      14.350  78.106 115.862  0.00  0.00    -0.276 OA
ATOM     17  H   LIG d   1      12.444  76.305 114.099  0.00  0.00     0.149 HD
ENDBRANCH   6  13
BRANCH   5  18
ATOM     18  N   LIG d   1      11.149  76.252 117.278  0.00  0.00     0.381 N 
ATOM     19  H   LIG d   1      11.642  76.929 117.826  0.00  0.00    -0.090 HD
ATOM     20  H   LIG d   1      11.806  75.558 116.968  0.00  0.00    -0.090 HD
ATOM     21  H   LIG d   1      10.437  75.824 117.828  0.00  0.00    -0.090 HD
ENDBRANCH   5  18
BRANCH   3  22
ATOM     22  C   LIG d   1       7.457  78.844 115.668  0.00  0.00     0.382 C 
ATOM     23  O   LIG d   1       7.010  79.394 116.703  0.00  0.00    -0.241 OA
ATOM     24  O   LIG d   1       6.674  78.534 114.750  0.00  0.00    -0.241 OA
ENDBRANCH   3  22
TORSDOF 7
ENDMDL
MODEL 9
REMARK VINA RESULT:      -4.4     19.141     21.504
REMARK  7 active torsions:
REMARK  status: ('A' for Active; 'I' for Inactive)
REMARK    1  A    between atoms: C_2  and  C_3 
REMARK    2  A    between atoms: C_3  and  O_6 
REMARK    3  A    between atoms: C_3  and  C_4 
REMARK    4  A    between atoms: C_7  and  O_6 
REMARK    5  A    between atoms: C_9  and  C_10 
REMARK    6  A    between atoms: N_15  and  C_14 
REMARK    7  A    between atoms: N_20  and  C_19 
REMARK       I    between atoms: C_22  and  N_20 
ROOT
ATOM      1  C   LIG d   1      10.487  79.419 114.055  0.00  0.00     0.161 C 
ATOM      2  C   LIG d   1       9.198  79.491 114.610  0.00  0.00     0.016 C 
ATOM      3  C   LIG d   1       8.618  78.447 115.367  0.00  0.00     0.038 C 
ATOM      4  C   LIG d   1       9.350  77.313 115.750  0.00  0.00     0.028 C 
ATOM      5  C   LIG d   1      10.484  76.971 114.789  0.00  0.00    -0.047 C 
ATOM      6  C   LIG d   1      11.342  78.236 114.556  0.00  0.00     0.091 C 
ENDROOT
BRANCH   1   7
ATOM      7  O   LIG d   1      11.181  80.664 114.268  0.00  0.00    -0.368 OA
BRANCH   7   8
ATOM      8  C   LIG d   1      11.732  80.868 115.592  0.00  0.00     0.119 C 
BRANCH   8   9
ATOM      9  C   LIG d   1      11.085  82.141 116.171  0.00  0.00     0.028 C 
ATOM     10  C   LIG d   1      10.250  82.903 115.128  0.00  0.00     0.006 C 
ENDBRANCH   8   9
BRANCH   8  11
ATOM     11  C   LIG d   1      13.233  81.167 115.531  0.00  0.00     0.028 C 
ATOM     12  C   LIG d   1      13.706  82.077 116.676  0.00  0.00     0.006 C 
ENDBRANCH   8  11
ENDBRANCH   7   8
ENDBRANCH   1   7
BRANCH   6  13
ATOM     13  N   LIG d   1      12.424  78.011 113.562  0.00  0.00    -0.311 N 
ATOM     14  C   LIG d   1      13.688  77.760 113.900  0.00  0.00     0.210 C 
ATOM     15  C   LIG d   1      14.648  77.579 112.720  0.00  0.00     0.109 C 
ATOM     16  O   LIG d   1      14.099  77.638 115.064  0.00  0.00    -0.276 OA
ATOM     17  H   LIG d   1      12.173  78.061 112.595  0.00  0.00     0.149 HD
ENDBRANCH   6  13
BRANCH   5  18
ATOM     18  N   LIG d   1      11.247  75.856 115.380  0.00  0.00     0.381 N 
ATOM     19  H   LIG d   1      12.079  76.206 115.812  0.00  0.00    -0.090 HD
ATOM     20  H   LIG d   1      11.515  75.222 114.648  0.00  0.00    -0.090 HD
ATOM     21  H   LIG d   1      10.689  75.380 116.054  0.00  0.00    -0.090 HD
ENDBRANCH   5  18
BRANCH   3  22
ATOM     22  C   LIG d   1       7.277  78.514 115.715  0.00  0.00     0.382 C 
ATOM     23  O   LIG d   1       6.929  78.335 116.907  0.00  0.00    -0.241 OA
ATOM     24  O   LIG d   1       6.408  78.708 114.844  0.00  0.00    -0.241 OA
ENDBRANCH   3  22
TORSDOF 7
ENDMDL
