MODEL 1
REMARK VINA RESULT:      -6.0      0.000      0.000
REMARK  7 active torsions:
REMARK  status: ('A' for Active; 'I' for Inactive)
REMARK    1  A    between atoms: C_2  and  C_3 
REMARK    2  A    between atoms: C_3  and  O_6 
REMARK    3  A    between atoms: C_3  and  C_4 
REMARK    4  A    between atoms: C_7  and  O_6 
REMARK    5  A    between atoms: C_9  and  C_10 
REMARK    6  A    between atoms: N_15  and  C_14 
REMARK    7  A    between atoms: N_20  and  C_19 
REMARK       I    between atoms: C_22  and  N_20 
ROOT
ATOM      1  C   LIG d   1      -8.017  75.866 117.956  0.00  0.00     0.161 C 
ATOM      2  C   LIG d   1      -9.103  76.713 118.231  0.00  0.00     0.016 C 
ATOM      3  C   LIG d   1      -8.997  78.122 118.282  0.00  0.00     0.038 C 
ATOM      4  C   LIG d   1      -7.821  78.791 117.910  0.00  0.00     0.028 C 
ATOM      5  C   LIG d   1      -6.560  77.959 118.115  0.00  0.00    -0.047 C 
ATOM      6  C   LIG d   1      -6.752  76.582 117.439  0.00  0.00     0.091 C 
ENDROOT
BRANCH   1   7
ATOM      7  O   LIG d   1      -8.422  74.836 117.033  0.00  0.00    -0.368 OA
BRANCH   7   8
ATOM      8  C   LIG d   1      -8.614  73.515 117.596  0.00  0.00     0.119 C 
BRANCH   8   9
ATOM      9  C   LIG d   1      -7.523  72.598 117.009  0.00  0.00     0.028 C 
ATOM     10  C   LIG d   1      -8.073  71.224 116.593  0.00  0.00     0.006 C 
ENDBRANCH   8   9
BRANCH   8  11
ATOM     11  C   LIG d   1      -9.944  72.904 117.144  0.00  0.00     0.028 C 
ATOM     12  C   LIG d   1     -10.879  73.932 116.487  0.00  0.00     0.006 C 
ENDBRANCH   8  11
ENDBRANCH   7   8
ENDBRANCH   1   7
BRANCH   6  13
ATOM     13  N   LIG d   1      -5.597  75.674 117.663  0.00  0.00    -0.311 N 
ATOM     14  C   LIG d   1      -4.887  75.133 116.675  0.00  0.00     0.210 C 
ATOM     15  C   LIG d   1      -3.750  74.210 117.126  0.00  0.00     0.109 C 
ATOM     16  O   LIG d   1      -5.070  75.355 115.469  0.00  0.00    -0.276 OA
ATOM     17  H   LIG d   1      -5.359  75.465 118.613  0.00  0.00     0.149 HD
ENDBRANCH   6  13
BRANCH   5  18
ATOM     18  N   LIG d   1      -5.427  78.723 117.560  0.00  0.00     0.381 N 
ATOM     19  H   LIG d   1      -4.670  78.103 117.350  0.00  0.00    -0.090 HD
ATOM     20  H   LIG d   1      -5.112  79.384 118.248  0.00  0.00    -0.090 HD
ATOM     21  H   LIG d   1      -5.711  79.203 116.734  0.00  0.00    -0.090 HD
ENDBRANCH   5  18
BRANCH   3  22
ATOM     22  C   LIG d   1     -10.064  78.875 118.748  0.00  0.00     0.382 C 
ATOM     23  O   LIG d   1     -11.194  78.346 118.880  0.00  0.00    -0.241 OA
ATOM     24  O   LIG d   1      -9.921  80.088 118.995  0.00  0.00    -0.241 OA
ENDBRANCH   3  22
TORSDOF 7
ENDMDL
MODEL 2
REMARK VINA RESULT:      -5.6      1.659      2.115
REMARK  7 active torsions:
REMARK  status: ('A' for Active; 'I' for Inactive)
REMARK    1  A    between atoms: C_2  and  C_3 
REMARK    2  A    between atoms: C_3  and  O_6 
REMARK    3  A    between atoms: C_3  and  C_4 
REMARK    4  A    between atoms: C_7  and  O_6 
REMARK    5  A    between atoms: C_9  and  C_10 
REMARK    6  A    between atoms: N_15  and  C_14 
REMARK    7  A    between atoms: N_20  and  C_19 
REMARK       I    between atoms: C_22  and  N_20 
ROOT
ATOM      1  C   LIG d   1      -7.444  76.993 117.807  0.00  0.00     0.161 C 
ATOM      2  C   LIG d   1      -8.742  77.407 118.149  0.00  0.00     0.016 C 
ATOM      3  C   LIG d   1      -9.102  78.760 118.341  0.00  0.00     0.038 C 
ATOM      4  C   LIG d   1      -8.217  79.811 118.053  0.00  0.00     0.028 C 
ATOM      5  C   LIG d   1      -6.749  79.421 118.191  0.00  0.00    -0.047 C 
ATOM      6  C   LIG d   1      -6.493  78.131 117.380  0.00  0.00     0.091 C 
ENDROOT
BRANCH   1   7
ATOM      7  O   LIG d   1      -7.508  75.982 116.781  0.00  0.00    -0.368 OA
BRANCH   7   8
ATOM      8  C   LIG d   1      -7.311  74.616 117.219  0.00  0.00     0.119 C 
BRANCH   8   9
ATOM      9  C   LIG d   1      -6.409  73.922 116.180  0.00  0.00     0.028 C 
ATOM     10  C   LIG d   1      -6.093  74.828 114.978  0.00  0.00     0.006 C 
ENDBRANCH   8   9
BRANCH   8  11
ATOM     11  C   LIG d   1      -8.626  73.831 117.202  0.00  0.00     0.028 C 
ATOM     12  C   LIG d   1      -8.522  72.478 117.925  0.00  0.00     0.006 C 
ENDBRANCH   8  11
ENDBRANCH   7   8
ENDBRANCH   1   7
BRANCH   6  13
ATOM     13  N   LIG d   1      -5.101  77.634 117.529  0.00  0.00    -0.311 N 
ATOM     14  C   LIG d   1      -4.112  77.964 116.701  0.00  0.00     0.210 C 
ATOM     15  C   LIG d   1      -2.757  77.326 117.023  0.00  0.00     0.109 C 
ATOM     16  O   LIG d   1      -4.220  78.751 115.748  0.00  0.00    -0.276 OA
ATOM     17  H   LIG d   1      -4.917  77.015 118.295  0.00  0.00     0.149 HD
ENDBRANCH   6  13
BRANCH   5  18
ATOM     18  N   LIG d   1      -5.940  80.565 117.730  0.00  0.00     0.381 N 
ATOM     19  H   LIG d   1      -5.753  81.180 118.497  0.00  0.00    -0.090 HD
ATOM     20  H   LIG d   1      -6.461  81.074 117.037  0.00  0.00    -0.090 HD
ATOM     21  H   LIG d   1      -5.083  80.240 117.339  0.00  0.00    -0.090 HD
ENDBRANCH   5  18
BRANCH   3  22
ATOM     22  C   LIG d   1     -10.347  79.073 118.864  0.00  0.00     0.382 C 
ATOM     23  O   LIG d   1     -11.264  78.216 118.855  0.00  0.00    -0.241 OA
ATOM     24  O   LIG d   1     -10.579  80.215 119.304  0.00  0.00    -0.241 OA
ENDBRANCH   3  22
TORSDOF 7
ENDMDL
MODEL 3
REMARK VINA RESULT:      -5.4     15.589     17.755
REMARK  7 active torsions:
REMARK  status: ('A' for Active; 'I' for Inactive)
REMARK    1  A    between atoms: C_2  and  C_3 
REMARK    2  A    between atoms: C_3  and  O_6 
REMARK    3  A    between atoms: C_3  and  C_4 
REMARK    4  A    between atoms: C_7  and  O_6 
REMARK    5  A    between atoms: C_9  and  C_10 
REMARK    6  A    between atoms: N_15  and  C_14 
REMARK    7  A    between atoms: N_20  and  C_19 
REMARK       I    between atoms: C_22  and  N_20 
ROOT
ATOM      1  C   LIG d   1       2.818  88.998 115.635  0.00  0.00     0.161 C 
ATOM      2  C   LIG d   1       2.079  88.211 114.736  0.00  0.00     0.016 C 
ATOM      3  C   LIG d   1       2.540  87.863 113.446  0.00  0.00     0.038 C 
ATOM      4  C   LIG d   1       3.844  88.155 113.021  0.00  0.00     0.028 C 
ATOM      5  C   LIG d   1       4.443  89.381 113.701  0.00  0.00    -0.047 C 
ATOM      6  C   LIG d   1       4.289  89.231 115.232  0.00  0.00     0.091 C 
ENDROOT
BRANCH   1   7
ATOM      7  O   LIG d   1       2.745  88.428 116.957  0.00  0.00    -0.368 OA
BRANCH   7   8
ATOM      8  C   LIG d   1       1.947  89.157 117.922  0.00  0.00     0.119 C 
BRANCH   8   9
ATOM      9  C   LIG d   1       0.645  88.362 118.139  0.00  0.00     0.028 C 
ATOM     10  C   LIG d   1      -0.544  88.964 117.371  0.00  0.00     0.006 C 
ENDBRANCH   8   9
BRANCH   8  11
ATOM     11  C   LIG d   1       1.507  90.515 117.369  0.00  0.00     0.028 C 
ATOM     12  C   LIG d   1       2.129  91.698 118.128  0.00  0.00     0.006 C 
ENDBRANCH   8  11
ENDBRANCH   7   8
ENDBRANCH   1   7
BRANCH   6  13
ATOM     13  N   LIG d   1       4.773  90.427 115.970  0.00  0.00    -0.311 N 
ATOM     14  C   LIG d   1       5.565  90.358 117.038  0.00  0.00     0.210 C 
ATOM     15  C   LIG d   1       5.931  91.709 117.661  0.00  0.00     0.109 C 
ATOM     16  O   LIG d   1       6.026  89.307 117.511  0.00  0.00    -0.276 OA
ATOM     17  H   LIG d   1       4.473  91.322 115.636  0.00  0.00     0.149 HD
ENDBRANCH   6  13
BRANCH   5  18
ATOM     18  N   LIG d   1       5.850  89.488 113.269  0.00  0.00     0.381 N 
ATOM     19  H   LIG d   1       5.902  89.448 112.271  0.00  0.00    -0.090 HD
ATOM     20  H   LIG d   1       6.364  88.710 113.643  0.00  0.00    -0.090 HD
ATOM     21  H   LIG d   1       6.242  90.343 113.596  0.00  0.00    -0.090 HD
ENDBRANCH   5  18
BRANCH   3  22
ATOM     22  C   LIG d   1       1.677  87.251 112.550  0.00  0.00     0.382 C 
ATOM     23  O   LIG d   1       2.003  87.136 111.344  0.00  0.00    -0.241 OA
ATOM     24  O   LIG d   1       0.558  86.851 112.923  0.00  0.00    -0.241 OA
ENDBRANCH   3  22
TORSDOF 7
ENDMDL
MODEL 4
REMARK VINA RESULT:      -5.4     11.897     14.708
REMARK  7 active torsions:
REMARK  status: ('A' for Active; 'I' for Inactive)
REMARK    1  A    between atoms: C_2  and  C_3 
REMARK    2  A    between atoms: C_3  and  O_6 
REMARK    3  A    between atoms: C_3  and  C_4 
REMARK    4  A    between atoms: C_7  and  O_6 
REMARK    5  A    between atoms: C_9  and  C_10 
REMARK    6  A    between atoms: N_15  and  C_14 
REMARK    7  A    between atoms: N_20  and  C_19 
REMARK       I    between atoms: C_22  and  N_20 
ROOT
ATOM      1  C   LIG d   1     -16.906  65.432 114.326  0.00  0.00     0.161 C 
ATOM      2  C   LIG d   1     -16.303  66.212 113.325  0.00  0.00     0.016 C 
ATOM      3  C   LIG d   1     -15.824  67.524 113.544  0.00  0.00     0.038 C 
ATOM      4  C   LIG d   1     -15.779  68.093 114.826  0.00  0.00     0.028 C 
ATOM      5  C   LIG d   1     -16.838  67.537 115.773  0.00  0.00    -0.047 C 
ATOM      6  C   LIG d   1     -16.765  65.993 115.757  0.00  0.00     0.091 C 
ENDROOT
BRANCH   1   7
ATOM      7  O   LIG d   1     -16.401  64.083 114.265  0.00  0.00    -0.368 OA
BRANCH   7   8
ATOM      8  C   LIG d   1     -17.315  63.083 113.752  0.00  0.00     0.119 C 
BRANCH   8   9
ATOM      9  C   LIG d   1     -18.709  63.733 113.661  0.00  0.00     0.028 C 
ATOM     10  C   LIG d   1     -19.337  63.581 112.265  0.00  0.00     0.006 C 
ENDBRANCH   8   9
BRANCH   8  11
ATOM     11  C   LIG d   1     -17.475  61.918 114.734  0.00  0.00     0.028 C 
ATOM     12  C   LIG d   1     -17.950  60.625 114.053  0.00  0.00     0.006 C 
ENDBRANCH   8  11
ENDBRANCH   7   8
ENDBRANCH   1   7
BRANCH   6  13
ATOM     13  N   LIG d   1     -17.822  65.367 116.592  0.00  0.00    -0.311 N 
ATOM     14  C   LIG d   1     -17.576  64.428 117.504  0.00  0.00     0.210 C 
ATOM     15  C   LIG d   1     -18.812  63.902 118.241  0.00  0.00     0.109 C 
ATOM     16  O   LIG d   1     -16.448  64.003 117.795  0.00  0.00    -0.276 OA
ATOM     17  H   LIG d   1     -18.763  65.675 116.443  0.00  0.00     0.149 HD
ENDBRANCH   6  13
BRANCH   5  18
ATOM     18  N   LIG d   1     -16.589  68.114 117.107  0.00  0.00     0.381 N 
ATOM     19  H   LIG d   1     -16.984  67.523 117.811  0.00  0.00    -0.090 HD
ATOM     20  H   LIG d   1     -17.036  69.012 117.162  0.00  0.00    -0.090 HD
ATOM     21  H   LIG d   1     -15.609  68.212 117.259  0.00  0.00    -0.090 HD
ENDBRANCH   5  18
BRANCH   3  22
ATOM     22  C   LIG d   1     -15.421  68.297 112.466  0.00  0.00     0.382 C 
ATOM     23  O   LIG d   1     -15.855  68.045 111.316  0.00  0.00    -0.241 OA
ATOM     24  O   LIG d   1     -14.593  69.215 112.621  0.00  0.00    -0.241 OA
ENDBRANCH   3  22
TORSDOF 7
ENDMDL
MODEL 5
REMARK VINA RESULT:      -5.3     12.150     14.869
REMARK  7 active torsions:
REMARK  status: ('A' for Active; 'I' for Inactive)
REMARK    1  A    between atoms: C_2  and  C_3 
REMARK    2  A    between atoms: C_3  and  O_6 
REMARK    3  A    between atoms: C_3  and  C_4 
REMARK    4  A    between atoms: C_7  and  O_6 
REMARK    5  A    between atoms: C_9  and  C_10 
REMARK    6  A    between atoms: N_15  and  C_14 
REMARK    7  A    between atoms: N_20  and  C_19 
REMARK       I    between atoms: C_22  and  N_20 
ROOT
ATOM      1  C   LIG d   1     -16.728  64.534 115.709  0.00  0.00     0.161 C 
ATOM      2  C   LIG d   1     -16.664  65.853 115.231  0.00  0.00     0.016 C 
ATOM      3  C   LIG d   1     -16.088  66.918 115.961  0.00  0.00     0.038 C 
ATOM      4  C   LIG d   1     -15.397  66.705 117.163  0.00  0.00     0.028 C 
ATOM      5  C   LIG d   1     -15.876  65.475 117.927  0.00  0.00    -0.047 C 
ATOM      6  C   LIG d   1     -15.881  64.261 116.970  0.00  0.00     0.091 C 
ENDROOT
BRANCH   1   7
ATOM      7  O   LIG d   1     -16.372  63.615 114.657  0.00  0.00    -0.368 OA
BRANCH   7   8
ATOM      8  C   LIG d   1     -17.459  62.845 114.088  0.00  0.00     0.119 C 
BRANCH   8   9
ATOM      9  C   LIG d   1     -18.767  63.348 114.728  0.00  0.00     0.028 C 
ATOM     10  C   LIG d   1     -19.698  64.023 113.707  0.00  0.00     0.006 C 
ENDBRANCH   8   9
BRANCH   8  11
ATOM     11  C   LIG d   1     -17.359  61.367 114.479  0.00  0.00     0.028 C 
ATOM     12  C   LIG d   1     -18.472  60.929 115.444  0.00  0.00     0.006 C 
ENDBRANCH   8  11
ENDBRANCH   7   8
ENDBRANCH   1   7
BRANCH   6  13
ATOM     13  N   LIG d   1     -16.416  63.033 117.614  0.00  0.00    -0.311 N 
ATOM     14  C   LIG d   1     -15.658  61.990 117.947  0.00  0.00     0.210 C 
ATOM     15  C   LIG d   1     -16.413  60.818 118.582  0.00  0.00     0.109 C 
ATOM     16  O   LIG d   1     -14.427  61.936 117.805  0.00  0.00    -0.276 OA
ATOM     17  H   LIG d   1     -17.400  63.004 117.794  0.00  0.00     0.149 HD
ENDBRANCH   6  13
BRANCH   5  18
ATOM     18  N   LIG d   1     -14.981  65.293 119.085  0.00  0.00     0.381 N 
ATOM     19  H   LIG d   1     -14.846  66.170 119.549  0.00  0.00    -0.090 HD
ATOM     20  H   LIG d   1     -14.088  64.969 118.759  0.00  0.00    -0.090 HD
ATOM     21  H   LIG d   1     -15.372  64.631 119.718  0.00  0.00    -0.090 HD
ENDBRANCH   5  18
BRANCH   3  22
ATOM     22  C   LIG d   1     -16.236  68.220 115.508  0.00  0.00     0.382 C 
ATOM     23  O   LIG d   1     -16.047  68.488 114.297  0.00  0.00    -0.241 OA
ATOM     24  O   LIG d   1     -16.512  69.138 116.303  0.00  0.00    -0.241 OA
ENDBRANCH   3  22
TORSDOF 7
ENDMDL
MODEL 6
REMARK VINA RESULT:      -5.2     12.414     14.563
REMARK  7 active torsions:
REMARK  status: ('A' for Active; 'I' for Inactive)
REMARK    1  A    between atoms: C_2  and  C_3 
REMARK    2  A    between atoms: C_3  and  O_6 
REMARK    3  A    between atoms: C_3  and  C_4 
REMARK    4  A    between atoms: C_7  and  O_6 
REMARK    5  A    between atoms: C_9  and  C_10 
REMARK    6  A    between atoms: N_15  and  C_14 
REMARK    7  A    between atoms: N_20  and  C_19 
REMARK       I    between atoms: C_22  and  N_20 
ROOT
ATOM      1  C   LIG d   1     -16.162  66.056 115.890  0.00  0.00     0.161 C 
ATOM      2  C   LIG d   1     -15.885  67.078 114.967  0.00  0.00     0.016 C 
ATOM      3  C   LIG d   1     -16.149  66.969 113.582  0.00  0.00     0.038 C 
ATOM      4  C   LIG d   1     -16.852  65.880 113.045  0.00  0.00     0.028 C 
ATOM      5  C   LIG d   1     -16.701  64.600 113.860  0.00  0.00    -0.047 C 
ATOM      6  C   LIG d   1     -17.030  64.905 115.339  0.00  0.00     0.091 C 
ENDROOT
BRANCH   1   7
ATOM      7  O   LIG d   1     -16.764  66.616 117.073  0.00  0.00    -0.368 OA
BRANCH   7   8
ATOM      8  C   LIG d   1     -17.484  67.860 116.894  0.00  0.00     0.119 C 
BRANCH   8   9
ATOM      9  C   LIG d   1     -17.048  68.815 118.022  0.00  0.00     0.028 C 
ATOM     10  C   LIG d   1     -16.293  68.087 119.147  0.00  0.00     0.006 C 
ENDBRANCH   8   9
BRANCH   8  11
ATOM     11  C   LIG d   1     -18.991  67.665 117.088  0.00  0.00     0.028 C 
ATOM     12  C   LIG d   1     -19.332  66.358 117.822  0.00  0.00     0.006 C 
ENDBRANCH   8  11
ENDBRANCH   7   8
ENDBRANCH   1   7
BRANCH   6  13
ATOM     13  N   LIG d   1     -16.825  63.726 116.221  0.00  0.00    -0.311 N 
ATOM     14  C   LIG d   1     -17.803  62.890 116.566  0.00  0.00     0.210 C 
ATOM     15  C   LIG d   1     -17.381  61.751 117.499  0.00  0.00     0.109 C 
ATOM     16  O   LIG d   1     -18.974  62.966 116.163  0.00  0.00    -0.276 OA
ATOM     17  H   LIG d   1     -15.899  63.572 116.568  0.00  0.00     0.149 HD
ENDBRANCH   6  13
BRANCH   5  18
ATOM     18  N   LIG d   1     -17.593  63.586 113.267  0.00  0.00     0.381 N 
ATOM     19  H   LIG d   1     -17.071  62.996 112.649  0.00  0.00    -0.090 HD
ATOM     20  H   LIG d   1     -18.304  64.051 112.732  0.00  0.00    -0.090 HD
ATOM     21  H   LIG d   1     -18.012  63.038 113.986  0.00  0.00    -0.090 HD
ENDBRANCH   5  18
BRANCH   3  22
ATOM     22  C   LIG d   1     -15.673  67.938 112.713  0.00  0.00     0.382 C 
ATOM     23  O   LIG d   1     -15.786  67.779 111.473  0.00  0.00    -0.241 OA
ATOM     24  O   LIG d   1     -15.092  68.949 113.151  0.00  0.00    -0.241 OA
ENDBRANCH   3  22
TORSDOF 7
ENDMDL
MODEL 7
REMARK VINA RESULT:      -5.1      2.586      3.324
REMARK  7 active torsions:
REMARK  status: ('A' for Active; 'I' for Inactive)
REMARK    1  A    between atoms: C_2  and  C_3 
REMARK    2  A    between atoms: C_3  and  O_6 
REMARK    3  A    between atoms: C_3  and  C_4 
REMARK    4  A    between atoms: C_7  and  O_6 
REMARK    5  A    between atoms: C_9  and  C_10 
REMARK    6  A    between atoms: N_15  and  C_14 
REMARK    7  A    between atoms: N_20  and  C_19 
REMARK       I    between atoms: C_22  and  N_20 
ROOT
ATOM      1  C   LIG d   1      -5.544  77.229 117.129  0.00  0.00     0.161 C 
ATOM      2  C   LIG d   1      -6.158  78.467 117.381  0.00  0.00     0.016 C 
ATOM      3  C   LIG d   1      -5.458  79.695 117.392  0.00  0.00     0.038 C 
ATOM      4  C   LIG d   1      -4.114  79.786 116.999  0.00  0.00     0.028 C 
ATOM      5  C   LIG d   1      -3.329  78.499 117.225  0.00  0.00    -0.047 C 
ATOM      6  C   LIG d   1      -4.102  77.321 116.589  0.00  0.00     0.091 C 
ENDROOT
BRANCH   1   7
ATOM      7  O   LIG d   1      -6.365  76.450 116.236  0.00  0.00    -0.368 OA
BRANCH   7   8
ATOM      8  C   LIG d   1      -7.093  75.350 116.836  0.00  0.00     0.119 C 
BRANCH   8   9
ATOM      9  C   LIG d   1      -6.509  74.043 116.267  0.00  0.00     0.028 C 
ATOM     10  C   LIG d   1      -5.930  74.226 114.853  0.00  0.00     0.006 C 
ENDBRANCH   8   9
BRANCH   8  11
ATOM     11  C   LIG d   1      -8.564  75.357 116.410  0.00  0.00     0.028 C 
ATOM     12  C   LIG d   1      -9.364  74.191 117.012  0.00  0.00     0.006 C 
ENDBRANCH   8  11
ENDBRANCH   7   8
ENDBRANCH   1   7
BRANCH   6  13
ATOM     13  N   LIG d   1      -3.445  76.011 116.837  0.00  0.00    -0.311 N 
ATOM     14  C   LIG d   1      -2.643  75.415 115.957  0.00  0.00     0.210 C 
ATOM     15  C   LIG d   1      -2.085  74.060 116.404  0.00  0.00     0.109 C 
ATOM     16  O   LIG d   1      -2.316  75.893 114.860  0.00  0.00    -0.276 OA
ATOM     17  H   LIG d   1      -3.631  75.567 117.715  0.00  0.00     0.149 HD
ENDBRANCH   6  13
BRANCH   5  18
ATOM     18  N   LIG d   1      -1.986  78.689 116.646  0.00  0.00     0.381 N 
ATOM     19  H   LIG d   1      -1.896  79.622 116.296  0.00  0.00    -0.090 HD
ATOM     20  H   LIG d   1      -1.870  78.052 115.878  0.00  0.00    -0.090 HD
ATOM     21  H   LIG d   1      -1.289  78.517 117.337  0.00  0.00    -0.090 HD
ENDBRANCH   5  18
BRANCH   3  22
ATOM     22  C   LIG d   1      -6.093  80.845 117.838  0.00  0.00     0.382 C 
ATOM     23  O   LIG d   1      -7.192  81.188 117.338  0.00  0.00    -0.241 OA
ATOM     24  O   LIG d   1      -5.559  81.567 118.701  0.00  0.00    -0.241 OA
ENDBRANCH   3  22
TORSDOF 7
ENDMDL
MODEL 8
REMARK VINA RESULT:      -5.0      2.297      5.257
REMARK  7 active torsions:
REMARK  status: ('A' for Active; 'I' for Inactive)
REMARK    1  A    between atoms: C_2  and  C_3 
REMARK    2  A    between atoms: C_3  and  O_6 
REMARK    3  A    between atoms: C_3  and  C_4 
REMARK    4  A    between atoms: C_7  and  O_6 
REMARK    5  A    between atoms: C_9  and  C_10 
REMARK    6  A    between atoms: N_15  and  C_14 
REMARK    7  A    between atoms: N_20  and  C_19 
REMARK       I    between atoms: C_22  and  N_20 
ROOT
ATOM      1  C   LIG d   1      -5.905  74.482 116.940  0.00  0.00     0.161 C 
ATOM      2  C   LIG d   1      -6.747  73.371 116.762  0.00  0.00     0.016 C 
ATOM      3  C   LIG d   1      -8.125  73.381 117.076  0.00  0.00     0.038 C 
ATOM      4  C   LIG d   1      -8.792  74.557 117.449  0.00  0.00     0.028 C 
ATOM      5  C   LIG d   1      -7.885  75.579 118.126  0.00  0.00    -0.047 C 
ATOM      6  C   LIG d   1      -6.638  75.806 117.242  0.00  0.00     0.091 C 
ENDROOT
BRANCH   1   7
ATOM      7  O   LIG d   1      -5.048  74.635 115.792  0.00  0.00    -0.368 OA
BRANCH   7   8
ATOM      8  C   LIG d   1      -3.633  74.421 116.020  0.00  0.00     0.119 C 
BRANCH   8   9
ATOM      9  C   LIG d   1      -3.461  73.992 117.490  0.00  0.00     0.028 C 
ATOM     10  C   LIG d   1      -1.994  74.042 117.948  0.00  0.00     0.006 C 
ENDBRANCH   8   9
BRANCH   8  11
ATOM     11  C   LIG d   1      -2.843  75.725 115.883  0.00  0.00     0.028 C 
ATOM     12  C   LIG d   1      -3.491  76.714 114.901  0.00  0.00     0.006 C 
ENDBRANCH   8  11
ENDBRANCH   7   8
ENDBRANCH   1   7
BRANCH   6  13
ATOM     13  N   LIG d   1      -5.657  76.730 117.871  0.00  0.00    -0.311 N 
ATOM     14  C   LIG d   1      -5.656  78.046 117.668  0.00  0.00     0.210 C 
ATOM     15  C   LIG d   1      -4.546  78.811 118.397  0.00  0.00     0.109 C 
ATOM     16  O   LIG d   1      -6.487  78.657 116.980  0.00  0.00    -0.276 OA
ATOM     17  H   LIG d   1      -4.966  76.322 118.469  0.00  0.00     0.149 HD
ENDBRANCH   6  13
BRANCH   5  18
ATOM     18  N   LIG d   1      -8.676  76.807 118.337  0.00  0.00     0.381 N 
ATOM     19  H   LIG d   1      -8.495  77.173 119.250  0.00  0.00    -0.090 HD
ATOM     20  H   LIG d   1      -9.652  76.578 118.276  0.00  0.00    -0.090 HD
ATOM     21  H   LIG d   1      -8.442  77.486 117.646  0.00  0.00    -0.090 HD
ENDBRANCH   5  18
BRANCH   3  22
ATOM     22  C   LIG d   1      -8.843  72.195 117.055  0.00  0.00     0.382 C 
ATOM     23  O   LIG d   1     -10.035  72.177 117.446  0.00  0.00    -0.241 OA
ATOM     24  O   LIG d   1      -8.300  71.134 116.693  0.00  0.00    -0.241 OA
ENDBRANCH   3  22
TORSDOF 7
ENDMDL
MODEL 9
REMARK VINA RESULT:      -5.0      4.027      7.633
REMARK  7 active torsions:
REMARK  status: ('A' for Active; 'I' for Inactive)
REMARK    1  A    between atoms: C_2  and  C_3 
REMARK    2  A    between atoms: C_3  and  O_6 
REMARK    3  A    between atoms: C_3  and  C_4 
REMARK    4  A    between atoms: C_7  and  O_6 
REMARK    5  A    between atoms: C_9  and  C_10 
REMARK    6  A    between atoms: N_15  and  C_14 
REMARK    7  A    between atoms: N_20  and  C_19 
REMARK       I    between atoms: C_22  and  N_20 
ROOT
ATOM      1  C   LIG d   1      -3.214  77.373 115.850  0.00  0.00     0.161 C 
ATOM      2  C   LIG d   1      -2.610  76.110 115.725  0.00  0.00     0.016 C 
ATOM      3  C   LIG d   1      -2.859  75.038 116.612  0.00  0.00     0.038 C 
ATOM      4  C   LIG d   1      -3.850  75.109 117.602  0.00  0.00     0.028 C 
ATOM      5  C   LIG d   1      -4.124  76.530 118.084  0.00  0.00    -0.047 C 
ATOM      6  C   LIG d   1      -4.381  77.435 116.857  0.00  0.00     0.091 C 
ENDROOT
BRANCH   1   7
ATOM      7  O   LIG d   1      -3.644  77.839 114.556  0.00  0.00    -0.368 OA
BRANCH   7   8
ATOM      8  C   LIG d   1      -2.665  78.582 113.788  0.00  0.00     0.119 C 
BRANCH   8   9
ATOM      9  C   LIG d   1      -2.801  80.066 114.179  0.00  0.00     0.028 C 
ATOM     10  C   LIG d   1      -3.138  80.962 112.975  0.00  0.00     0.006 C 
ENDBRANCH   8   9
BRANCH   8  11
ATOM     11  C   LIG d   1      -2.974  78.528 112.289  0.00  0.00     0.028 C 
ATOM     12  C   LIG d   1      -2.011  77.614 111.515  0.00  0.00     0.006 C 
ENDBRANCH   8  11
ENDBRANCH   7   8
ENDBRANCH   1   7
BRANCH   6  13
ATOM     13  N   LIG d   1      -4.574  78.859 117.234  0.00  0.00    -0.311 N 
ATOM     14  C   LIG d   1      -5.769  79.401 117.465  0.00  0.00     0.210 C 
ATOM     15  C   LIG d   1      -5.745  80.891 117.820  0.00  0.00     0.109 C 
ATOM     16  O   LIG d   1      -6.843  78.782 117.439  0.00  0.00    -0.276 OA
ATOM     17  H   LIG d   1      -3.753  79.427 117.308  0.00  0.00     0.149 HD
ENDBRANCH   6  13
BRANCH   5  18
ATOM     18  N   LIG d   1      -5.269  76.473 119.011  0.00  0.00     0.381 N 
ATOM     19  H   LIG d   1      -5.116  77.098 119.777  0.00  0.00    -0.090 HD
ATOM     20  H   LIG d   1      -5.347  75.540 119.376  0.00  0.00    -0.090 HD
ATOM     21  H   LIG d   1      -6.107  76.721 118.533  0.00  0.00    -0.090 HD
ENDBRANCH   5  18
BRANCH   3  22
ATOM     22  C   LIG d   1      -2.083  73.891 116.538  0.00  0.00     0.382 C 
ATOM     23  O   LIG d   1      -1.810  73.250 117.581  0.00  0.00    -0.241 OA
ATOM     24  O   LIG d   1      -1.617  73.513 115.446  0.00  0.00    -0.241 OA
ENDBRANCH   3  22
TORSDOF 7
ENDMDL
