MODEL 1
REMARK VINA RESULT:      -5.3      0.000      0.000
REMARK  7 active torsions:
REMARK  status: ('A' for Active; 'I' for Inactive)
REMARK    1  A    between atoms: C_2  and  C_3 
REMARK    2  A    between atoms: C_3  and  O_6 
REMARK    3  A    between atoms: C_3  and  C_4 
REMARK    4  A    between atoms: C_7  and  O_6 
REMARK    5  A    between atoms: C_9  and  C_10 
REMARK    6  A    between atoms: N_15  and  C_14 
REMARK    7  A    between atoms: N_20  and  C_19 
REMARK       I    between atoms: C_22  and  N_20 
ROOT
ATOM      1  C   LIG d   1       1.826  85.843 114.085  0.00  0.00     0.161 C 
ATOM      2  C   LIG d   1       2.433  86.844 113.309  0.00  0.00     0.016 C 
ATOM      3  C   LIG d   1       3.785  87.232 113.459  0.00  0.00     0.038 C 
ATOM      4  C   LIG d   1       4.667  86.535 114.297  0.00  0.00     0.028 C 
ATOM      5  C   LIG d   1       3.974  85.846 115.468  0.00  0.00    -0.047 C 
ATOM      6  C   LIG d   1       2.802  84.995 114.927  0.00  0.00     0.091 C 
ENDROOT
BRANCH   1   7
ATOM      7  O   LIG d   1       1.022  84.992 113.243  0.00  0.00    -0.368 OA
BRANCH   7   8
ATOM      8  C   LIG d   1       1.078  85.267 111.822  0.00  0.00     0.119 C 
BRANCH   8   9
ATOM      9  C   LIG d   1      -0.372  85.336 111.306  0.00  0.00     0.028 C 
ATOM     10  C   LIG d   1      -0.981  86.740 111.453  0.00  0.00     0.006 C 
ENDBRANCH   8   9
BRANCH   8  11
ATOM     11  C   LIG d   1       1.726  84.109 111.056  0.00  0.00     0.028 C 
ATOM     12  C   LIG d   1       3.246  84.032 111.267  0.00  0.00     0.006 C 
ENDBRANCH   8  11
ENDBRANCH   7   8
ENDBRANCH   1   7
BRANCH   6  13
ATOM     13  N   LIG d   1       2.018  84.354 116.015  0.00  0.00    -0.311 N 
ATOM     14  C   LIG d   1       2.244  83.115 116.448  0.00  0.00     0.210 C 
ATOM     15  C   LIG d   1       1.308  82.640 117.564  0.00  0.00     0.109 C 
ATOM     16  O   LIG d   1       3.151  82.376 116.037  0.00  0.00    -0.276 OA
ATOM     17  H   LIG d   1       1.283  84.894 116.427  0.00  0.00     0.149 HD
ENDBRANCH   6  13
BRANCH   5  18
ATOM     18  N   LIG d   1       4.990  85.046 116.179  0.00  0.00     0.381 N 
ATOM     19  H   LIG d   1       4.541  84.339 116.726  0.00  0.00    -0.090 HD
ATOM     20  H   LIG d   1       5.502  85.648 116.799  0.00  0.00    -0.090 HD
ATOM     21  H   LIG d   1       5.611  84.625 115.524  0.00  0.00    -0.090 HD
ENDBRANCH   5  18
BRANCH   3  22
ATOM     22  C   LIG d   1       4.255  88.354 112.794  0.00  0.00     0.382 C 
ATOM     23  O   LIG d   1       3.472  89.296 112.523  0.00  0.00    -0.241 OA
ATOM     24  O   LIG d   1       5.442  88.416 112.423  0.00  0.00    -0.241 OA
ENDBRANCH   3  22
TORSDOF 7
ENDMDL
MODEL 2
REMARK VINA RESULT:      -4.9     12.758     16.139
REMARK  7 active torsions:
REMARK  status: ('A' for Active; 'I' for Inactive)
REMARK    1  A    between atoms: C_2  and  C_3 
REMARK    2  A    between atoms: C_3  and  O_6 
REMARK    3  A    between atoms: C_3  and  C_4 
REMARK    4  A    between atoms: C_7  and  O_6 
REMARK    5  A    between atoms: C_9  and  C_10 
REMARK    6  A    between atoms: N_15  and  C_14 
REMARK    7  A    between atoms: N_20  and  C_19 
REMARK       I    between atoms: C_22  and  N_20 
ROOT
ATOM      1  C   LIG d   1      -7.443  74.800 117.553  0.00  0.00     0.161 C 
ATOM      2  C   LIG d   1      -8.706  74.478 118.077  0.00  0.00     0.016 C 
ATOM      3  C   LIG d   1      -9.309  73.208 117.929  0.00  0.00     0.038 C 
ATOM      4  C   LIG d   1      -8.620  72.120 117.373  0.00  0.00     0.028 C 
ATOM      5  C   LIG d   1      -7.538  72.532 116.380  0.00  0.00    -0.047 C 
ATOM      6  C   LIG d   1      -6.629  73.593 117.040  0.00  0.00     0.091 C 
ENDROOT
BRANCH   1   7
ATOM      7  O   LIG d   1      -6.682  75.539 118.530  0.00  0.00    -0.368 OA
BRANCH   7   8
ATOM      8  C   LIG d   1      -6.508  76.952 118.266  0.00  0.00     0.119 C 
BRANCH   8   9
ATOM      9  C   LIG d   1      -7.667  77.698 118.956  0.00  0.00     0.028 C 
ATOM     10  C   LIG d   1      -8.676  78.275 117.950  0.00  0.00     0.006 C 
ENDBRANCH   8   9
BRANCH   8  11
ATOM     11  C   LIG d   1      -6.658  77.263 116.774  0.00  0.00     0.028 C 
ATOM     12  C   LIG d   1      -5.367  77.812 116.147  0.00  0.00     0.006 C 
ENDBRANCH   8  11
ENDBRANCH   7   8
ENDBRANCH   1   7
BRANCH   6  13
ATOM     13  N   LIG d   1      -5.594  74.112 116.108  0.00  0.00    -0.311 N 
ATOM     14  C   LIG d   1      -4.286  74.019 116.339  0.00  0.00     0.210 C 
ATOM     15  C   LIG d   1      -3.392  74.636 115.259  0.00  0.00     0.109 C 
ATOM     16  O   LIG d   1      -3.780  73.454 117.321  0.00  0.00    -0.276 OA
ATOM     17  H   LIG d   1      -5.916  74.558 115.271  0.00  0.00     0.149 HD
ENDBRANCH   6  13
BRANCH   5  18
ATOM     18  N   LIG d   1      -6.809  71.312 115.984  0.00  0.00     0.381 N 
ATOM     19  H   LIG d   1      -7.050  70.559 116.597  0.00  0.00    -0.090 HD
ATOM     20  H   LIG d   1      -5.822  71.482 116.066  0.00  0.00    -0.090 HD
ATOM     21  H   LIG d   1      -7.035  71.070 115.044  0.00  0.00    -0.090 HD
ENDBRANCH   5  18
BRANCH   3  22
ATOM     22  C   LIG d   1     -10.632  73.028 118.304  0.00  0.00     0.382 C 
ATOM     23  O   LIG d   1     -11.349  72.199 117.694  0.00  0.00    -0.241 OA
ATOM     24  O   LIG d   1     -11.129  73.716 119.215  0.00  0.00    -0.241 OA
ENDBRANCH   3  22
TORSDOF 7
ENDMDL
MODEL 3
REMARK VINA RESULT:      -4.9     24.802     26.301
REMARK  7 active torsions:
REMARK  status: ('A' for Active; 'I' for Inactive)
REMARK    1  A    between atoms: C_2  and  C_3 
REMARK    2  A    between atoms: C_3  and  O_6 
REMARK    3  A    between atoms: C_3  and  C_4 
REMARK    4  A    between atoms: C_7  and  O_6 
REMARK    5  A    between atoms: C_9  and  C_10 
REMARK    6  A    between atoms: N_15  and  C_14 
REMARK    7  A    between atoms: N_20  and  C_19 
REMARK       I    between atoms: C_22  and  N_20 
ROOT
ATOM      1  C   LIG d   1     -22.749  83.666 115.453  0.00  0.00     0.161 C 
ATOM      2  C   LIG d   1     -22.385  84.993 115.168  0.00  0.00     0.016 C 
ATOM      3  C   LIG d   1     -22.695  85.641 113.950  0.00  0.00     0.038 C 
ATOM      4  C   LIG d   1     -23.527  85.050 112.988  0.00  0.00     0.028 C 
ATOM      5  C   LIG d   1     -23.498  83.526 113.014  0.00  0.00    -0.047 C 
ATOM      6  C   LIG d   1     -23.753  83.044 114.461  0.00  0.00     0.091 C 
ENDROOT
BRANCH   1   7
ATOM      7  O   LIG d   1     -23.255  83.577 116.800  0.00  0.00    -0.368 OA
BRANCH   7   8
ATOM      8  C   LIG d   1     -22.265  83.614 117.857  0.00  0.00     0.119 C 
BRANCH   8   9
ATOM      9  C   LIG d   1     -21.712  82.185 118.023  0.00  0.00     0.028 C 
ATOM     10  C   LIG d   1     -22.781  81.196 118.517  0.00  0.00     0.006 C 
ENDBRANCH   8   9
BRANCH   8  11
ATOM     11  C   LIG d   1     -22.902  83.962 119.206  0.00  0.00     0.028 C 
ATOM     12  C   LIG d   1     -24.234  84.714 119.059  0.00  0.00     0.006 C 
ENDBRANCH   8  11
ENDBRANCH   7   8
ENDBRANCH   1   7
BRANCH   6  13
ATOM     13  N   LIG d   1     -23.657  81.567 114.591  0.00  0.00    -0.311 N 
ATOM     14  C   LIG d   1     -24.541  80.831 115.265  0.00  0.00     0.210 C 
ATOM     15  C   LIG d   1     -24.244  79.329 115.292  0.00  0.00     0.109 C 
ATOM     16  O   LIG d   1     -25.559  81.277 115.815  0.00  0.00    -0.276 OA
ATOM     17  H   LIG d   1     -22.879  81.119 114.149  0.00  0.00     0.149 HD
ENDBRANCH   6  13
BRANCH   5  18
ATOM     18  N   LIG d   1     -24.511  83.044 112.057  0.00  0.00     0.381 N 
ATOM     19  H   LIG d   1     -24.397  82.061 111.910  0.00  0.00    -0.090 HD
ATOM     20  H   LIG d   1     -24.376  83.512 111.178  0.00  0.00    -0.090 HD
ATOM     21  H   LIG d   1     -25.425  83.231 112.404  0.00  0.00    -0.090 HD
ENDBRANCH   5  18
BRANCH   3  22
ATOM     22  C   LIG d   1     -22.137  86.878 113.669  0.00  0.00     0.382 C 
ATOM     23  O   LIG d   1     -20.969  86.951 113.214  0.00  0.00    -0.241 OA
ATOM     24  O   LIG d   1     -22.769  87.925 113.905  0.00  0.00    -0.241 OA
ENDBRANCH   3  22
TORSDOF 7
ENDMDL
MODEL 4
REMARK VINA RESULT:      -4.9      3.934      6.101
REMARK  7 active torsions:
REMARK  status: ('A' for Active; 'I' for Inactive)
REMARK    1  A    between atoms: C_2  and  C_3 
REMARK    2  A    between atoms: C_3  and  O_6 
REMARK    3  A    between atoms: C_3  and  C_4 
REMARK    4  A    between atoms: C_7  and  O_6 
REMARK    5  A    between atoms: C_9  and  C_10 
REMARK    6  A    between atoms: N_15  and  C_14 
REMARK    7  A    between atoms: N_20  and  C_19 
REMARK       I    between atoms: C_22  and  N_20 
ROOT
ATOM      1  C   LIG d   1       3.624  88.886 115.376  0.00  0.00     0.161 C 
ATOM      2  C   LIG d   1       2.902  88.342 114.300  0.00  0.00     0.016 C 
ATOM      3  C   LIG d   1       3.443  88.177 113.004  0.00  0.00     0.038 C 
ATOM      4  C   LIG d   1       4.800  88.406 112.733  0.00  0.00     0.028 C 
ATOM      5  C   LIG d   1       5.439  89.432 113.662  0.00  0.00    -0.047 C 
ATOM      6  C   LIG d   1       5.139  89.038 115.127  0.00  0.00     0.091 C 
ENDROOT
BRANCH   1   7
ATOM      7  O   LIG d   1       3.388  88.108 116.566  0.00  0.00    -0.368 OA
BRANCH   7   8
ATOM      8  C   LIG d   1       2.548  88.723 117.573  0.00  0.00     0.119 C 
BRANCH   8   9
ATOM      9  C   LIG d   1       1.220  87.942 117.608  0.00  0.00     0.028 C 
ATOM     10  C   LIG d   1      -0.007  88.866 117.522  0.00  0.00     0.006 C 
ENDBRANCH   8   9
BRANCH   8  11
ATOM     11  C   LIG d   1       2.166  90.154 117.183  0.00  0.00     0.028 C 
ATOM     12  C   LIG d   1       2.811  91.211 118.093  0.00  0.00     0.006 C 
ENDBRANCH   8  11
ENDBRANCH   7   8
ENDBRANCH   1   7
BRANCH   6  13
ATOM     13  N   LIG d   1       5.657  90.036 116.099  0.00  0.00    -0.311 N 
ATOM     14  C   LIG d   1       6.846  89.934 116.691  0.00  0.00     0.210 C 
ATOM     15  C   LIG d   1       7.177  91.060 117.675  0.00  0.00     0.109 C 
ATOM     16  O   LIG d   1       7.672  89.036 116.469  0.00  0.00    -0.276 OA
ATOM     17  H   LIG d   1       5.064  90.814 116.314  0.00  0.00     0.149 HD
ENDBRANCH   6  13
BRANCH   5  18
ATOM     18  N   LIG d   1       6.882  89.472 113.358  0.00  0.00     0.381 N 
ATOM     19  H   LIG d   1       7.098  88.797 112.652  0.00  0.00    -0.090 HD
ATOM     20  H   LIG d   1       7.396  89.235 114.189  0.00  0.00    -0.090 HD
ATOM     21  H   LIG d   1       7.140  90.383 113.047  0.00  0.00    -0.090 HD
ENDBRANCH   5  18
BRANCH   3  22
ATOM     22  C   LIG d   1       2.613  87.815 111.954  0.00  0.00     0.382 C 
ATOM     23  O   LIG d   1       3.037  87.048 111.056  0.00  0.00    -0.241 OA
ATOM     24  O   LIG d   1       1.461  88.282 111.870  0.00  0.00    -0.241 OA
ENDBRANCH   3  22
TORSDOF 7
ENDMDL
MODEL 5
REMARK VINA RESULT:      -4.8      9.696     12.784
REMARK  7 active torsions:
REMARK  status: ('A' for Active; 'I' for Inactive)
REMARK    1  A    between atoms: C_2  and  C_3 
REMARK    2  A    between atoms: C_3  and  O_6 
REMARK    3  A    between atoms: C_3  and  C_4 
REMARK    4  A    between atoms: C_7  and  O_6 
REMARK    5  A    between atoms: C_9  and  C_10 
REMARK    6  A    between atoms: N_15  and  C_14 
REMARK    7  A    between atoms: N_20  and  C_19 
REMARK       I    between atoms: C_22  and  N_20 
ROOT
ATOM      1  C   LIG d   1      -6.128  77.808 116.760  0.00  0.00     0.161 C 
ATOM      2  C   LIG d   1      -7.470  77.634 117.136  0.00  0.00     0.016 C 
ATOM      3  C   LIG d   1      -8.254  78.657 117.718  0.00  0.00     0.038 C 
ATOM      4  C   LIG d   1      -7.791  79.976 117.826  0.00  0.00     0.028 C 
ATOM      5  C   LIG d   1      -6.272  80.079 117.924  0.00  0.00    -0.047 C 
ATOM      6  C   LIG d   1      -5.639  79.272 116.767  0.00  0.00     0.091 C 
ENDROOT
BRANCH   1   7
ATOM      7  O   LIG d   1      -5.901  77.210 115.468  0.00  0.00    -0.368 OA
BRANCH   7   8
ATOM      8  C   LIG d   1      -5.172  75.958 115.465  0.00  0.00     0.119 C 
BRANCH   8   9
ATOM      9  C   LIG d   1      -3.851  76.194 114.707  0.00  0.00     0.028 C 
ATOM     10  C   LIG d   1      -2.616  75.864 115.563  0.00  0.00     0.006 C 
ENDBRANCH   8   9
BRANCH   8  11
ATOM     11  C   LIG d   1      -5.913  74.884 114.663  0.00  0.00     0.028 C 
ATOM     12  C   LIG d   1      -6.345  73.688 115.527  0.00  0.00     0.006 C 
ENDBRANCH   8  11
ENDBRANCH   7   8
ENDBRANCH   1   7
BRANCH   6  13
ATOM     13  N   LIG d   1      -4.155  79.250 116.838  0.00  0.00    -0.311 N 
ATOM     14  C   LIG d   1      -3.367  79.659 115.844  0.00  0.00     0.210 C 
ATOM     15  C   LIG d   1      -1.865  79.533 116.116  0.00  0.00     0.109 C 
ATOM     16  O   LIG d   1      -3.770  80.144 114.777  0.00  0.00    -0.276 OA
ATOM     17  H   LIG d   1      -3.743  78.900 117.681  0.00  0.00     0.149 HD
ENDBRANCH   6  13
BRANCH   5  18
ATOM     18  N   LIG d   1      -5.919  81.510 117.891  0.00  0.00     0.381 N 
ATOM     19  H   LIG d   1      -5.644  81.770 116.965  0.00  0.00    -0.090 HD
ATOM     20  H   LIG d   1      -5.141  81.667 118.507  0.00  0.00    -0.090 HD
ATOM     21  H   LIG d   1      -6.697  82.060 118.181  0.00  0.00    -0.090 HD
ENDBRANCH   5  18
BRANCH   3  22
ATOM     22  C   LIG d   1      -9.504  78.353 118.237  0.00  0.00     0.382 C 
ATOM     23  O   LIG d   1      -9.924  77.171 118.209  0.00  0.00    -0.241 OA
ATOM     24  O   LIG d   1     -10.235  79.254 118.692  0.00  0.00    -0.241 OA
ENDBRANCH   3  22
TORSDOF 7
ENDMDL
MODEL 6
REMARK VINA RESULT:      -4.8     12.269     15.713
REMARK  7 active torsions:
REMARK  status: ('A' for Active; 'I' for Inactive)
REMARK    1  A    between atoms: C_2  and  C_3 
REMARK    2  A    between atoms: C_3  and  O_6 
REMARK    3  A    between atoms: C_3  and  C_4 
REMARK    4  A    between atoms: C_7  and  O_6 
REMARK    5  A    between atoms: C_9  and  C_10 
REMARK    6  A    between atoms: N_15  and  C_14 
REMARK    7  A    between atoms: N_20  and  C_19 
REMARK       I    between atoms: C_22  and  N_20 
ROOT
ATOM      1  C   LIG d   1      -7.703  75.127 117.528  0.00  0.00     0.161 C 
ATOM      2  C   LIG d   1      -8.073  73.773 117.461  0.00  0.00     0.016 C 
ATOM      3  C   LIG d   1      -7.394  72.819 116.669  0.00  0.00     0.038 C 
ATOM      4  C   LIG d   1      -6.199  73.125 116.002  0.00  0.00     0.028 C 
ATOM      5  C   LIG d   1      -6.069  74.600 115.636  0.00  0.00    -0.047 C 
ATOM      6  C   LIG d   1      -6.334  75.455 116.896  0.00  0.00     0.091 C 
ENDROOT
BRANCH   1   7
ATOM      7  O   LIG d   1      -7.743  75.577 118.897  0.00  0.00    -0.368 OA
BRANCH   7   8
ATOM      8  C   LIG d   1      -8.880  76.395 119.266  0.00  0.00     0.119 C 
BRANCH   8   9
ATOM      9  C   LIG d   1      -9.928  76.265 118.144  0.00  0.00     0.028 C 
ATOM     10  C   LIG d   1     -11.216  75.572 118.620  0.00  0.00     0.006 C 
ENDBRANCH   8   9
BRANCH   8  11
ATOM     11  C   LIG d   1      -8.510  77.880 119.305  0.00  0.00     0.028 C 
ATOM     12  C   LIG d   1      -9.127  78.679 118.146  0.00  0.00     0.006 C 
ENDBRANCH   8  11
ENDBRANCH   7   8
ENDBRANCH   1   7
BRANCH   6  13
ATOM     13  N   LIG d   1      -6.311  76.913 116.606  0.00  0.00    -0.311 N 
ATOM     14  C   LIG d   1      -5.477  77.764 117.200  0.00  0.00     0.210 C 
ATOM     15  C   LIG d   1      -5.632  79.227 116.772  0.00  0.00     0.109 C 
ATOM     16  O   LIG d   1      -4.601  77.443 118.018  0.00  0.00    -0.276 OA
ATOM     17  H   LIG d   1      -6.967  77.255 115.932  0.00  0.00     0.149 HD
ENDBRANCH   6  13
BRANCH   5  18
ATOM     18  N   LIG d   1      -4.721  74.802 115.072  0.00  0.00     0.381 N 
ATOM     19  H   LIG d   1      -4.756  75.493 114.349  0.00  0.00    -0.090 HD
ATOM     20  H   LIG d   1      -4.405  73.939 114.668  0.00  0.00    -0.090 HD
ATOM     21  H   LIG d   1      -4.092  75.092 115.788  0.00  0.00    -0.090 HD
ENDBRANCH   5  18
BRANCH   3  22
ATOM     22  C   LIG d   1      -7.934  71.553 116.505  0.00  0.00     0.382 C 
ATOM     23  O   LIG d   1      -8.815  71.139 117.298  0.00  0.00    -0.241 OA
ATOM     24  O   LIG d   1      -7.521  70.802 115.602  0.00  0.00    -0.241 OA
ENDBRANCH   3  22
TORSDOF 7
ENDMDL
MODEL 7
REMARK VINA RESULT:      -4.8     24.554     26.692
REMARK  7 active torsions:
REMARK  status: ('A' for Active; 'I' for Inactive)
REMARK    1  A    between atoms: C_2  and  C_3 
REMARK    2  A    between atoms: C_3  and  O_6 
REMARK    3  A    between atoms: C_3  and  C_4 
REMARK    4  A    between atoms: C_7  and  O_6 
REMARK    5  A    between atoms: C_9  and  C_10 
REMARK    6  A    between atoms: N_15  and  C_14 
REMARK    7  A    between atoms: N_20  and  C_19 
REMARK       I    between atoms: C_22  and  N_20 
ROOT
ATOM      1  C   LIG d   1     -23.716  84.085 115.510  0.00  0.00     0.161 C 
ATOM      2  C   LIG d   1     -22.729  84.035 116.508  0.00  0.00     0.016 C 
ATOM      3  C   LIG d   1     -22.269  82.830 117.087  0.00  0.00     0.038 C 
ATOM      4  C   LIG d   1     -22.660  81.575 116.597  0.00  0.00     0.028 C 
ATOM      5  C   LIG d   1     -24.033  81.585 115.933  0.00  0.00    -0.047 C 
ATOM      6  C   LIG d   1     -24.075  82.721 114.885  0.00  0.00     0.091 C 
ENDROOT
BRANCH   1   7
ATOM      7  O   LIG d   1     -23.327  85.020 114.484  0.00  0.00    -0.368 OA
BRANCH   7   8
ATOM      8  C   LIG d   1     -23.783  86.384 114.658  0.00  0.00     0.119 C 
BRANCH   8   9
ATOM      9  C   LIG d   1     -25.255  86.441 114.204  0.00  0.00     0.028 C 
ATOM     10  C   LIG d   1     -25.417  87.078 112.814  0.00  0.00     0.006 C 
ENDBRANCH   8   9
BRANCH   8  11
ATOM     11  C   LIG d   1     -23.035  87.344 113.728  0.00  0.00     0.028 C 
ATOM     12  C   LIG d   1     -21.510  87.164 113.787  0.00  0.00     0.006 C 
ENDBRANCH   8  11
ENDBRANCH   7   8
ENDBRANCH   1   7
BRANCH   6  13
ATOM     13  N   LIG d   1     -25.411  82.855 114.247  0.00  0.00    -0.311 N 
ATOM     14  C   LIG d   1     -25.583  83.060 112.943  0.00  0.00     0.210 C 
ATOM     15  C   LIG d   1     -27.043  83.189 112.496  0.00  0.00     0.109 C 
ATOM     16  O   LIG d   1     -24.667  83.114 112.108  0.00  0.00    -0.276 OA
ATOM     17  H   LIG d   1     -26.210  82.792 114.846  0.00  0.00     0.149 HD
ENDBRANCH   6  13
BRANCH   5  18
ATOM     18  N   LIG d   1     -24.255  80.250 115.347  0.00  0.00     0.381 N 
ATOM     19  H   LIG d   1     -23.724  80.157 114.504  0.00  0.00    -0.090 HD
ATOM     20  H   LIG d   1     -25.229  80.152 115.120  0.00  0.00    -0.090 HD
ATOM     21  H   LIG d   1     -23.985  79.544 115.997  0.00  0.00    -0.090 HD
ENDBRANCH   5  18
BRANCH   3  22
ATOM     22  C   LIG d   1     -21.437  82.874 118.196  0.00  0.00     0.382 C 
ATOM     23  O   LIG d   1     -21.726  83.615 119.166  0.00  0.00    -0.241 OA
ATOM     24  O   LIG d   1     -20.380  82.217 118.218  0.00  0.00    -0.241 OA
ENDBRANCH   3  22
TORSDOF 7
ENDMDL
MODEL 8
REMARK VINA RESULT:      -4.7      2.385      4.794
REMARK  7 active torsions:
REMARK  status: ('A' for Active; 'I' for Inactive)
REMARK    1  A    between atoms: C_2  and  C_3 
REMARK    2  A    between atoms: C_3  and  O_6 
REMARK    3  A    between atoms: C_3  and  C_4 
REMARK    4  A    between atoms: C_7  and  O_6 
REMARK    5  A    between atoms: C_9  and  C_10 
REMARK    6  A    between atoms: N_15  and  C_14 
REMARK    7  A    between atoms: N_20  and  C_19 
REMARK       I    between atoms: C_22  and  N_20 
ROOT
ATOM      1  C   LIG d   1       4.333  85.857 113.526  0.00  0.00     0.161 C 
ATOM      2  C   LIG d   1       4.909  87.077 113.920  0.00  0.00     0.016 C 
ATOM      3  C   LIG d   1       4.497  88.331 113.414  0.00  0.00     0.038 C 
ATOM      4  C   LIG d   1       3.371  88.464 112.588  0.00  0.00     0.028 C 
ATOM      5  C   LIG d   1       3.072  87.214 111.766  0.00  0.00    -0.047 C 
ATOM      6  C   LIG d   1       3.030  85.991 112.710  0.00  0.00     0.091 C 
ENDROOT
BRANCH   1   7
ATOM      7  O   LIG d   1       4.117  85.023 114.682  0.00  0.00    -0.368 OA
BRANCH   7   8
ATOM      8  C   LIG d   1       4.037  85.708 115.956  0.00  0.00     0.119 C 
BRANCH   8   9
ATOM      9  C   LIG d   1       4.871  84.900 116.969  0.00  0.00     0.028 C 
ATOM     10  C   LIG d   1       4.223  84.859 118.363  0.00  0.00     0.006 C 
ENDBRANCH   8   9
BRANCH   8  11
ATOM     11  C   LIG d   1       2.608  85.696 116.506  0.00  0.00     0.028 C 
ATOM     12  C   LIG d   1       1.796  86.930 116.083  0.00  0.00     0.006 C 
ENDBRANCH   8  11
ENDBRANCH   7   8
ENDBRANCH   1   7
BRANCH   6  13
ATOM     13  N   LIG d   1       2.827  84.715 111.975  0.00  0.00    -0.311 N 
ATOM     14  C   LIG d   1       1.637  84.134 111.830  0.00  0.00     0.210 C 
ATOM     15  C   LIG d   1       1.653  82.813 111.055  0.00  0.00     0.109 C 
ATOM     16  O   LIG d   1       0.566  84.604 112.243  0.00  0.00    -0.276 OA
ATOM     17  H   LIG d   1       3.639  84.281 111.582  0.00  0.00     0.149 HD
ENDBRANCH   6  13
BRANCH   5  18
ATOM     18  N   LIG d   1       1.799  87.441 111.057  0.00  0.00     0.381 N 
ATOM     19  H   LIG d   1       1.543  88.406 111.120  0.00  0.00    -0.090 HD
ATOM     20  H   LIG d   1       1.080  86.895 111.497  0.00  0.00    -0.090 HD
ATOM     21  H   LIG d   1       1.889  87.176 110.100  0.00  0.00    -0.090 HD
ENDBRANCH   5  18
BRANCH   3  22
ATOM     22  C   LIG d   1       5.239  89.466 113.703  0.00  0.00     0.382 C 
ATOM     23  O   LIG d   1       6.492  89.426 113.651  0.00  0.00    -0.241 OA
ATOM     24  O   LIG d   1       4.673  90.517 114.059  0.00  0.00    -0.241 OA
ENDBRANCH   3  22
TORSDOF 7
ENDMDL
MODEL 9
REMARK VINA RESULT:      -4.7     10.004     12.051
REMARK  7 active torsions:
REMARK  status: ('A' for Active; 'I' for Inactive)
REMARK    1  A    between atoms: C_2  and  C_3 
REMARK    2  A    between atoms: C_3  and  O_6 
REMARK    3  A    between atoms: C_3  and  C_4 
REMARK    4  A    between atoms: C_7  and  O_6 
REMARK    5  A    between atoms: C_9  and  C_10 
REMARK    6  A    between atoms: N_15  and  C_14 
REMARK    7  A    between atoms: N_20  and  C_19 
REMARK       I    between atoms: C_22  and  N_20 
ROOT
ATOM      1  C   LIG d   1      -5.542  77.460 116.449  0.00  0.00     0.161 C 
ATOM      2  C   LIG d   1      -6.250  78.639 116.735  0.00  0.00     0.016 C 
ATOM      3  C   LIG d   1      -5.624  79.870 117.037  0.00  0.00     0.038 C 
ATOM      4  C   LIG d   1      -4.236  80.042 116.925  0.00  0.00     0.028 C 
ATOM      5  C   LIG d   1      -3.447  78.754 117.132  0.00  0.00    -0.047 C 
ATOM      6  C   LIG d   1      -4.029  77.655 116.214  0.00  0.00     0.091 C 
ENDROOT
BRANCH   1   7
ATOM      7  O   LIG d   1      -6.142  76.790 115.323  0.00  0.00    -0.368 OA
BRANCH   7   8
ATOM      8  C   LIG d   1      -6.855  75.563 115.617  0.00  0.00     0.119 C 
BRANCH   8   9
ATOM      9  C   LIG d   1      -6.795  75.347 117.142  0.00  0.00     0.028 C 
ATOM     10  C   LIG d   1      -8.182  75.428 117.801  0.00  0.00     0.006 C 
ENDBRANCH   8   9
BRANCH   8  11
ATOM     11  C   LIG d   1      -6.149  74.348 115.007  0.00  0.00     0.028 C 
ATOM     12  C   LIG d   1      -6.511  73.032 115.714  0.00  0.00     0.006 C 
ENDBRANCH   8  11
ENDBRANCH   7   8
ENDBRANCH   1   7
BRANCH   6  13
ATOM     13  N   LIG d   1      -3.369  76.339 116.415  0.00  0.00    -0.311 N 
ATOM     14  C   LIG d   1      -2.734  75.682 115.446  0.00  0.00     0.210 C 
ATOM     15  C   LIG d   1      -2.141  74.332 115.862  0.00  0.00     0.109 C 
ATOM     16  O   LIG d   1      -2.579  76.103 114.290  0.00  0.00    -0.276 OA
ATOM     17  H   LIG d   1      -3.419  75.939 117.331  0.00  0.00     0.149 HD
ENDBRANCH   6  13
BRANCH   5  18
ATOM     18  N   LIG d   1      -2.029  79.050 116.852  0.00  0.00     0.381 N 
ATOM     19  H   LIG d   1      -1.955  79.589 116.013  0.00  0.00    -0.090 HD
ATOM     20  H   LIG d   1      -1.537  78.184 116.715  0.00  0.00    -0.090 HD
ATOM     21  H   LIG d   1      -1.628  79.551 117.614  0.00  0.00    -0.090 HD
ENDBRANCH   5  18
BRANCH   3  22
ATOM     22  C   LIG d   1      -6.385  80.934 117.495  0.00  0.00     0.382 C 
ATOM     23  O   LIG d   1      -7.072  81.606 116.689  0.00  0.00    -0.241 OA
ATOM     24  O   LIG d   1      -6.358  81.259 118.697  0.00  0.00    -0.241 OA
ENDBRANCH   3  22
TORSDOF 7
ENDMDL
