MODEL 1
REMARK VINA RESULT:      -5.3      0.000      0.000
REMARK  7 active torsions:
REMARK  status: ('A' for Active; 'I' for Inactive)
REMARK    1  A    between atoms: C_2  and  C_3 
REMARK    2  A    between atoms: C_3  and  O_6 
REMARK    3  A    between atoms: C_3  and  C_4 
REMARK    4  A    between atoms: C_7  and  O_6 
REMARK    5  A    between atoms: C_9  and  C_10 
REMARK    6  A    between atoms: N_15  and  C_14 
REMARK    7  A    between atoms: N_20  and  C_19 
REMARK       I    between atoms: C_22  and  N_20 
ROOT
ATOM      1  C   LIG d   1     -16.615  64.861 114.132  0.00  0.00     0.161 C 
ATOM      2  C   LIG d   1     -16.167  65.818 113.206  0.00  0.00     0.016 C 
ATOM      3  C   LIG d   1     -15.481  66.998 113.577  0.00  0.00     0.038 C 
ATOM      4  C   LIG d   1     -15.060  67.228 114.895  0.00  0.00     0.028 C 
ATOM      5  C   LIG d   1     -15.930  66.534 115.938  0.00  0.00    -0.047 C 
ATOM      6  C   LIG d   1     -16.068  65.041 115.564  0.00  0.00     0.091 C 
ENDROOT
BRANCH   1   7
ATOM      7  O   LIG d   1     -16.321  63.537 113.646  0.00  0.00    -0.368 OA
BRANCH   7   8
ATOM      8  C   LIG d   1     -17.464  62.724 113.282  0.00  0.00     0.119 C 
BRANCH   8   9
ATOM      9  C   LIG d   1     -18.730  63.564 113.536  0.00  0.00     0.028 C 
ATOM     10  C   LIG d   1     -19.587  63.731 112.270  0.00  0.00     0.006 C 
ENDBRANCH   8   9
BRANCH   8  11
ATOM     11  C   LIG d   1     -17.595  61.504 114.199  0.00  0.00     0.028 C 
ATOM     12  C   LIG d   1     -18.241  60.298 113.498  0.00  0.00     0.006 C 
ENDBRANCH   8  11
ENDBRANCH   7   8
ENDBRANCH   1   7
BRANCH   6  13
ATOM     13  N   LIG d   1     -16.973  64.306 116.486  0.00  0.00    -0.311 N 
ATOM     14  C   LIG d   1     -16.584  63.264 117.219  0.00  0.00     0.210 C 
ATOM     15  C   LIG d   1     -17.680  62.640 118.088  0.00  0.00     0.109 C 
ATOM     16  O   LIG d   1     -15.427  62.818 117.256  0.00  0.00    -0.276 OA
ATOM     17  H   LIG d   1     -17.921  64.621 116.541  0.00  0.00     0.149 HD
ENDBRANCH   6  13
BRANCH   5  18
ATOM     18  N   LIG d   1     -15.300  66.744 117.255  0.00  0.00     0.381 N 
ATOM     19  H   LIG d   1     -15.961  66.551 117.981  0.00  0.00    -0.090 HD
ATOM     20  H   LIG d   1     -15.020  67.706 117.332  0.00  0.00    -0.090 HD
ATOM     21  H   LIG d   1     -14.506  66.151 117.352  0.00  0.00    -0.090 HD
ENDBRANCH   5  18
BRANCH   3  22
ATOM     22  C   LIG d   1     -15.243  67.981 112.629  0.00  0.00     0.382 C 
ATOM     23  O   LIG d   1     -14.681  69.052 112.963  0.00  0.00    -0.241 OA
ATOM     24  O   LIG d   1     -15.624  67.830 111.452  0.00  0.00    -0.241 OA
ENDBRANCH   3  22
TORSDOF 7
ENDMDL
MODEL 2
REMARK VINA RESULT:      -5.1     21.817     25.136
REMARK  7 active torsions:
REMARK  status: ('A' for Active; 'I' for Inactive)
REMARK    1  A    between atoms: C_2  and  C_3 
REMARK    2  A    between atoms: C_3  and  O_6 
REMARK    3  A    between atoms: C_3  and  C_4 
REMARK    4  A    between atoms: C_7  and  O_6 
REMARK    5  A    between atoms: C_9  and  C_10 
REMARK    6  A    between atoms: N_15  and  C_14 
REMARK    7  A    between atoms: N_20  and  C_19 
REMARK       I    between atoms: C_22  and  N_20 
ROOT
ATOM      1  C   LIG d   1      -0.284  83.826 115.069  0.00  0.00     0.161 C 
ATOM      2  C   LIG d   1       0.407  85.044 115.185  0.00  0.00     0.016 C 
ATOM      3  C   LIG d   1       0.699  85.881 114.084  0.00  0.00     0.038 C 
ATOM      4  C   LIG d   1       0.184  85.628 112.804  0.00  0.00     0.028 C 
ATOM      5  C   LIG d   1      -0.091  84.151 112.542  0.00  0.00    -0.047 C 
ATOM      6  C   LIG d   1      -0.950  83.589 113.698  0.00  0.00     0.091 C 
ENDROOT
BRANCH   1   7
ATOM      7  O   LIG d   1      -1.258  83.715 116.125  0.00  0.00    -0.368 OA
BRANCH   7   8
ATOM      8  C   LIG d   1      -0.971  82.739 117.157  0.00  0.00     0.119 C 
BRANCH   8   9
ATOM      9  C   LIG d   1      -2.028  81.623 117.047  0.00  0.00     0.028 C 
ATOM     10  C   LIG d   1      -3.417  82.166 116.674  0.00  0.00     0.006 C 
ENDBRANCH   8   9
BRANCH   8  11
ATOM     11  C   LIG d   1      -1.156  83.336 118.556  0.00  0.00     0.028 C 
ATOM     12  C   LIG d   1       0.001  84.260 118.967  0.00  0.00     0.006 C 
ENDBRANCH   8  11
ENDBRANCH   7   8
ENDBRANCH   1   7
BRANCH   6  13
ATOM     13  N   LIG d   1      -1.195  82.129 113.563  0.00  0.00    -0.311 N 
ATOM     14  C   LIG d   1      -2.349  81.615 113.143  0.00  0.00     0.210 C 
ATOM     15  C   LIG d   1      -2.397  80.085 113.096  0.00  0.00     0.109 C 
ATOM     16  O   LIG d   1      -3.327  82.282 112.773  0.00  0.00    -0.276 OA
ATOM     17  H   LIG d   1      -0.443  81.516 113.813  0.00  0.00     0.149 HD
ENDBRANCH   6  13
BRANCH   5  18
ATOM     18  N   LIG d   1      -0.752  84.047 111.227  0.00  0.00     0.381 N 
ATOM     19  H   LIG d   1      -0.620  84.896 110.714  0.00  0.00    -0.090 HD
ATOM     20  H   LIG d   1      -1.737  83.913 111.368  0.00  0.00    -0.090 HD
ATOM     21  H   LIG d   1      -0.374  83.280 110.716  0.00  0.00    -0.090 HD
ENDBRANCH   5  18
BRANCH   3  22
ATOM     22  C   LIG d   1       1.549  86.964 114.250  0.00  0.00     0.382 C 
ATOM     23  O   LIG d   1       1.380  87.751 115.213  0.00  0.00    -0.241 OA
ATOM     24  O   LIG d   1       2.454  87.190 113.425  0.00  0.00    -0.241 OA
ENDBRANCH   3  22
TORSDOF 7
ENDMDL
MODEL 3
REMARK VINA RESULT:      -5.1     15.370     18.156
REMARK  7 active torsions:
REMARK  status: ('A' for Active; 'I' for Inactive)
REMARK    1  A    between atoms: C_2  and  C_3 
REMARK    2  A    between atoms: C_3  and  O_6 
REMARK    3  A    between atoms: C_3  and  C_4 
REMARK    4  A    between atoms: C_7  and  O_6 
REMARK    5  A    between atoms: C_9  and  C_10 
REMARK    6  A    between atoms: N_15  and  C_14 
REMARK    7  A    between atoms: N_20  and  C_19 
REMARK       I    between atoms: C_22  and  N_20 
ROOT
ATOM      1  C   LIG d   1      -3.228  77.399 116.591  0.00  0.00     0.161 C 
ATOM      2  C   LIG d   1      -3.449  78.457 115.694  0.00  0.00     0.016 C 
ATOM      3  C   LIG d   1      -2.587  78.754 114.613  0.00  0.00     0.038 C 
ATOM      4  C   LIG d   1      -1.519  77.913 114.265  0.00  0.00     0.028 C 
ATOM      5  C   LIG d   1      -0.963  77.120 115.443  0.00  0.00    -0.047 C 
ATOM      6  C   LIG d   1      -2.130  76.405 116.161  0.00  0.00     0.091 C 
ENDROOT
BRANCH   1   7
ATOM      7  O   LIG d   1      -4.466  76.703 116.839  0.00  0.00    -0.368 OA
BRANCH   7   8
ATOM      8  C   LIG d   1      -4.639  75.444 116.143  0.00  0.00     0.119 C 
BRANCH   8   9
ATOM      9  C   LIG d   1      -5.747  75.645 115.091  0.00  0.00     0.028 C 
ATOM     10  C   LIG d   1      -5.209  75.580 113.652  0.00  0.00     0.006 C 
ENDBRANCH   8   9
BRANCH   8  11
ATOM     11  C   LIG d   1      -5.165  74.355 117.083  0.00  0.00     0.028 C 
ATOM     12  C   LIG d   1      -6.576  73.876 116.709  0.00  0.00     0.006 C 
ENDBRANCH   8  11
ENDBRANCH   7   8
ENDBRANCH   1   7
BRANCH   6  13
ATOM     13  N   LIG d   1      -1.684  75.674 117.376  0.00  0.00    -0.311 N 
ATOM     14  C   LIG d   1      -1.288  74.402 117.362  0.00  0.00     0.210 C 
ATOM     15  C   LIG d   1      -0.889  73.834 118.728  0.00  0.00     0.109 C 
ATOM     16  O   LIG d   1      -1.199  73.700 116.344  0.00  0.00    -0.276 OA
ATOM     17  H   LIG d   1      -1.695  76.177 118.241  0.00  0.00     0.149 HD
ENDBRANCH   6  13
BRANCH   5  18
ATOM     18  N   LIG d   1       0.049  76.187 114.914  0.00  0.00     0.381 N 
ATOM     19  H   LIG d   1       0.752  76.696 114.415  0.00  0.00    -0.090 HD
ATOM     20  H   LIG d   1      -0.396  75.553 114.273  0.00  0.00    -0.090 HD
ATOM     21  H   LIG d   1       0.466  75.677 115.661  0.00  0.00    -0.090 HD
ENDBRANCH   5  18
BRANCH   3  22
ATOM     22  C   LIG d   1      -2.766  79.924 113.892  0.00  0.00     0.382 C 
ATOM     23  O   LIG d   1      -2.820  81.026 114.489  0.00  0.00    -0.241 OA
ATOM     24  O   LIG d   1      -2.919  79.888 112.656  0.00  0.00    -0.241 OA
ENDBRANCH   3  22
TORSDOF 7
ENDMDL
MODEL 4
REMARK VINA RESULT:      -5.0     23.060     26.712
REMARK  7 active torsions:
REMARK  status: ('A' for Active; 'I' for Inactive)
REMARK    1  A    between atoms: C_2  and  C_3 
REMARK    2  A    between atoms: C_3  and  O_6 
REMARK    3  A    between atoms: C_3  and  C_4 
REMARK    4  A    between atoms: C_7  and  O_6 
REMARK    5  A    between atoms: C_9  and  C_10 
REMARK    6  A    between atoms: N_15  and  C_14 
REMARK    7  A    between atoms: N_20  and  C_19 
REMARK       I    between atoms: C_22  and  N_20 
ROOT
ATOM      1  C   LIG d   1       0.650  84.334 112.979  0.00  0.00     0.161 C 
ATOM      2  C   LIG d   1      -0.345  83.512 112.425  0.00  0.00     0.016 C 
ATOM      3  C   LIG d   1      -1.374  82.914 113.188  0.00  0.00     0.038 C 
ATOM      4  C   LIG d   1      -1.567  83.223 114.543  0.00  0.00     0.028 C 
ATOM      5  C   LIG d   1      -0.289  83.651 115.255  0.00  0.00    -0.047 C 
ATOM      6  C   LIG d   1       0.391  84.772 114.435  0.00  0.00     0.091 C 
ENDROOT
BRANCH   1   7
ATOM      7  O   LIG d   1       0.854  85.487 112.138  0.00  0.00    -0.368 OA
BRANCH   7   8
ATOM      8  C   LIG d   1       1.998  85.434 111.250  0.00  0.00     0.119 C 
BRANCH   8   9
ATOM      9  C   LIG d   1       3.087  84.596 111.948  0.00  0.00     0.028 C 
ATOM     10  C   LIG d   1       3.614  83.459 111.057  0.00  0.00     0.006 C 
ENDBRANCH   8   9
BRANCH   8  11
ATOM     11  C   LIG d   1       2.617  86.821 111.055  0.00  0.00     0.028 C 
ATOM     12  C   LIG d   1       3.784  87.094 112.017  0.00  0.00     0.006 C 
ENDBRANCH   8  11
ENDBRANCH   7   8
ENDBRANCH   1   7
BRANCH   6  13
ATOM     13  N   LIG d   1       1.692  85.190 115.018  0.00  0.00    -0.311 N 
ATOM     14  C   LIG d   1       2.073  86.462 115.123  0.00  0.00     0.210 C 
ATOM     15  C   LIG d   1       3.462  86.673 115.735  0.00  0.00     0.109 C 
ATOM     16  O   LIG d   1       1.379  87.438 114.798  0.00  0.00    -0.276 OA
ATOM     17  H   LIG d   1       2.304  84.464 115.336  0.00  0.00     0.149 HD
ENDBRANCH   6  13
BRANCH   5  18
ATOM     18  N   LIG d   1      -0.658  84.074 116.619  0.00  0.00     0.381 N 
ATOM     19  H   LIG d   1      -0.173  84.917 116.855  0.00  0.00    -0.090 HD
ATOM     20  H   LIG d   1      -0.381  83.359 117.268  0.00  0.00    -0.090 HD
ATOM     21  H   LIG d   1      -1.642  84.222 116.675  0.00  0.00    -0.090 HD
ENDBRANCH   5  18
BRANCH   3  22
ATOM     22  C   LIG d   1      -2.200  81.965 112.605  0.00  0.00     0.382 C 
ATOM     23  O   LIG d   1      -3.442  82.139 112.590  0.00  0.00    -0.241 OA
ATOM     24  O   LIG d   1      -1.722  80.916 112.133  0.00  0.00    -0.241 OA
ENDBRANCH   3  22
TORSDOF 7
ENDMDL
MODEL 5
REMARK VINA RESULT:      -5.0     25.228     28.212
REMARK  7 active torsions:
REMARK  status: ('A' for Active; 'I' for Inactive)
REMARK    1  A    between atoms: C_2  and  C_3 
REMARK    2  A    between atoms: C_3  and  O_6 
REMARK    3  A    between atoms: C_3  and  C_4 
REMARK    4  A    between atoms: C_7  and  O_6 
REMARK    5  A    between atoms: C_9  and  C_10 
REMARK    6  A    between atoms: N_15  and  C_14 
REMARK    7  A    between atoms: N_20  and  C_19 
REMARK       I    between atoms: C_22  and  N_20 
ROOT
ATOM      1  C   LIG d   1       2.630  84.679 114.288  0.00  0.00     0.161 C 
ATOM      2  C   LIG d   1       1.378  84.105 114.010  0.00  0.00     0.016 C 
ATOM      3  C   LIG d   1       0.151  84.781 114.204  0.00  0.00     0.038 C 
ATOM      4  C   LIG d   1       0.100  86.139 114.550  0.00  0.00     0.028 C 
ATOM      5  C   LIG d   1       1.323  86.613 115.328  0.00  0.00    -0.047 C 
ATOM      6  C   LIG d   1       2.598  86.198 114.560  0.00  0.00     0.091 C 
ENDROOT
BRANCH   1   7
ATOM      7  O   LIG d   1       3.552  84.380 113.221  0.00  0.00    -0.368 OA
BRANCH   7   8
ATOM      8  C   LIG d   1       2.998  84.373 111.883  0.00  0.00     0.119 C 
BRANCH   8   9
ATOM      9  C   LIG d   1       3.724  83.271 111.087  0.00  0.00     0.028 C 
ATOM     10  C   LIG d   1       3.183  81.866 111.403  0.00  0.00     0.006 C 
ENDBRANCH   8   9
BRANCH   8  11
ATOM     11  C   LIG d   1       3.310  85.678 111.144  0.00  0.00     0.028 C 
ATOM     12  C   LIG d   1       2.096  86.617 111.056  0.00  0.00     0.006 C 
ENDBRANCH   8  11
ENDBRANCH   7   8
ENDBRANCH   1   7
BRANCH   6  13
ATOM     13  N   LIG d   1       3.842  86.549 115.294  0.00  0.00    -0.311 N 
ATOM     14  C   LIG d   1       4.757  87.395 114.824  0.00  0.00     0.210 C 
ATOM     15  C   LIG d   1       5.974  87.601 115.731  0.00  0.00     0.109 C 
ATOM     16  O   LIG d   1       4.661  88.018 113.756  0.00  0.00    -0.276 OA
ATOM     17  H   LIG d   1       3.985  86.112 116.184  0.00  0.00     0.149 HD
ENDBRANCH   6  13
BRANCH   5  18
ATOM     18  N   LIG d   1       1.202  88.073 115.502  0.00  0.00     0.381 N 
ATOM     19  H   LIG d   1       1.191  88.298 116.477  0.00  0.00    -0.090 HD
ATOM     20  H   LIG d   1       0.334  88.378 115.098  0.00  0.00    -0.090 HD
ATOM     21  H   LIG d   1       1.965  88.534 115.056  0.00  0.00    -0.090 HD
ENDBRANCH   5  18
BRANCH   3  22
ATOM     22  C   LIG d   1      -1.042  84.084 114.091  0.00  0.00     0.382 C 
ATOM     23  O   LIG d   1      -1.037  82.889 113.711  0.00  0.00    -0.241 OA
ATOM     24  O   LIG d   1      -2.128  84.650 114.322  0.00  0.00    -0.241 OA
ENDBRANCH   3  22
TORSDOF 7
ENDMDL
MODEL 6
REMARK VINA RESULT:      -5.0     12.375     15.819
REMARK  7 active torsions:
REMARK  status: ('A' for Active; 'I' for Inactive)
REMARK    1  A    between atoms: C_2  and  C_3 
REMARK    2  A    between atoms: C_3  and  O_6 
REMARK    3  A    between atoms: C_3  and  C_4 
REMARK    4  A    between atoms: C_7  and  O_6 
REMARK    5  A    between atoms: C_9  and  C_10 
REMARK    6  A    between atoms: N_15  and  C_14 
REMARK    7  A    between atoms: N_20  and  C_19 
REMARK       I    between atoms: C_22  and  N_20 
ROOT
ATOM      1  C   LIG d   1      -7.398  76.149 117.323  0.00  0.00     0.161 C 
ATOM      2  C   LIG d   1      -8.770  76.214 117.617  0.00  0.00     0.016 C 
ATOM      3  C   LIG d   1      -9.589  75.071 117.768  0.00  0.00     0.038 C 
ATOM      4  C   LIG d   1      -9.055  73.774 117.785  0.00  0.00     0.028 C 
ATOM      5  C   LIG d   1      -7.760  73.642 116.990  0.00  0.00    -0.047 C 
ATOM      6  C   LIG d   1      -6.776  74.743 117.447  0.00  0.00     0.091 C 
ENDROOT
BRANCH   1   7
ATOM      7  O   LIG d   1      -6.678  77.091 118.143  0.00  0.00    -0.368 OA
BRANCH   7   8
ATOM      8  C   LIG d   1      -6.246  78.308 117.487  0.00  0.00     0.119 C 
BRANCH   8   9
ATOM      9  C   LIG d   1      -4.712  78.381 117.608  0.00  0.00     0.028 C 
ATOM     10  C   LIG d   1      -4.016  78.418 116.237  0.00  0.00     0.006 C 
ENDBRANCH   8   9
BRANCH   8  11
ATOM     11  C   LIG d   1      -6.770  79.549 118.215  0.00  0.00     0.028 C 
ATOM     12  C   LIG d   1      -8.301  79.675 118.154  0.00  0.00     0.006 C 
ENDBRANCH   8  11
ENDBRANCH   7   8
ENDBRANCH   1   7
BRANCH   6  13
ATOM     13  N   LIG d   1      -5.515  74.738 116.661  0.00  0.00    -0.311 N 
ATOM     14  C   LIG d   1      -4.306  74.816 117.214  0.00  0.00     0.210 C 
ATOM     15  C   LIG d   1      -3.139  74.815 116.222  0.00  0.00     0.109 C 
ATOM     16  O   LIG d   1      -4.087  74.852 118.435  0.00  0.00    -0.276 OA
ATOM     17  H   LIG d   1      -5.598  74.679 115.665  0.00  0.00     0.149 HD
ENDBRANCH   6  13
BRANCH   5  18
ATOM     18  N   LIG d   1      -7.242  72.278 117.206  0.00  0.00     0.381 N 
ATOM     19  H   LIG d   1      -7.815  71.617 116.722  0.00  0.00    -0.090 HD
ATOM     20  H   LIG d   1      -7.279  72.067 118.188  0.00  0.00    -0.090 HD
ATOM     21  H   LIG d   1      -6.302  72.214 116.881  0.00  0.00    -0.090 HD
ENDBRANCH   5  18
BRANCH   3  22
ATOM     22  C   LIG d   1     -10.964  75.218 117.865  0.00  0.00     0.382 C 
ATOM     23  O   LIG d   1     -11.720  74.265 117.559  0.00  0.00    -0.241 OA
ATOM     24  O   LIG d   1     -11.460  76.307 118.213  0.00  0.00    -0.241 OA
ENDBRANCH   3  22
TORSDOF 7
ENDMDL
MODEL 7
REMARK VINA RESULT:      -5.0     22.584     26.241
REMARK  7 active torsions:
REMARK  status: ('A' for Active; 'I' for Inactive)
REMARK    1  A    between atoms: C_2  and  C_3 
REMARK    2  A    between atoms: C_3  and  O_6 
REMARK    3  A    between atoms: C_3  and  C_4 
REMARK    4  A    between atoms: C_7  and  O_6 
REMARK    5  A    between atoms: C_9  and  C_10 
REMARK    6  A    between atoms: N_15  and  C_14 
REMARK    7  A    between atoms: N_20  and  C_19 
REMARK       I    between atoms: C_22  and  N_20 
ROOT
ATOM      1  C   LIG d   1      -0.555  84.821 113.701  0.00  0.00     0.161 C 
ATOM      2  C   LIG d   1      -1.567  83.853 113.809  0.00  0.00     0.016 C 
ATOM      3  C   LIG d   1      -1.530  82.609 113.137  0.00  0.00     0.038 C 
ATOM      4  C   LIG d   1      -0.398  82.185 112.426  0.00  0.00     0.028 C 
ATOM      5  C   LIG d   1       0.438  83.335 111.874  0.00  0.00    -0.047 C 
ATOM      6  C   LIG d   1       0.739  84.330 113.018  0.00  0.00     0.091 C 
ENDROOT
BRANCH   1   7
ATOM      7  O   LIG d   1      -0.259  85.366 115.002  0.00  0.00    -0.368 OA
BRANCH   7   8
ATOM      8  C   LIG d   1       0.685  84.617 115.807  0.00  0.00     0.119 C 
BRANCH   8   9
ATOM      9  C   LIG d   1      -0.088  84.039 117.008  0.00  0.00     0.028 C 
ATOM     10  C   LIG d   1       0.507  84.479 118.356  0.00  0.00     0.006 C 
ENDBRANCH   8   9
BRANCH   8  11
ATOM     11  C   LIG d   1       1.750  85.535 116.415  0.00  0.00     0.028 C 
ATOM     12  C   LIG d   1       1.695  86.965 115.854  0.00  0.00     0.006 C 
ENDBRANCH   8  11
ENDBRANCH   7   8
ENDBRANCH   1   7
BRANCH   6  13
ATOM     13  N   LIG d   1       1.482  85.528 112.547  0.00  0.00    -0.311 N 
ATOM     14  C   LIG d   1       2.807  85.642 112.612  0.00  0.00     0.210 C 
ATOM     15  C   LIG d   1       3.369  86.968 112.090  0.00  0.00     0.109 C 
ATOM     16  O   LIG d   1       3.573  84.757 113.023  0.00  0.00    -0.276 OA
ATOM     17  H   LIG d   1       0.940  86.281 112.170  0.00  0.00     0.149 HD
ENDBRANCH   6  13
BRANCH   5  18
ATOM     18  N   LIG d   1       1.655  82.755 111.277  0.00  0.00     0.381 N 
ATOM     19  H   LIG d   1       1.652  81.762 111.398  0.00  0.00    -0.090 HD
ATOM     20  H   LIG d   1       2.459  83.127 111.751  0.00  0.00    -0.090 HD
ATOM     21  H   LIG d   1       1.699  82.978 110.307  0.00  0.00    -0.090 HD
ENDBRANCH   5  18
BRANCH   3  22
ATOM     22  C   LIG d   1      -2.651  81.793 113.140  0.00  0.00     0.382 C 
ATOM     23  O   LIG d   1      -2.851  81.007 114.098  0.00  0.00    -0.241 OA
ATOM     24  O   LIG d   1      -3.440  81.800 112.177  0.00  0.00    -0.241 OA
ENDBRANCH   3  22
TORSDOF 7
ENDMDL
MODEL 8
REMARK VINA RESULT:      -4.9     19.373     22.611
REMARK  7 active torsions:
REMARK  status: ('A' for Active; 'I' for Inactive)
REMARK    1  A    between atoms: C_2  and  C_3 
REMARK    2  A    between atoms: C_3  and  O_6 
REMARK    3  A    between atoms: C_3  and  C_4 
REMARK    4  A    between atoms: C_7  and  O_6 
REMARK    5  A    between atoms: C_9  and  C_10 
REMARK    6  A    between atoms: N_15  and  C_14 
REMARK    7  A    between atoms: N_20  and  C_19 
REMARK       I    between atoms: C_22  and  N_20 
ROOT
ATOM      1  C   LIG d   1      -1.819  81.774 114.301  0.00  0.00     0.161 C 
ATOM      2  C   LIG d   1      -1.459  83.046 113.826  0.00  0.00     0.016 C 
ATOM      3  C   LIG d   1      -0.879  83.267 112.556  0.00  0.00     0.038 C 
ATOM      4  C   LIG d   1      -0.757  82.240 111.608  0.00  0.00     0.028 C 
ATOM      5  C   LIG d   1      -0.641  80.852 112.230  0.00  0.00    -0.047 C 
ATOM      6  C   LIG d   1      -1.796  80.656 113.238  0.00  0.00     0.091 C 
ENDROOT
BRANCH   1   7
ATOM      7  O   LIG d   1      -3.112  81.836 114.935  0.00  0.00    -0.368 OA
BRANCH   7   8
ATOM      8  C   LIG d   1      -3.121  82.230 116.329  0.00  0.00     0.119 C 
BRANCH   8   9
ATOM      9  C   LIG d   1      -1.719  81.941 116.900  0.00  0.00     0.028 C 
ATOM     10  C   LIG d   1      -1.189  83.095 117.767  0.00  0.00     0.006 C 
ENDBRANCH   8   9
BRANCH   8  11
ATOM     11  C   LIG d   1      -4.080  81.361 117.148  0.00  0.00     0.028 C 
ATOM     12  C   LIG d   1      -3.894  79.858 116.885  0.00  0.00     0.006 C 
ENDBRANCH   8  11
ENDBRANCH   7   8
ENDBRANCH   1   7
BRANCH   6  13
ATOM     13  N   LIG d   1      -1.709  79.356 113.953  0.00  0.00    -0.311 N 
ATOM     14  C   LIG d   1      -2.342  78.255 113.552  0.00  0.00     0.210 C 
ATOM     15  C   LIG d   1      -2.133  77.028 114.445  0.00  0.00     0.109 C 
ATOM     16  O   LIG d   1      -3.030  78.169 112.524  0.00  0.00    -0.276 OA
ATOM     17  H   LIG d   1      -1.146  79.328 114.781  0.00  0.00     0.149 HD
ENDBRANCH   6  13
BRANCH   5  18
ATOM     18  N   LIG d   1      -0.659  79.869 111.130  0.00  0.00     0.381 N 
ATOM     19  H   LIG d   1       0.136  79.266 111.202  0.00  0.00    -0.090 HD
ATOM     20  H   LIG d   1      -0.606  80.359 110.255  0.00  0.00    -0.090 HD
ATOM     21  H   LIG d   1      -1.497  79.331 111.168  0.00  0.00    -0.090 HD
ENDBRANCH   5  18
BRANCH   3  22
ATOM     22  C   LIG d   1      -0.376  84.519 112.239  0.00  0.00     0.382 C 
ATOM     23  O   LIG d   1      -1.075  85.543 112.433  0.00  0.00    -0.241 OA
ATOM     24  O   LIG d   1       0.750  84.635 111.720  0.00  0.00    -0.241 OA
ENDBRANCH   3  22
TORSDOF 7
ENDMDL
MODEL 9
REMARK VINA RESULT:      -4.8     14.276     17.673
REMARK  7 active torsions:
REMARK  status: ('A' for Active; 'I' for Inactive)
REMARK    1  A    between atoms: C_2  and  C_3 
REMARK    2  A    between atoms: C_3  and  O_6 
REMARK    3  A    between atoms: C_3  and  C_4 
REMARK    4  A    between atoms: C_7  and  O_6 
REMARK    5  A    between atoms: C_9  and  C_10 
REMARK    6  A    between atoms: N_15  and  C_14 
REMARK    7  A    between atoms: N_20  and  C_19 
REMARK       I    between atoms: C_22  and  N_20 
ROOT
ATOM      1  C   LIG d   1      -4.059  76.147 116.973  0.00  0.00     0.161 C 
ATOM      2  C   LIG d   1      -5.010  75.211 117.412  0.00  0.00     0.016 C 
ATOM      3  C   LIG d   1      -5.918  74.559 116.546  0.00  0.00     0.038 C 
ATOM      4  C   LIG d   1      -5.834  74.687 115.151  0.00  0.00     0.028 C 
ATOM      5  C   LIG d   1      -5.218  76.007 114.700  0.00  0.00    -0.047 C 
ATOM      6  C   LIG d   1      -3.878  76.215 115.442  0.00  0.00     0.091 C 
ENDROOT
BRANCH   1   7
ATOM      7  O   LIG d   1      -2.794  75.896 117.616  0.00  0.00    -0.368 OA
BRANCH   7   8
ATOM      8  C   LIG d   1      -2.129  74.660 117.254  0.00  0.00     0.119 C 
BRANCH   8   9
ATOM      9  C   LIG d   1      -1.664  73.985 118.559  0.00  0.00     0.028 C 
ATOM     10  C   LIG d   1      -0.242  74.409 118.965  0.00  0.00     0.006 C 
ENDBRANCH   8   9
BRANCH   8  11
ATOM     11  C   LIG d   1      -0.848  74.929 116.458  0.00  0.00     0.028 C 
ATOM     12  C   LIG d   1      -0.664  73.959 115.280  0.00  0.00     0.006 C 
ENDBRANCH   8  11
ENDBRANCH   7   8
ENDBRANCH   1   7
BRANCH   6  13
ATOM     13  N   LIG d   1      -3.251  77.524 115.121  0.00  0.00    -0.311 N 
ATOM     14  C   LIG d   1      -2.284  77.671 114.217  0.00  0.00     0.210 C 
ATOM     15  C   LIG d   1      -1.762  79.103 114.056  0.00  0.00     0.109 C 
ATOM     16  O   LIG d   1      -1.831  76.758 113.511  0.00  0.00    -0.276 OA
ATOM     17  H   LIG d   1      -3.580  78.324 115.626  0.00  0.00     0.149 HD
ENDBRANCH   6  13
BRANCH   5  18
ATOM     18  N   LIG d   1      -5.064  75.949 113.234  0.00  0.00     0.381 N 
ATOM     19  H   LIG d   1      -4.473  75.181 112.986  0.00  0.00    -0.090 HD
ATOM     20  H   LIG d   1      -4.629  76.798 112.919  0.00  0.00    -0.090 HD
ATOM     21  H   LIG d   1      -5.956  75.844 112.802  0.00  0.00    -0.090 HD
ENDBRANCH   5  18
BRANCH   3  22
ATOM     22  C   LIG d   1      -6.949  73.799 117.077  0.00  0.00     0.382 C 
ATOM     23  O   LIG d   1      -7.191  72.659 116.612  0.00  0.00    -0.241 OA
ATOM     24  O   LIG d   1      -7.668  74.257 117.984  0.00  0.00    -0.241 OA
ENDBRANCH   3  22
TORSDOF 7
ENDMDL
