MODEL 1
REMARK VINA RESULT:      -6.2      0.000      0.000
REMARK  7 active torsions:
REMARK  status: ('A' for Active; 'I' for Inactive)
REMARK    1  A    between atoms: C_2  and  C_3 
REMARK    2  A    between atoms: C_3  and  O_6 
REMARK    3  A    between atoms: C_3  and  C_4 
REMARK    4  A    between atoms: C_7  and  O_6 
REMARK    5  A    between atoms: C_9  and  C_10 
REMARK    6  A    between atoms: N_15  and  C_14 
REMARK    7  A    between atoms: N_20  and  C_19 
REMARK       I    between atoms: C_22  and  N_20 
ROOT
ATOM      1  C   LIG d   1      -7.658  76.550 117.501  0.00  0.00     0.161 C 
ATOM      2  C   LIG d   1      -8.927  77.005 117.897  0.00  0.00     0.016 C 
ATOM      3  C   LIG d   1      -9.240  78.370 118.086  0.00  0.00     0.038 C 
ATOM      4  C   LIG d   1      -8.341  79.391 117.745  0.00  0.00     0.028 C 
ATOM      5  C   LIG d   1      -6.880  78.963 117.821  0.00  0.00    -0.047 C 
ATOM      6  C   LIG d   1      -6.697  77.656 117.016  0.00  0.00     0.091 C 
ENDROOT
BRANCH   1   7
ATOM      7  O   LIG d   1      -7.797  75.530 116.492  0.00  0.00    -0.368 OA
BRANCH   7   8
ATOM      8  C   LIG d   1      -7.727  74.159 116.958  0.00  0.00     0.119 C 
BRANCH   8   9
ATOM      9  C   LIG d   1      -6.615  73.455 116.157  0.00  0.00     0.028 C 
ATOM     10  C   LIG d   1      -6.120  74.300 114.972  0.00  0.00     0.006 C 
ENDBRANCH   8   9
BRANCH   8  11
ATOM     11  C   LIG d   1      -9.012  73.393 116.630  0.00  0.00     0.028 C 
ATOM     12  C   LIG d   1      -8.908  71.893 116.946  0.00  0.00     0.006 C 
ENDBRANCH   8  11
ENDBRANCH   7   8
ENDBRANCH   1   7
BRANCH   6  13
ATOM     13  N   LIG d   1      -5.314  77.122 117.109  0.00  0.00    -0.311 N 
ATOM     14  C   LIG d   1      -4.369  77.372 116.204  0.00  0.00     0.210 C 
ATOM     15  C   LIG d   1      -3.017  76.707 116.479  0.00  0.00     0.109 C 
ATOM     16  O   LIG d   1      -4.513  78.108 115.216  0.00  0.00    -0.276 OA
ATOM     17  H   LIG d   1      -5.101  76.540 117.895  0.00  0.00     0.149 HD
ENDBRANCH   6  13
BRANCH   5  18
ATOM     18  N   LIG d   1      -6.061  80.077 117.308  0.00  0.00     0.381 N 
ATOM     19  H   LIG d   1      -5.138  80.024 117.692  0.00  0.00    -0.090 HD
ATOM     20  H   LIG d   1      -6.474  80.945 117.600  0.00  0.00    -0.090 HD
ATOM     21  H   LIG d   1      -6.018  80.039 116.314  0.00  0.00    -0.090 HD
ENDBRANCH   5  18
BRANCH   3  22
ATOM     22  C   LIG d   1     -10.451  78.724 118.662  0.00  0.00     0.382 C 
ATOM     23  O   LIG d   1     -11.339  77.855 118.839  0.00  0.00    -0.241 OA
ATOM     24  O   LIG d   1     -10.684  79.910 118.965  0.00  0.00    -0.241 OA
ENDBRANCH   3  22
TORSDOF 7
ENDMDL
MODEL 2
REMARK VINA RESULT:      -5.8      2.003      2.557
REMARK  7 active torsions:
REMARK  status: ('A' for Active; 'I' for Inactive)
REMARK    1  A    between atoms: C_2  and  C_3 
REMARK    2  A    between atoms: C_3  and  O_6 
REMARK    3  A    between atoms: C_3  and  C_4 
REMARK    4  A    between atoms: C_7  and  O_6 
REMARK    5  A    between atoms: C_9  and  C_10 
REMARK    6  A    between atoms: N_15  and  C_14 
REMARK    7  A    between atoms: N_20  and  C_19 
REMARK       I    between atoms: C_22  and  N_20 
ROOT
ATOM      1  C   LIG d   1      -6.186  76.863 116.881  0.00  0.00     0.161 C 
ATOM      2  C   LIG d   1      -7.086  77.876 117.249  0.00  0.00     0.016 C 
ATOM      3  C   LIG d   1      -6.754  79.250 117.251  0.00  0.00     0.038 C 
ATOM      4  C   LIG d   1      -5.536  79.719 116.737  0.00  0.00     0.028 C 
ATOM      5  C   LIG d   1      -4.407  78.697 116.826  0.00  0.00    -0.047 C 
ATOM      6  C   LIG d   1      -4.889  77.363 116.211  0.00  0.00     0.091 C 
ENDROOT
BRANCH   1   7
ATOM      7  O   LIG d   1      -6.849  75.903 116.034  0.00  0.00    -0.368 OA
BRANCH   7   8
ATOM      8  C   LIG d   1      -7.025  74.577 116.590  0.00  0.00     0.119 C 
BRANCH   8   9
ATOM      9  C   LIG d   1      -6.492  73.567 115.555  0.00  0.00     0.028 C 
ATOM     10  C   LIG d   1      -6.967  72.132 115.838  0.00  0.00     0.006 C 
ENDBRANCH   8   9
BRANCH   8  11
ATOM     11  C   LIG d   1      -8.508  74.237 116.762  0.00  0.00     0.028 C 
ATOM     12  C   LIG d   1      -9.435  75.237 116.053  0.00  0.00     0.006 C 
ENDBRANCH   8  11
ENDBRANCH   7   8
ENDBRANCH   1   7
BRANCH   6  13
ATOM     13  N   LIG d   1      -3.874  76.284 116.333  0.00  0.00    -0.311 N 
ATOM     14  C   LIG d   1      -3.352  75.647 115.286  0.00  0.00     0.210 C 
ATOM     15  C   LIG d   1      -2.337  74.554 115.635  0.00  0.00     0.109 C 
ATOM     16  O   LIG d   1      -3.608  75.906 114.101  0.00  0.00    -0.276 OA
ATOM     17  H   LIG d   1      -3.586  76.032 117.258  0.00  0.00     0.149 HD
ENDBRANCH   6  13
BRANCH   5  18
ATOM     18  N   LIG d   1      -3.236  79.265 116.131  0.00  0.00     0.381 N 
ATOM     19  H   LIG d   1      -2.941  80.101 116.593  0.00  0.00    -0.090 HD
ATOM     20  H   LIG d   1      -3.499  79.501 115.190  0.00  0.00    -0.090 HD
ATOM     21  H   LIG d   1      -2.492  78.602 116.120  0.00  0.00    -0.090 HD
ENDBRANCH   5  18
BRANCH   3  22
ATOM     22  C   LIG d   1      -7.630  80.168 117.810  0.00  0.00     0.382 C 
ATOM     23  O   LIG d   1      -7.992  81.172 117.149  0.00  0.00    -0.241 OA
ATOM     24  O   LIG d   1      -8.028  80.030 118.981  0.00  0.00    -0.241 OA
ENDBRANCH   3  22
TORSDOF 7
ENDMDL
MODEL 3
REMARK VINA RESULT:      -5.7      2.073      5.373
REMARK  7 active torsions:
REMARK  status: ('A' for Active; 'I' for Inactive)
REMARK    1  A    between atoms: C_2  and  C_3 
REMARK    2  A    between atoms: C_3  and  O_6 
REMARK    3  A    between atoms: C_3  and  C_4 
REMARK    4  A    between atoms: C_7  and  O_6 
REMARK    5  A    between atoms: C_9  and  C_10 
REMARK    6  A    between atoms: N_15  and  C_14 
REMARK    7  A    between atoms: N_20  and  C_19 
REMARK       I    between atoms: C_22  and  N_20 
ROOT
ATOM      1  C   LIG d   1      -5.721  75.521 116.238  0.00  0.00     0.161 C 
ATOM      2  C   LIG d   1      -4.487  74.992 115.823  0.00  0.00     0.016 C 
ATOM      3  C   LIG d   1      -3.255  75.664 115.997  0.00  0.00     0.038 C 
ATOM      4  C   LIG d   1      -3.155  76.851 116.737  0.00  0.00     0.028 C 
ATOM      5  C   LIG d   1      -4.439  77.674 116.738  0.00  0.00    -0.047 C 
ATOM      6  C   LIG d   1      -5.619  76.764 117.147  0.00  0.00     0.091 C 
ENDROOT
BRANCH   1   7
ATOM      7  O   LIG d   1      -6.502  74.494 116.880  0.00  0.00    -0.368 OA
BRANCH   7   8
ATOM      8  C   LIG d   1      -7.595  73.945 116.103  0.00  0.00     0.119 C 
BRANCH   8   9
ATOM      9  C   LIG d   1      -8.908  74.340 116.807  0.00  0.00     0.028 C 
ATOM     10  C   LIG d   1      -9.751  75.318 115.972  0.00  0.00     0.006 C 
ENDBRANCH   8   9
BRANCH   8  11
ATOM     11  C   LIG d   1      -7.573  72.414 116.114  0.00  0.00     0.028 C 
ATOM     12  C   LIG d   1      -8.786  71.806 116.837  0.00  0.00     0.006 C 
ENDBRANCH   8  11
ENDBRANCH   7   8
ENDBRANCH   1   7
BRANCH   6  13
ATOM     13  N   LIG d   1      -6.925  77.470 117.091  0.00  0.00    -0.311 N 
ATOM     14  C   LIG d   1      -7.715  77.635 118.151  0.00  0.00     0.210 C 
ATOM     15  C   LIG d   1      -9.027  78.375 117.870  0.00  0.00     0.109 C 
ATOM     16  O   LIG d   1      -7.440  77.267 119.303  0.00  0.00    -0.276 OA
ATOM     17  H   LIG d   1      -7.213  77.829 116.202  0.00  0.00     0.149 HD
ENDBRANCH   6  13
BRANCH   5  18
ATOM     18  N   LIG d   1      -4.239  78.811 117.657  0.00  0.00     0.381 N 
ATOM     19  H   LIG d   1      -4.262  78.488 118.604  0.00  0.00    -0.090 HD
ATOM     20  H   LIG d   1      -4.988  79.468 117.529  0.00  0.00    -0.090 HD
ATOM     21  H   LIG d   1      -3.365  79.251 117.469  0.00  0.00    -0.090 HD
ENDBRANCH   5  18
BRANCH   3  22
ATOM     22  C   LIG d   1      -2.111  75.167 115.391  0.00  0.00     0.382 C 
ATOM     23  O   LIG d   1      -1.533  74.162 115.871  0.00  0.00    -0.241 OA
ATOM     24  O   LIG d   1      -1.624  75.738 114.396  0.00  0.00    -0.241 OA
ENDBRANCH   3  22
TORSDOF 7
ENDMDL
MODEL 4
REMARK VINA RESULT:      -5.6      2.327      4.840
REMARK  7 active torsions:
REMARK  status: ('A' for Active; 'I' for Inactive)
REMARK    1  A    between atoms: C_2  and  C_3 
REMARK    2  A    between atoms: C_3  and  O_6 
REMARK    3  A    between atoms: C_3  and  C_4 
REMARK    4  A    between atoms: C_7  and  O_6 
REMARK    5  A    between atoms: C_9  and  C_10 
REMARK    6  A    between atoms: N_15  and  C_14 
REMARK    7  A    between atoms: N_20  and  C_19 
REMARK       I    between atoms: C_22  and  N_20 
ROOT
ATOM      1  C   LIG d   1      -6.413  75.799 117.327  0.00  0.00     0.161 C 
ATOM      2  C   LIG d   1      -6.624  74.486 116.872  0.00  0.00     0.016 C 
ATOM      3  C   LIG d   1      -7.908  73.927 116.680  0.00  0.00     0.038 C 
ATOM      4  C   LIG d   1      -9.076  74.697 116.786  0.00  0.00     0.028 C 
ATOM      5  C   LIG d   1      -8.934  75.885 117.732  0.00  0.00    -0.047 C 
ATOM      6  C   LIG d   1      -7.673  76.689 117.342  0.00  0.00     0.091 C 
ENDROOT
BRANCH   1   7
ATOM      7  O   LIG d   1      -5.368  76.421 116.553  0.00  0.00    -0.368 OA
BRANCH   7   8
ATOM      8  C   LIG d   1      -4.822  75.633 115.467  0.00  0.00     0.119 C 
BRANCH   8   9
ATOM      9  C   LIG d   1      -3.301  75.533 115.687  0.00  0.00     0.028 C 
ATOM     10  C   LIG d   1      -2.798  76.506 116.766  0.00  0.00     0.006 C 
ENDBRANCH   8   9
BRANCH   8  11
ATOM     11  C   LIG d   1      -4.992  76.345 114.122  0.00  0.00     0.028 C 
ATOM     12  C   LIG d   1      -6.447  76.341 113.625  0.00  0.00     0.006 C 
ENDBRANCH   8  11
ENDBRANCH   7   8
ENDBRANCH   1   7
BRANCH   6  13
ATOM     13  N   LIG d   1      -7.413  77.821 118.269  0.00  0.00    -0.311 N 
ATOM     14  C   LIG d   1      -6.989  79.017 117.865  0.00  0.00     0.210 C 
ATOM     15  C   LIG d   1      -6.764  80.036 118.986  0.00  0.00     0.109 C 
ATOM     16  O   LIG d   1      -6.808  79.341 116.681  0.00  0.00    -0.276 OA
ATOM     17  H   LIG d   1      -7.563  77.655 119.245  0.00  0.00     0.149 HD
ENDBRANCH   6  13
BRANCH   5  18
ATOM     18  N   LIG d   1     -10.175  76.677 117.642  0.00  0.00     0.381 N 
ATOM     19  H   LIG d   1     -10.792  76.265 116.971  0.00  0.00    -0.090 HD
ATOM     20  H   LIG d   1      -9.947  77.605 117.331  0.00  0.00    -0.090 HD
ATOM     21  H   LIG d   1     -10.619  76.717 118.532  0.00  0.00    -0.090 HD
ENDBRANCH   5  18
BRANCH   3  22
ATOM     22  C   LIG d   1      -8.035  72.572 116.416  0.00  0.00     0.382 C 
ATOM     23  O   LIG d   1      -7.140  71.972 115.773  0.00  0.00    -0.241 OA
ATOM     24  O   LIG d   1      -9.054  71.951 116.774  0.00  0.00    -0.241 OA
ENDBRANCH   3  22
TORSDOF 7
ENDMDL
MODEL 5
REMARK VINA RESULT:      -5.6      0.930      1.870
REMARK  7 active torsions:
REMARK  status: ('A' for Active; 'I' for Inactive)
REMARK    1  A    between atoms: C_2  and  C_3 
REMARK    2  A    between atoms: C_3  and  O_6 
REMARK    3  A    between atoms: C_3  and  C_4 
REMARK    4  A    between atoms: C_7  and  O_6 
REMARK    5  A    between atoms: C_9  and  C_10 
REMARK    6  A    between atoms: N_15  and  C_14 
REMARK    7  A    between atoms: N_20  and  C_19 
REMARK       I    between atoms: C_22  and  N_20 
ROOT
ATOM      1  C   LIG d   1      -7.477  76.951 118.306  0.00  0.00     0.161 C 
ATOM      2  C   LIG d   1      -8.796  77.327 118.611  0.00  0.00     0.016 C 
ATOM      3  C   LIG d   1      -9.285  78.645 118.457  0.00  0.00     0.038 C 
ATOM      4  C   LIG d   1      -8.525  79.650 117.841  0.00  0.00     0.028 C 
ATOM      5  C   LIG d   1      -7.021  79.444 117.981  0.00  0.00    -0.047 C 
ATOM      6  C   LIG d   1      -6.667  78.009 117.528  0.00  0.00     0.091 C 
ENDROOT
BRANCH   1   7
ATOM      7  O   LIG d   1      -7.478  75.698 117.594  0.00  0.00    -0.368 OA
BRANCH   7   8
ATOM      8  C   LIG d   1      -7.795  75.768 116.182  0.00  0.00     0.119 C 
BRANCH   8   9
ATOM      9  C   LIG d   1      -9.160  75.082 115.980  0.00  0.00     0.028 C 
ATOM     10  C   LIG d   1      -9.130  73.592 116.359  0.00  0.00     0.006 C 
ENDBRANCH   8   9
BRANCH   8  11
ATOM     11  C   LIG d   1      -6.803  74.952 115.347  0.00  0.00     0.028 C 
ATOM     12  C   LIG d   1      -6.194  75.758 114.190  0.00  0.00     0.006 C 
ENDBRANCH   8  11
ENDBRANCH   7   8
ENDBRANCH   1   7
BRANCH   6  13
ATOM     13  N   LIG d   1      -5.225  77.697 117.712  0.00  0.00    -0.311 N 
ATOM     14  C   LIG d   1      -4.305  77.901 116.772  0.00  0.00     0.210 C 
ATOM     15  C   LIG d   1      -2.881  77.491 117.160  0.00  0.00     0.109 C 
ATOM     16  O   LIG d   1      -4.527  78.413 115.664  0.00  0.00    -0.276 OA
ATOM     17  H   LIG d   1      -4.952  77.307 118.593  0.00  0.00     0.149 HD
ENDBRANCH   6  13
BRANCH   5  18
ATOM     18  N   LIG d   1      -6.352  80.485 117.178  0.00  0.00     0.381 N 
ATOM     19  H   LIG d   1      -6.659  81.391 117.473  0.00  0.00    -0.090 HD
ATOM     20  H   LIG d   1      -6.606  80.365 116.213  0.00  0.00    -0.090 HD
ATOM     21  H   LIG d   1      -5.364  80.413 117.280  0.00  0.00    -0.090 HD
ENDBRANCH   5  18
BRANCH   3  22
ATOM     22  C   LIG d   1     -10.534  78.977 118.959  0.00  0.00     0.382 C 
ATOM     23  O   LIG d   1     -11.349  78.072 119.261  0.00  0.00    -0.241 OA
ATOM     24  O   LIG d   1     -10.872  80.170 119.072  0.00  0.00    -0.241 OA
ENDBRANCH   3  22
TORSDOF 7
ENDMDL
MODEL 6
REMARK VINA RESULT:      -5.4      1.973      4.907
REMARK  7 active torsions:
REMARK  status: ('A' for Active; 'I' for Inactive)
REMARK    1  A    between atoms: C_2  and  C_3 
REMARK    2  A    between atoms: C_3  and  O_6 
REMARK    3  A    between atoms: C_3  and  C_4 
REMARK    4  A    between atoms: C_7  and  O_6 
REMARK    5  A    between atoms: C_9  and  C_10 
REMARK    6  A    between atoms: N_15  and  C_14 
REMARK    7  A    between atoms: N_20  and  C_19 
REMARK       I    between atoms: C_22  and  N_20 
ROOT
ATOM      1  C   LIG d   1      -6.403  76.964 116.490  0.00  0.00     0.161 C 
ATOM      2  C   LIG d   1      -6.799  75.689 116.053  0.00  0.00     0.016 C 
ATOM      3  C   LIG d   1      -8.077  75.141 116.309  0.00  0.00     0.038 C 
ATOM      4  C   LIG d   1      -9.104  75.896 116.894  0.00  0.00     0.028 C 
ATOM      5  C   LIG d   1      -8.595  77.010 117.803  0.00  0.00    -0.047 C 
ATOM      6  C   LIG d   1      -7.547  77.846 117.033  0.00  0.00     0.091 C 
ENDROOT
BRANCH   1   7
ATOM      7  O   LIG d   1      -5.702  77.648 115.432  0.00  0.00    -0.368 OA
BRANCH   7   8
ATOM      8  C   LIG d   1      -4.276  77.821 115.620  0.00  0.00     0.119 C 
BRANCH   8   9
ATOM      9  C   LIG d   1      -3.561  76.880 114.631  0.00  0.00     0.028 C 
ATOM     10  C   LIG d   1      -3.150  75.548 115.280  0.00  0.00     0.006 C 
ENDBRANCH   8   9
BRANCH   8  11
ATOM     11  C   LIG d   1      -3.837  77.355 117.012  0.00  0.00     0.028 C 
ATOM     12  C   LIG d   1      -3.283  78.500 117.876  0.00  0.00     0.006 C 
ENDBRANCH   8  11
ENDBRANCH   7   8
ENDBRANCH   1   7
BRANCH   6  13
ATOM     13  N   LIG d   1      -6.936  78.906 117.878  0.00  0.00    -0.311 N 
ATOM     14  C   LIG d   1      -7.357  80.169 117.887  0.00  0.00     0.210 C 
ATOM     15  C   LIG d   1      -6.575  81.104 118.815  0.00  0.00     0.109 C 
ATOM     16  O   LIG d   1      -8.324  80.597 117.239  0.00  0.00    -0.276 OA
ATOM     17  H   LIG d   1      -6.165  78.638 118.458  0.00  0.00     0.149 HD
ENDBRANCH   6  13
BRANCH   5  18
ATOM     18  N   LIG d   1      -9.762  77.802 118.235  0.00  0.00     0.381 N 
ATOM     19  H   LIG d   1     -10.493  77.724 117.557  0.00  0.00    -0.090 HD
ATOM     20  H   LIG d   1      -9.493  78.768 118.300  0.00  0.00    -0.090 HD
ATOM     21  H   LIG d   1     -10.084  77.479 119.120  0.00  0.00    -0.090 HD
ENDBRANCH   5  18
BRANCH   3  22
ATOM     22  C   LIG d   1      -8.325  73.809 116.014  0.00  0.00     0.382 C 
ATOM     23  O   LIG d   1      -9.453  73.314 116.251  0.00  0.00    -0.241 OA
ATOM     24  O   LIG d   1      -7.421  73.085 115.555  0.00  0.00    -0.241 OA
ENDBRANCH   3  22
TORSDOF 7
ENDMDL
MODEL 7
REMARK VINA RESULT:      -5.3      4.134      6.851
REMARK  7 active torsions:
REMARK  status: ('A' for Active; 'I' for Inactive)
REMARK    1  A    between atoms: C_2  and  C_3 
REMARK    2  A    between atoms: C_3  and  O_6 
REMARK    3  A    between atoms: C_3  and  C_4 
REMARK    4  A    between atoms: C_7  and  O_6 
REMARK    5  A    between atoms: C_9  and  C_10 
REMARK    6  A    between atoms: N_15  and  C_14 
REMARK    7  A    between atoms: N_20  and  C_19 
REMARK       I    between atoms: C_22  and  N_20 
ROOT
ATOM      1  C   LIG d   1      -2.651  77.738 115.833  0.00  0.00     0.161 C 
ATOM      2  C   LIG d   1      -2.939  78.675 114.826  0.00  0.00     0.016 C 
ATOM      3  C   LIG d   1      -2.268  78.711 113.582  0.00  0.00     0.038 C 
ATOM      4  C   LIG d   1      -1.361  77.711 113.199  0.00  0.00     0.028 C 
ATOM      5  C   LIG d   1      -0.670  77.036 114.379  0.00  0.00    -0.047 C 
ATOM      6  C   LIG d   1      -1.743  76.571 115.390  0.00  0.00     0.091 C 
ENDROOT
BRANCH   1   7
ATOM      7  O   LIG d   1      -3.878  77.233 116.395  0.00  0.00    -0.368 OA
BRANCH   7   8
ATOM      8  C   LIG d   1      -5.064  77.384 115.577  0.00  0.00     0.119 C 
BRANCH   8   9
ATOM      9  C   LIG d   1      -6.221  77.790 116.510  0.00  0.00     0.028 C 
ATOM     10  C   LIG d   1      -6.131  79.261 116.950  0.00  0.00     0.006 C 
ENDBRANCH   8   9
BRANCH   8  11
ATOM     11  C   LIG d   1      -5.490  76.047 114.961  0.00  0.00     0.028 C 
ATOM     12  C   LIG d   1      -6.066  76.201 113.545  0.00  0.00     0.006 C 
ENDBRANCH   8  11
ENDBRANCH   7   8
ENDBRANCH   1   7
BRANCH   6  13
ATOM     13  N   LIG d   1      -1.148  75.976 116.615  0.00  0.00    -0.311 N 
ATOM     14  C   LIG d   1      -0.877  74.678 116.741  0.00  0.00     0.210 C 
ATOM     15  C   LIG d   1      -0.284  74.270 118.094  0.00  0.00     0.109 C 
ATOM     16  O   LIG d   1      -1.042  73.831 115.851  0.00  0.00    -0.276 OA
ATOM     17  H   LIG d   1      -0.953  76.596 117.376  0.00  0.00     0.149 HD
ENDBRANCH   6  13
BRANCH   5  18
ATOM     18  N   LIG d   1       0.140  75.925 113.845  0.00  0.00     0.381 N 
ATOM     19  H   LIG d   1      -0.451  75.270 113.373  0.00  0.00    -0.090 HD
ATOM     20  H   LIG d   1       0.587  75.452 114.610  0.00  0.00    -0.090 HD
ATOM     21  H   LIG d   1       0.827  76.277 113.215  0.00  0.00    -0.090 HD
ENDBRANCH   5  18
BRANCH   3  22
ATOM     22  C   LIG d   1      -2.473  79.779 112.722  0.00  0.00     0.382 C 
ATOM     23  O   LIG d   1      -3.006  80.832 113.146  0.00  0.00    -0.241 OA
ATOM     24  O   LIG d   1      -2.171  79.686 111.517  0.00  0.00    -0.241 OA
ENDBRANCH   3  22
TORSDOF 7
ENDMDL
MODEL 8
REMARK VINA RESULT:      -5.3      4.328      6.826
REMARK  7 active torsions:
REMARK  status: ('A' for Active; 'I' for Inactive)
REMARK    1  A    between atoms: C_2  and  C_3 
REMARK    2  A    between atoms: C_3  and  O_6 
REMARK    3  A    between atoms: C_3  and  C_4 
REMARK    4  A    between atoms: C_7  and  O_6 
REMARK    5  A    between atoms: C_9  and  C_10 
REMARK    6  A    between atoms: N_15  and  C_14 
REMARK    7  A    between atoms: N_20  and  C_19 
REMARK       I    between atoms: C_22  and  N_20 
ROOT
ATOM      1  C   LIG d   1      -2.685  75.367 115.602  0.00  0.00     0.161 C 
ATOM      2  C   LIG d   1      -2.109  74.586 116.618  0.00  0.00     0.016 C 
ATOM      3  C   LIG d   1      -0.822  74.828 117.152  0.00  0.00     0.038 C 
ATOM      4  C   LIG d   1      -0.080  75.968 116.808  0.00  0.00     0.028 C 
ATOM      5  C   LIG d   1      -0.405  76.507 115.419  0.00  0.00    -0.047 C 
ATOM      6  C   LIG d   1      -1.936  76.681 115.294  0.00  0.00     0.091 C 
ENDROOT
BRANCH   1   7
ATOM      7  O   LIG d   1      -4.064  75.640 115.918  0.00  0.00    -0.368 OA
BRANCH   7   8
ATOM      8  C   LIG d   1      -5.024  74.638 115.498  0.00  0.00     0.119 C 
BRANCH   8   9
ATOM      9  C   LIG d   1      -5.364  74.914 114.020  0.00  0.00     0.028 C 
ATOM     10  C   LIG d   1      -5.951  76.319 113.805  0.00  0.00     0.006 C 
ENDBRANCH   8   9
BRANCH   8  11
ATOM     11  C   LIG d   1      -6.348  74.784 116.253  0.00  0.00     0.028 C 
ATOM     12  C   LIG d   1      -7.323  73.629 115.975  0.00  0.00     0.006 C 
ENDBRANCH   8  11
ENDBRANCH   7   8
ENDBRANCH   1   7
BRANCH   6  13
ATOM     13  N   LIG d   1      -2.346  77.124 113.936  0.00  0.00    -0.311 N 
ATOM     14  C   LIG d   1      -2.497  78.403 113.597  0.00  0.00     0.210 C 
ATOM     15  C   LIG d   1      -2.946  78.641 112.151  0.00  0.00     0.109 C 
ATOM     16  O   LIG d   1      -2.270  79.365 114.346  0.00  0.00    -0.276 OA
ATOM     17  H   LIG d   1      -2.521  76.410 113.256  0.00  0.00     0.149 HD
ENDBRANCH   6  13
BRANCH   5  18
ATOM     18  N   LIG d   1       0.337  77.770 115.246  0.00  0.00     0.381 N 
ATOM     19  H   LIG d   1       0.667  78.093 116.134  0.00  0.00    -0.090 HD
ATOM     20  H   LIG d   1      -0.286  78.464 114.870  0.00  0.00    -0.090 HD
ATOM     21  H   LIG d   1       1.105  77.633 114.627  0.00  0.00    -0.090 HD
ENDBRANCH   5  18
BRANCH   3  22
ATOM     22  C   LIG d   1      -0.249  73.903 118.010  0.00  0.00     0.382 C 
ATOM     23  O   LIG d   1       0.902  74.102 118.469  0.00  0.00    -0.241 OA
ATOM     24  O   LIG d   1      -0.850  72.850 118.297  0.00  0.00    -0.241 OA
ENDBRANCH   3  22
TORSDOF 7
ENDMDL
MODEL 9
REMARK VINA RESULT:      -5.2      4.129      6.091
REMARK  7 active torsions:
REMARK  status: ('A' for Active; 'I' for Inactive)
REMARK    1  A    between atoms: C_2  and  C_3 
REMARK    2  A    between atoms: C_3  and  O_6 
REMARK    3  A    between atoms: C_3  and  C_4 
REMARK    4  A    between atoms: C_7  and  O_6 
REMARK    5  A    between atoms: C_9  and  C_10 
REMARK    6  A    between atoms: N_15  and  C_14 
REMARK    7  A    between atoms: N_20  and  C_19 
REMARK       I    between atoms: C_22  and  N_20 
ROOT
ATOM      1  C   LIG d   1      -3.762  75.668 115.633  0.00  0.00     0.161 C 
ATOM      2  C   LIG d   1      -4.518  74.605 116.153  0.00  0.00     0.016 C 
ATOM      3  C   LIG d   1      -5.792  74.241 115.658  0.00  0.00     0.038 C 
ATOM      4  C   LIG d   1      -6.333  74.824 114.503  0.00  0.00     0.028 C 
ATOM      5  C   LIG d   1      -5.832  76.242 114.249  0.00  0.00    -0.047 C 
ATOM      6  C   LIG d   1      -4.287  76.245 114.301  0.00  0.00     0.091 C 
ENDROOT
BRANCH   1   7
ATOM      7  O   LIG d   1      -2.384  75.267 115.496  0.00  0.00    -0.368 OA
BRANCH   7   8
ATOM      8  C   LIG d   1      -1.524  75.544 116.629  0.00  0.00     0.119 C 
BRANCH   8   9
ATOM      9  C   LIG d   1      -0.381  76.449 116.132  0.00  0.00     0.028 C 
ATOM     10  C   LIG d   1      -0.629  77.934 116.445  0.00  0.00     0.006 C 
ENDBRANCH   8   9
BRANCH   8  11
ATOM     11  C   LIG d   1      -0.842  74.269 117.135  0.00  0.00     0.028 C 
ATOM     12  C   LIG d   1       0.576  74.525 117.669  0.00  0.00     0.006 C 
ENDBRANCH   8  11
ENDBRANCH   7   8
ENDBRANCH   1   7
BRANCH   6  13
ATOM     13  N   LIG d   1      -3.718  77.609 114.146  0.00  0.00    -0.311 N 
ATOM     14  C   LIG d   1      -2.727  77.898 113.304  0.00  0.00     0.210 C 
ATOM     15  C   LIG d   1      -2.275  79.362 113.315  0.00  0.00     0.109 C 
ATOM     16  O   LIG d   1      -2.200  77.088 112.527  0.00  0.00    -0.276 OA
ATOM     17  H   LIG d   1      -4.107  78.334 114.717  0.00  0.00     0.149 HD
ENDBRANCH   6  13
BRANCH   5  18
ATOM     18  N   LIG d   1      -6.367  76.677 112.945  0.00  0.00     0.381 N 
ATOM     19  H   LIG d   1      -7.251  77.127 113.075  0.00  0.00    -0.090 HD
ATOM     20  H   LIG d   1      -6.508  75.868 112.365  0.00  0.00    -0.090 HD
ATOM     21  H   LIG d   1      -5.729  77.303 112.506  0.00  0.00    -0.090 HD
ENDBRANCH   5  18
BRANCH   3  22
ATOM     22  C   LIG d   1      -6.555  73.309 116.346  0.00  0.00     0.382 C 
ATOM     23  O   LIG d   1      -6.996  73.581 117.488  0.00  0.00    -0.241 OA
ATOM     24  O   LIG d   1      -6.771  72.185 115.856  0.00  0.00    -0.241 OA
ENDBRANCH   3  22
TORSDOF 7
ENDMDL
