MODEL 1
REMARK VINA RESULT:      -5.4      0.000      0.000
REMARK  7 active torsions:
REMARK  status: ('A' for Active; 'I' for Inactive)
REMARK    1  A    between atoms: C_2  and  C_3 
REMARK    2  A    between atoms: C_3  and  O_6 
REMARK    3  A    between atoms: C_3  and  C_4 
REMARK    4  A    between atoms: C_7  and  O_6 
REMARK    5  A    between atoms: C_9  and  C_10 
REMARK    6  A    between atoms: N_15  and  C_14 
REMARK    7  A    between atoms: N_20  and  C_19 
REMARK       I    between atoms: C_22  and  N_20 
ROOT
ATOM      1  C   LIG d   1       1.766  85.826 114.083  0.00  0.00     0.161 C 
ATOM      2  C   LIG d   1       2.294  86.896 113.342  0.00  0.00     0.016 C 
ATOM      3  C   LIG d   1       3.649  87.294 113.408  0.00  0.00     0.038 C 
ATOM      4  C   LIG d   1       4.608  86.548 114.111  0.00  0.00     0.028 C 
ATOM      5  C   LIG d   1       4.024  85.757 115.276  0.00  0.00    -0.047 C 
ATOM      6  C   LIG d   1       2.819  84.932 114.769  0.00  0.00     0.091 C 
ENDROOT
BRANCH   1   7
ATOM      7  O   LIG d   1       0.903  85.032 113.245  0.00  0.00    -0.368 OA
BRANCH   7   8
ATOM      8  C   LIG d   1       1.057  85.213 111.816  0.00  0.00     0.119 C 
BRANCH   8   9
ATOM      9  C   LIG d   1      -0.355  85.285 111.203  0.00  0.00     0.028 C 
ATOM     10  C   LIG d   1      -0.970  86.691 111.310  0.00  0.00     0.006 C 
ENDBRANCH   8   9
BRANCH   8  11
ATOM     11  C   LIG d   1       1.719  83.994 111.168  0.00  0.00     0.028 C 
ATOM     12  C   LIG d   1       3.246  84.134 111.056  0.00  0.00     0.006 C 
ENDBRANCH   8  11
ENDBRANCH   7   8
ENDBRANCH   1   7
BRANCH   6  13
ATOM     13  N   LIG d   1       2.137  84.193 115.864  0.00  0.00    -0.311 N 
ATOM     14  C   LIG d   1       2.442  82.942 116.204  0.00  0.00     0.210 C 
ATOM     15  C   LIG d   1       1.604  82.360 117.347  0.00  0.00     0.109 C 
ATOM     16  O   LIG d   1       3.348  82.269 115.689  0.00  0.00    -0.276 OA
ATOM     17  H   LIG d   1       1.410  84.674 116.355  0.00  0.00     0.149 HD
ENDBRANCH   6  13
BRANCH   5  18
ATOM     18  N   LIG d   1       5.104  84.921 115.833  0.00  0.00     0.381 N 
ATOM     19  H   LIG d   1       5.857  85.502 116.143  0.00  0.00    -0.090 HD
ATOM     20  H   LIG d   1       5.451  84.314 115.110  0.00  0.00    -0.090 HD
ATOM     21  H   LIG d   1       4.758  84.379 116.594  0.00  0.00    -0.090 HD
ENDBRANCH   5  18
BRANCH   3  22
ATOM     22  C   LIG d   1       4.050  88.474 112.799  0.00  0.00     0.382 C 
ATOM     23  O   LIG d   1       3.205  89.363 112.539  0.00  0.00    -0.241 OA
ATOM     24  O   LIG d   1       5.239  88.641 112.466  0.00  0.00    -0.241 OA
ENDBRANCH   3  22
TORSDOF 7
ENDMDL
MODEL 2
REMARK VINA RESULT:      -5.3     14.311     16.379
REMARK  7 active torsions:
REMARK  status: ('A' for Active; 'I' for Inactive)
REMARK    1  A    between atoms: C_2  and  C_3 
REMARK    2  A    between atoms: C_3  and  O_6 
REMARK    3  A    between atoms: C_3  and  C_4 
REMARK    4  A    between atoms: C_7  and  O_6 
REMARK    5  A    between atoms: C_9  and  C_10 
REMARK    6  A    between atoms: N_15  and  C_14 
REMARK    7  A    between atoms: N_20  and  C_19 
REMARK       I    between atoms: C_22  and  N_20 
ROOT
ATOM      1  C   LIG d   1      -8.161  74.796 117.568  0.00  0.00     0.161 C 
ATOM      2  C   LIG d   1      -8.205  76.167 117.870  0.00  0.00     0.016 C 
ATOM      3  C   LIG d   1      -9.347  76.812 118.397  0.00  0.00     0.038 C 
ATOM      4  C   LIG d   1     -10.483  76.095 118.802  0.00  0.00     0.028 C 
ATOM      5  C   LIG d   1     -10.671  74.782 118.049  0.00  0.00    -0.047 C 
ATOM      6  C   LIG d   1      -9.353  73.977 118.107  0.00  0.00     0.091 C 
ENDROOT
BRANCH   1   7
ATOM      7  O   LIG d   1      -6.917  74.233 118.030  0.00  0.00    -0.368 OA
BRANCH   7   8
ATOM      8  C   LIG d   1      -6.026  73.729 117.005  0.00  0.00     0.119 C 
BRANCH   8   9
ATOM      9  C   LIG d   1      -4.745  74.585 117.043  0.00  0.00     0.028 C 
ATOM     10  C   LIG d   1      -3.548  73.825 117.638  0.00  0.00     0.006 C 
ENDBRANCH   8   9
BRANCH   8  11
ATOM     11  C   LIG d   1      -6.612  73.938 115.605  0.00  0.00     0.028 C 
ATOM     12  C   LIG d   1      -5.739  74.845 114.723  0.00  0.00     0.006 C 
ENDBRANCH   8  11
ENDBRANCH   7   8
ENDBRANCH   1   7
BRANCH   6  13
ATOM     13  N   LIG d   1      -9.423  72.716 117.323  0.00  0.00    -0.311 N 
ATOM     14  C   LIG d   1      -8.987  71.544 117.780  0.00  0.00     0.210 C 
ATOM     15  C   LIG d   1      -9.136  70.373 116.803  0.00  0.00     0.109 C 
ATOM     16  O   LIG d   1      -8.521  71.355 118.914  0.00  0.00    -0.276 OA
ATOM     17  H   LIG d   1      -9.816  72.772 116.404  0.00  0.00     0.149 HD
ENDBRANCH   6  13
BRANCH   5  18
ATOM     18  N   LIG d   1     -11.809  74.074 118.664  0.00  0.00     0.381 N 
ATOM     19  H   LIG d   1     -12.132  74.582 119.463  0.00  0.00    -0.090 HD
ATOM     20  H   LIG d   1     -11.501  73.168 118.970  0.00  0.00    -0.090 HD
ATOM     21  H   LIG d   1     -12.548  73.976 118.003  0.00  0.00    -0.090 HD
ENDBRANCH   5  18
BRANCH   3  22
ATOM     22  C   LIG d   1      -9.376  78.196 118.486  0.00  0.00     0.382 C 
ATOM     23  O   LIG d   1     -10.442  78.782 118.793  0.00  0.00    -0.241 OA
ATOM     24  O   LIG d   1      -8.361  78.867 118.219  0.00  0.00    -0.241 OA
ENDBRANCH   3  22
TORSDOF 7
ENDMDL
MODEL 3
REMARK VINA RESULT:      -5.3      7.339      9.518
REMARK  7 active torsions:
REMARK  status: ('A' for Active; 'I' for Inactive)
REMARK    1  A    between atoms: C_2  and  C_3 
REMARK    2  A    between atoms: C_3  and  O_6 
REMARK    3  A    between atoms: C_3  and  C_4 
REMARK    4  A    between atoms: C_7  and  O_6 
REMARK    5  A    between atoms: C_9  and  C_10 
REMARK    6  A    between atoms: N_15  and  C_14 
REMARK    7  A    between atoms: N_20  and  C_19 
REMARK       I    between atoms: C_22  and  N_20 
ROOT
ATOM      1  C   LIG d   1      -1.550  78.550 114.601  0.00  0.00     0.161 C 
ATOM      2  C   LIG d   1      -1.989  79.792 114.114  0.00  0.00     0.016 C 
ATOM      3  C   LIG d   1      -2.519  79.976 112.816  0.00  0.00     0.038 C 
ATOM      4  C   LIG d   1      -2.788  78.894 111.965  0.00  0.00     0.028 C 
ATOM      5  C   LIG d   1      -1.895  77.685 112.221  0.00  0.00    -0.047 C 
ATOM      6  C   LIG d   1      -1.939  77.339 113.727  0.00  0.00     0.091 C 
ENDROOT
BRANCH   1   7
ATOM      7  O   LIG d   1      -2.016  78.363 115.952  0.00  0.00    -0.368 OA
BRANCH   7   8
ATOM      8  C   LIG d   1      -2.906  79.384 116.467  0.00  0.00     0.119 C 
BRANCH   8   9
ATOM      9  C   LIG d   1      -2.358  79.828 117.837  0.00  0.00     0.028 C 
ATOM     10  C   LIG d   1      -1.039  80.610 117.716  0.00  0.00     0.006 C 
ENDBRANCH   8   9
BRANCH   8  11
ATOM     11  C   LIG d   1      -4.299  78.816 116.751  0.00  0.00     0.028 C 
ATOM     12  C   LIG d   1      -5.321  79.903 117.121  0.00  0.00     0.006 C 
ENDBRANCH   8  11
ENDBRANCH   7   8
ENDBRANCH   1   7
BRANCH   6  13
ATOM     13  N   LIG d   1      -1.027  76.220 114.079  0.00  0.00    -0.311 N 
ATOM     14  C   LIG d   1      -1.410  75.154 114.780  0.00  0.00     0.210 C 
ATOM     15  C   LIG d   1      -0.306  74.126 115.049  0.00  0.00     0.109 C 
ATOM     16  O   LIG d   1      -2.566  74.948 115.178  0.00  0.00    -0.276 OA
ATOM     17  H   LIG d   1      -0.077  76.290 113.769  0.00  0.00     0.149 HD
ENDBRANCH   6  13
BRANCH   5  18
ATOM     18  N   LIG d   1      -2.374  76.586 111.361  0.00  0.00     0.381 N 
ATOM     19  H   LIG d   1      -2.847  76.962 110.564  0.00  0.00    -0.090 HD
ATOM     20  H   LIG d   1      -3.028  76.028 111.881  0.00  0.00    -0.090 HD
ATOM     21  H   LIG d   1      -1.606  76.024 111.067  0.00  0.00    -0.090 HD
ENDBRANCH   5  18
BRANCH   3  22
ATOM     22  C   LIG d   1      -2.748  81.259 112.343  0.00  0.00     0.382 C 
ATOM     23  O   LIG d   1      -3.923  81.682 112.220  0.00  0.00    -0.241 OA
ATOM     24  O   LIG d   1      -1.797  81.984 111.995  0.00  0.00    -0.241 OA
ENDBRANCH   3  22
TORSDOF 7
ENDMDL
MODEL 4
REMARK VINA RESULT:      -5.3     13.807     16.983
REMARK  7 active torsions:
REMARK  status: ('A' for Active; 'I' for Inactive)
REMARK    1  A    between atoms: C_2  and  C_3 
REMARK    2  A    between atoms: C_3  and  O_6 
REMARK    3  A    between atoms: C_3  and  C_4 
REMARK    4  A    between atoms: C_7  and  O_6 
REMARK    5  A    between atoms: C_9  and  C_10 
REMARK    6  A    between atoms: N_15  and  C_14 
REMARK    7  A    between atoms: N_20  and  C_19 
REMARK       I    between atoms: C_22  and  N_20 
ROOT
ATOM      1  C   LIG d   1      -8.738  73.965 119.111  0.00  0.00     0.161 C 
ATOM      2  C   LIG d   1     -10.141  74.023 119.052  0.00  0.00     0.016 C 
ATOM      3  C   LIG d   1     -10.859  75.203 118.752  0.00  0.00     0.038 C 
ATOM      4  C   LIG d   1     -10.214  76.378 118.340  0.00  0.00     0.028 C 
ATOM      5  C   LIG d   1      -8.792  76.508 118.873  0.00  0.00    -0.047 C 
ATOM      6  C   LIG d   1      -8.016  75.210 118.555  0.00  0.00     0.091 C 
ENDROOT
BRANCH   1   7
ATOM      7  O   LIG d   1      -8.270  72.775 118.445  0.00  0.00    -0.368 OA
BRANCH   7   8
ATOM      8  C   LIG d   1      -8.394  72.761 117.002  0.00  0.00     0.119 C 
BRANCH   8   9
ATOM      9  C   LIG d   1      -9.393  71.647 116.634  0.00  0.00     0.028 C 
ATOM     10  C   LIG d   1      -8.974  70.276 117.191  0.00  0.00     0.006 C 
ENDBRANCH   8   9
BRANCH   8  11
ATOM     11  C   LIG d   1      -7.076  72.361 116.333  0.00  0.00     0.028 C 
ATOM     12  C   LIG d   1      -6.458  73.499 115.506  0.00  0.00     0.006 C 
ENDBRANCH   8  11
ENDBRANCH   7   8
ENDBRANCH   1   7
BRANCH   6  13
ATOM     13  N   LIG d   1      -6.640  75.219 119.116  0.00  0.00    -0.311 N 
ATOM     14  C   LIG d   1      -5.582  75.689 118.456  0.00  0.00     0.210 C 
ATOM     15  C   LIG d   1      -4.252  75.587 119.209  0.00  0.00     0.109 C 
ATOM     16  O   LIG d   1      -5.625  76.211 117.332  0.00  0.00    -0.276 OA
ATOM     17  H   LIG d   1      -6.520  74.843 120.036  0.00  0.00     0.149 HD
ENDBRANCH   6  13
BRANCH   5  18
ATOM     18  N   LIG d   1      -8.192  77.706 118.255  0.00  0.00     0.381 N 
ATOM     19  H   LIG d   1      -7.797  78.291 118.964  0.00  0.00    -0.090 HD
ATOM     20  H   LIG d   1      -8.912  78.224 117.784  0.00  0.00    -0.090 HD
ATOM     21  H   LIG d   1      -7.486  77.438 117.605  0.00  0.00    -0.090 HD
ENDBRANCH   5  18
BRANCH   3  22
ATOM     22  C   LIG d   1     -12.237  75.226 118.903  0.00  0.00     0.382 C 
ATOM     23  O   LIG d   1     -12.841  74.202 119.304  0.00  0.00    -0.241 OA
ATOM     24  O   LIG d   1     -12.889  76.243 118.601  0.00  0.00    -0.241 OA
ENDBRANCH   3  22
TORSDOF 7
ENDMDL
MODEL 5
REMARK VINA RESULT:      -4.9     13.758     15.888
REMARK  7 active torsions:
REMARK  status: ('A' for Active; 'I' for Inactive)
REMARK    1  A    between atoms: C_2  and  C_3 
REMARK    2  A    between atoms: C_3  and  O_6 
REMARK    3  A    between atoms: C_3  and  C_4 
REMARK    4  A    between atoms: C_7  and  O_6 
REMARK    5  A    between atoms: C_9  and  C_10 
REMARK    6  A    between atoms: N_15  and  C_14 
REMARK    7  A    between atoms: N_20  and  C_19 
REMARK       I    between atoms: C_22  and  N_20 
ROOT
ATOM      1  C   LIG d   1      -7.929  74.910 118.994  0.00  0.00     0.161 C 
ATOM      2  C   LIG d   1      -9.051  75.742 119.144  0.00  0.00     0.016 C 
ATOM      3  C   LIG d   1      -9.156  77.022 118.552  0.00  0.00     0.038 C 
ATOM      4  C   LIG d   1      -8.202  77.496 117.638  0.00  0.00     0.028 C 
ATOM      5  C   LIG d   1      -6.813  76.905 117.851  0.00  0.00    -0.047 C 
ATOM      6  C   LIG d   1      -6.927  75.364 117.912  0.00  0.00     0.091 C 
ENDROOT
BRANCH   1   7
ATOM      7  O   LIG d   1      -8.354  73.556 118.747  0.00  0.00    -0.368 OA
BRANCH   7   8
ATOM      8  C   LIG d   1      -9.025  73.319 117.484  0.00  0.00     0.119 C 
BRANCH   8   9
ATOM      9  C   LIG d   1     -10.542  73.380 117.748  0.00  0.00     0.028 C 
ATOM     10  C   LIG d   1     -10.953  72.586 119.000  0.00  0.00     0.006 C 
ENDBRANCH   8   9
BRANCH   8  11
ATOM     11  C   LIG d   1      -8.760  71.902 116.969  0.00  0.00     0.028 C 
ATOM     12  C   LIG d   1      -7.346  71.734 116.390  0.00  0.00     0.006 C 
ENDBRANCH   8  11
ENDBRANCH   7   8
ENDBRANCH   1   7
BRANCH   6  13
ATOM     13  N   LIG d   1      -5.624  74.711 118.202  0.00  0.00    -0.311 N 
ATOM     14  C   LIG d   1      -4.800  74.267 117.255  0.00  0.00     0.210 C 
ATOM     15  C   LIG d   1      -3.518  73.606 117.771  0.00  0.00     0.109 C 
ATOM     16  O   LIG d   1      -4.994  74.386 116.036  0.00  0.00    -0.276 OA
ATOM     17  H   LIG d   1      -5.373  74.601 119.165  0.00  0.00     0.149 HD
ENDBRANCH   6  13
BRANCH   5  18
ATOM     18  N   LIG d   1      -5.954  77.378 116.750  0.00  0.00     0.381 N 
ATOM     19  H   LIG d   1      -6.515  77.591 115.950  0.00  0.00    -0.090 HD
ATOM     20  H   LIG d   1      -5.314  76.645 116.499  0.00  0.00    -0.090 HD
ATOM     21  H   LIG d   1      -5.448  78.187 117.035  0.00  0.00    -0.090 HD
ENDBRANCH   5  18
BRANCH   3  22
ATOM     22  C   LIG d   1     -10.205  77.857 118.902  0.00  0.00     0.382 C 
ATOM     23  O   LIG d   1     -11.288  77.369 119.305  0.00  0.00    -0.241 OA
ATOM     24  O   LIG d   1     -10.097  79.092 118.779  0.00  0.00    -0.241 OA
ENDBRANCH   3  22
TORSDOF 7
ENDMDL
MODEL 6
REMARK VINA RESULT:      -4.9     12.413     15.330
REMARK  7 active torsions:
REMARK  status: ('A' for Active; 'I' for Inactive)
REMARK    1  A    between atoms: C_2  and  C_3 
REMARK    2  A    between atoms: C_3  and  O_6 
REMARK    3  A    between atoms: C_3  and  C_4 
REMARK    4  A    between atoms: C_7  and  O_6 
REMARK    5  A    between atoms: C_9  and  C_10 
REMARK    6  A    between atoms: N_15  and  C_14 
REMARK    7  A    between atoms: N_20  and  C_19 
REMARK       I    between atoms: C_22  and  N_20 
ROOT
ATOM      1  C   LIG d   1      -7.015  74.701 118.343  0.00  0.00     0.161 C 
ATOM      2  C   LIG d   1      -8.408  74.637 118.171  0.00  0.00     0.016 C 
ATOM      3  C   LIG d   1      -9.231  75.781 118.059  0.00  0.00     0.038 C 
ATOM      4  C   LIG d   1      -8.695  77.073 117.959  0.00  0.00     0.028 C 
ATOM      5  C   LIG d   1      -7.336  77.219 118.633  0.00  0.00    -0.047 C 
ATOM      6  C   LIG d   1      -6.400  76.099 118.124  0.00  0.00     0.091 C 
ENDROOT
BRANCH   1   7
ATOM      7  O   LIG d   1      -6.373  73.732 117.490  0.00  0.00    -0.368 OA
BRANCH   7   8
ATOM      8  C   LIG d   1      -7.000  73.500 116.205  0.00  0.00     0.119 C 
BRANCH   8   9
ATOM      9  C   LIG d   1      -7.141  71.975 116.027  0.00  0.00     0.028 C 
ATOM     10  C   LIG d   1      -8.521  71.459 116.470  0.00  0.00     0.006 C 
ENDBRANCH   8   9
BRANCH   8  11
ATOM     11  C   LIG d   1      -6.100  73.960 115.054  0.00  0.00     0.028 C 
ATOM     12  C   LIG d   1      -6.420  75.387 114.581  0.00  0.00     0.006 C 
ENDBRANCH   8  11
ENDBRANCH   7   8
ENDBRANCH   1   7
BRANCH   6  13
ATOM     13  N   LIG d   1      -5.075  76.118 118.796  0.00  0.00    -0.311 N 
ATOM     14  C   LIG d   1      -3.921  76.234 118.140  0.00  0.00     0.210 C 
ATOM     15  C   LIG d   1      -2.670  76.211 119.024  0.00  0.00     0.109 C 
ATOM     16  O   LIG d   1      -3.818  76.386 116.914  0.00  0.00    -0.276 OA
ATOM     17  H   LIG d   1      -5.068  76.031 119.794  0.00  0.00     0.149 HD
ENDBRANCH   6  13
BRANCH   5  18
ATOM     18  N   LIG d   1      -6.833  78.573 118.334  0.00  0.00     0.381 N 
ATOM     19  H   LIG d   1      -7.311  79.245 118.900  0.00  0.00    -0.090 HD
ATOM     20  H   LIG d   1      -7.020  78.783 117.369  0.00  0.00    -0.090 HD
ATOM     21  H   LIG d   1      -5.853  78.619 118.508  0.00  0.00    -0.090 HD
ENDBRANCH   5  18
BRANCH   3  22
ATOM     22  C   LIG d   1     -10.611  75.640 118.087  0.00  0.00     0.382 C 
ATOM     23  O   LIG d   1     -11.328  76.574 118.521  0.00  0.00    -0.241 OA
ATOM     24  O   LIG d   1     -11.144  74.574 117.726  0.00  0.00    -0.241 OA
ENDBRANCH   3  22
TORSDOF 7
ENDMDL
MODEL 7
REMARK VINA RESULT:      -4.9      9.113     12.667
REMARK  7 active torsions:
REMARK  status: ('A' for Active; 'I' for Inactive)
REMARK    1  A    between atoms: C_2  and  C_3 
REMARK    2  A    between atoms: C_3  and  O_6 
REMARK    3  A    between atoms: C_3  and  C_4 
REMARK    4  A    between atoms: C_7  and  O_6 
REMARK    5  A    between atoms: C_9  and  C_10 
REMARK    6  A    between atoms: N_15  and  C_14 
REMARK    7  A    between atoms: N_20  and  C_19 
REMARK       I    between atoms: C_22  and  N_20 
ROOT
ATOM      1  C   LIG d   1      -2.615  75.087 115.202  0.00  0.00     0.161 C 
ATOM      2  C   LIG d   1      -2.434  74.150 116.233  0.00  0.00     0.016 C 
ATOM      3  C   LIG d   1      -1.556  74.352 117.323  0.00  0.00     0.038 C 
ATOM      4  C   LIG d   1      -0.909  75.578 117.536  0.00  0.00     0.028 C 
ATOM      5  C   LIG d   1      -0.671  76.368 116.253  0.00  0.00    -0.047 C 
ATOM      6  C   LIG d   1      -2.002  76.476 115.475  0.00  0.00     0.091 C 
ENDROOT
BRANCH   1   7
ATOM      7  O   LIG d   1      -4.018  75.210 114.894  0.00  0.00    -0.368 OA
BRANCH   7   8
ATOM      8  C   LIG d   1      -4.936  74.692 115.888  0.00  0.00     0.119 C 
BRANCH   8   9
ATOM      9  C   LIG d   1      -6.090  74.000 115.137  0.00  0.00     0.028 C 
ATOM     10  C   LIG d   1      -6.851  73.000 116.024  0.00  0.00     0.006 C 
ENDBRANCH   8   9
BRANCH   8  11
ATOM     11  C   LIG d   1      -5.592  75.825 116.684  0.00  0.00     0.028 C 
ATOM     12  C   LIG d   1      -5.176  75.833 118.163  0.00  0.00     0.006 C 
ENDBRANCH   8  11
ENDBRANCH   7   8
ENDBRANCH   1   7
BRANCH   6  13
ATOM     13  N   LIG d   1      -1.840  77.162 114.167  0.00  0.00    -0.311 N 
ATOM     14  C   LIG d   1      -2.521  78.253 113.822  0.00  0.00     0.210 C 
ATOM     15  C   LIG d   1      -2.217  78.788 112.419  0.00  0.00     0.109 C 
ATOM     16  O   LIG d   1      -3.324  78.848 114.556  0.00  0.00    -0.276 OA
ATOM     17  H   LIG d   1      -1.185  76.764 113.521  0.00  0.00     0.149 HD
ENDBRANCH   6  13
BRANCH   5  18
ATOM     18  N   LIG d   1      -0.116  77.681 116.635  0.00  0.00     0.381 N 
ATOM     19  H   LIG d   1       0.847  77.581 116.886  0.00  0.00    -0.090 HD
ATOM     20  H   LIG d   1      -0.617  78.025 117.435  0.00  0.00    -0.090 HD
ATOM     21  H   LIG d   1      -0.205  78.322 115.877  0.00  0.00    -0.090 HD
ENDBRANCH   5  18
BRANCH   3  22
ATOM     22  C   LIG d   1      -1.288  73.306 118.192  0.00  0.00     0.382 C 
ATOM     23  O   LIG d   1      -2.194  72.491 118.491  0.00  0.00    -0.241 OA
ATOM     24  O   LIG d   1      -0.164  73.193 118.717  0.00  0.00    -0.241 OA
ENDBRANCH   3  22
TORSDOF 7
ENDMDL
MODEL 8
REMARK VINA RESULT:      -4.8      9.231     11.577
REMARK  7 active torsions:
REMARK  status: ('A' for Active; 'I' for Inactive)
REMARK    1  A    between atoms: C_2  and  C_3 
REMARK    2  A    between atoms: C_3  and  O_6 
REMARK    3  A    between atoms: C_3  and  C_4 
REMARK    4  A    between atoms: C_7  and  O_6 
REMARK    5  A    between atoms: C_9  and  C_10 
REMARK    6  A    between atoms: N_15  and  C_14 
REMARK    7  A    between atoms: N_20  and  C_19 
REMARK       I    between atoms: C_22  and  N_20 
ROOT
ATOM      1  C   LIG d   1      -1.624  75.748 114.593  0.00  0.00     0.161 C 
ATOM      2  C   LIG d   1      -0.752  75.151 113.668  0.00  0.00     0.016 C 
ATOM      3  C   LIG d   1      -0.110  73.911 113.891  0.00  0.00     0.038 C 
ATOM      4  C   LIG d   1      -0.418  73.107 114.999  0.00  0.00     0.028 C 
ATOM      5  C   LIG d   1      -0.911  73.899 116.205  0.00  0.00    -0.047 C 
ATOM      6  C   LIG d   1      -2.058  74.833 115.756  0.00  0.00     0.091 C 
ENDROOT
BRANCH   1   7
ATOM      7  O   LIG d   1      -2.780  76.270 113.907  0.00  0.00    -0.368 OA
BRANCH   7   8
ATOM      8  C   LIG d   1      -2.853  77.712 113.787  0.00  0.00     0.119 C 
BRANCH   8   9
ATOM      9  C   LIG d   1      -2.637  78.063 112.302  0.00  0.00     0.028 C 
ATOM     10  C   LIG d   1      -1.955  79.429 112.116  0.00  0.00     0.006 C 
ENDBRANCH   8   9
BRANCH   8  11
ATOM     11  C   LIG d   1      -1.704  78.392 114.536  0.00  0.00     0.028 C 
ATOM     12  C   LIG d   1      -2.181  79.183 115.765  0.00  0.00     0.006 C 
ENDBRANCH   8  11
ENDBRANCH   7   8
ENDBRANCH   1   7
BRANCH   6  13
ATOM     13  N   LIG d   1      -2.542  75.705 116.858  0.00  0.00    -0.311 N 
ATOM     14  C   LIG d   1      -3.593  75.408 117.620  0.00  0.00     0.210 C 
ATOM     15  C   LIG d   1      -3.935  76.453 118.686  0.00  0.00     0.109 C 
ATOM     16  O   LIG d   1      -4.255  74.362 117.536  0.00  0.00    -0.276 OA
ATOM     17  H   LIG d   1      -2.044  76.559 117.017  0.00  0.00     0.149 HD
ENDBRANCH   6  13
BRANCH   5  18
ATOM     18  N   LIG d   1      -1.325  72.928 117.236  0.00  0.00     0.381 N 
ATOM     19  H   LIG d   1      -2.160  72.460 116.945  0.00  0.00    -0.090 HD
ATOM     20  H   LIG d   1      -1.522  73.424 118.088  0.00  0.00    -0.090 HD
ATOM     21  H   LIG d   1      -0.599  72.264 117.390  0.00  0.00    -0.090 HD
ENDBRANCH   5  18
BRANCH   3  22
ATOM     22  C   LIG d   1       0.881  73.484 113.021  0.00  0.00     0.382 C 
ATOM     23  O   LIG d   1       1.304  74.254 112.126  0.00  0.00    -0.241 OA
ATOM     24  O   LIG d   1       1.326  72.322 113.092  0.00  0.00    -0.241 OA
ENDBRANCH   3  22
TORSDOF 7
ENDMDL
MODEL 9
REMARK VINA RESULT:      -4.8     13.644     16.463
REMARK  7 active torsions:
REMARK  status: ('A' for Active; 'I' for Inactive)
REMARK    1  A    between atoms: C_2  and  C_3 
REMARK    2  A    between atoms: C_3  and  O_6 
REMARK    3  A    between atoms: C_3  and  C_4 
REMARK    4  A    between atoms: C_7  and  O_6 
REMARK    5  A    between atoms: C_9  and  C_10 
REMARK    6  A    between atoms: N_15  and  C_14 
REMARK    7  A    between atoms: N_20  and  C_19 
REMARK       I    between atoms: C_22  and  N_20 
ROOT
ATOM      1  C   LIG d   1      -7.994  74.367 118.679  0.00  0.00     0.161 C 
ATOM      2  C   LIG d   1      -7.458  75.665 118.627  0.00  0.00     0.016 C 
ATOM      3  C   LIG d   1      -6.687  76.146 117.543  0.00  0.00     0.038 C 
ATOM      4  C   LIG d   1      -6.526  75.406 116.362  0.00  0.00     0.028 C 
ATOM      5  C   LIG d   1      -6.624  73.899 116.573  0.00  0.00    -0.047 C 
ATOM      6  C   LIG d   1      -7.923  73.585 117.351  0.00  0.00     0.091 C 
ENDROOT
BRANCH   1   7
ATOM      7  O   LIG d   1      -9.353  74.419 119.158  0.00  0.00    -0.368 OA
BRANCH   7   8
ATOM      8  C   LIG d   1     -10.354  74.820 118.191  0.00  0.00     0.119 C 
BRANCH   8   9
ATOM      9  C   LIG d   1     -10.872  76.209 118.611  0.00  0.00     0.028 C 
ATOM     10  C   LIG d   1     -12.365  76.192 118.982  0.00  0.00     0.006 C 
ENDBRANCH   8   9
BRANCH   8  11
ATOM     11  C   LIG d   1     -11.577  73.899 118.241  0.00  0.00     0.028 C 
ATOM     12  C   LIG d   1     -11.427  72.764 119.266  0.00  0.00     0.006 C 
ENDBRANCH   8  11
ENDBRANCH   7   8
ENDBRANCH   1   7
BRANCH   6  13
ATOM     13  N   LIG d   1      -8.054  72.140 117.673  0.00  0.00    -0.311 N 
ATOM     14  C   LIG d   1      -8.948  71.338 117.096  0.00  0.00     0.210 C 
ATOM     15  C   LIG d   1      -8.928  69.888 117.587  0.00  0.00     0.109 C 
ATOM     16  O   LIG d   1      -9.732  71.683 116.199  0.00  0.00    -0.276 OA
ATOM     17  H   LIG d   1      -7.436  71.769 118.368  0.00  0.00     0.149 HD
ENDBRANCH   6  13
BRANCH   5  18
ATOM     18  N   LIG d   1      -6.577  73.259 115.245  0.00  0.00     0.381 N 
ATOM     19  H   LIG d   1      -7.131  72.426 115.250  0.00  0.00    -0.090 HD
ATOM     20  H   LIG d   1      -5.626  73.004 115.041  0.00  0.00    -0.090 HD
ATOM     21  H   LIG d   1      -6.915  73.888 114.551  0.00  0.00    -0.090 HD
ENDBRANCH   5  18
BRANCH   3  22
ATOM     22  C   LIG d   1      -6.035  77.364 117.652  0.00  0.00     0.382 C 
ATOM     23  O   LIG d   1      -4.837  77.403 118.025  0.00  0.00    -0.241 OA
ATOM     24  O   LIG d   1      -6.641  78.428 117.423  0.00  0.00    -0.241 OA
ENDBRANCH   3  22
TORSDOF 7
ENDMDL
