MODEL 1
REMARK VINA RESULT:      -5.3      0.000      0.000
REMARK  7 active torsions:
REMARK  status: ('A' for Active; 'I' for Inactive)
REMARK    1  A    between atoms: C_2  and  C_3 
REMARK    2  A    between atoms: C_3  and  O_6 
REMARK    3  A    between atoms: C_3  and  C_4 
REMARK    4  A    between atoms: C_7  and  O_6 
REMARK    5  A    between atoms: C_9  and  C_10 
REMARK    6  A    between atoms: N_15  and  C_14 
REMARK    7  A    between atoms: N_20  and  C_19 
REMARK       I    between atoms: C_22  and  N_20 
ROOT
ATOM      1  C   LIG d   1      -1.776  75.797 114.978  0.00  0.00     0.161 C 
ATOM      2  C   LIG d   1      -1.607  74.956 116.091  0.00  0.00     0.016 C 
ATOM      3  C   LIG d   1      -0.866  75.322 117.238  0.00  0.00     0.038 C 
ATOM      4  C   LIG d   1      -0.366  76.621 117.414  0.00  0.00     0.028 C 
ATOM      5  C   LIG d   1      -0.080  77.343 116.101  0.00  0.00    -0.047 C 
ATOM      6  C   LIG d   1      -1.331  77.258 115.199  0.00  0.00     0.091 C 
ENDROOT
BRANCH   1   7
ATOM      7  O   LIG d   1      -3.146  75.752 114.535  0.00  0.00    -0.368 OA
BRANCH   7   8
ATOM      8  C   LIG d   1      -4.141  75.511 115.561  0.00  0.00     0.119 C 
BRANCH   8   9
ATOM      9  C   LIG d   1      -5.358  74.855 114.881  0.00  0.00     0.028 C 
ATOM     10  C   LIG d   1      -6.407  75.886 114.434  0.00  0.00     0.006 C 
ENDBRANCH   8   9
BRANCH   8  11
ATOM     11  C   LIG d   1      -4.664  76.825 116.148  0.00  0.00     0.028 C 
ATOM     12  C   LIG d   1      -4.510  76.898 117.676  0.00  0.00     0.006 C 
ENDBRANCH   8  11
ENDBRANCH   7   8
ENDBRANCH   1   7
BRANCH   6  13
ATOM     13  N   LIG d   1      -1.108  77.867 113.861  0.00  0.00    -0.311 N 
ATOM     14  C   LIG d   1      -1.893  78.812 113.346  0.00  0.00     0.210 C 
ATOM     15  C   LIG d   1      -1.497  79.288 111.945  0.00  0.00     0.109 C 
ATOM     16  O   LIG d   1      -2.861  79.323 113.929  0.00  0.00    -0.276 OA
ATOM     17  H   LIG d   1      -0.326  77.533 113.333  0.00  0.00     0.149 HD
ENDBRANCH   6  13
BRANCH   5  18
ATOM     18  N   LIG d   1       0.303  78.730 116.430  0.00  0.00     0.381 N 
ATOM     19  H   LIG d   1       0.619  78.778 117.378  0.00  0.00    -0.090 HD
ATOM     20  H   LIG d   1      -0.504  79.321 116.336  0.00  0.00    -0.090 HD
ATOM     21  H   LIG d   1       1.024  79.039 115.815  0.00  0.00    -0.090 HD
ENDBRANCH   5  18
BRANCH   3  22
ATOM     22  C   LIG d   1      -0.584  74.371 118.206  0.00  0.00     0.382 C 
ATOM     23  O   LIG d   1       0.340  74.571 119.032  0.00  0.00    -0.241 OA
ATOM     24  O   LIG d   1      -1.212  73.296 118.238  0.00  0.00    -0.241 OA
ENDBRANCH   3  22
TORSDOF 7
ENDMDL
MODEL 2
REMARK VINA RESULT:      -5.2      8.640     11.703
REMARK  7 active torsions:
REMARK  status: ('A' for Active; 'I' for Inactive)
REMARK    1  A    between atoms: C_2  and  C_3 
REMARK    2  A    between atoms: C_3  and  O_6 
REMARK    3  A    between atoms: C_3  and  C_4 
REMARK    4  A    between atoms: C_7  and  O_6 
REMARK    5  A    between atoms: C_9  and  C_10 
REMARK    6  A    between atoms: N_15  and  C_14 
REMARK    7  A    between atoms: N_20  and  C_19 
REMARK       I    between atoms: C_22  and  N_20 
ROOT
ATOM      1  C   LIG d   1       3.249  85.105 113.500  0.00  0.00     0.161 C 
ATOM      2  C   LIG d   1       3.993  86.275 113.722  0.00  0.00     0.016 C 
ATOM      3  C   LIG d   1       3.692  87.516 113.116  0.00  0.00     0.038 C 
ATOM      4  C   LIG d   1       2.526  87.708 112.359  0.00  0.00     0.028 C 
ATOM      5  C   LIG d   1       2.019  86.432 111.696  0.00  0.00    -0.047 C 
ATOM      6  C   LIG d   1       1.910  85.320 112.765  0.00  0.00     0.091 C 
ENDROOT
BRANCH   1   7
ATOM      7  O   LIG d   1       3.030  84.420 114.749  0.00  0.00    -0.368 OA
BRANCH   7   8
ATOM      8  C   LIG d   1       3.077  85.241 115.943  0.00  0.00     0.119 C 
BRANCH   8   9
ATOM      9  C   LIG d   1       3.849  84.451 117.017  0.00  0.00     0.028 C 
ATOM     10  C   LIG d   1       5.098  83.756 116.451  0.00  0.00     0.006 C 
ENDBRANCH   8   9
BRANCH   8  11
ATOM     11  C   LIG d   1       1.677  85.456 116.525  0.00  0.00     0.028 C 
ATOM     12  C   LIG d   1       1.047  86.787 116.085  0.00  0.00     0.006 C 
ENDBRANCH   8  11
ENDBRANCH   7   8
ENDBRANCH   1   7
BRANCH   6  13
ATOM     13  N   LIG d   1       1.500  84.014 112.185  0.00  0.00    -0.311 N 
ATOM     14  C   LIG d   1       0.237  83.593 112.148  0.00  0.00     0.210 C 
ATOM     15  C   LIG d   1       0.036  82.208 111.525  0.00  0.00     0.109 C 
ATOM     16  O   LIG d   1      -0.739  84.248 112.543  0.00  0.00    -0.276 OA
ATOM     17  H   LIG d   1       2.225  83.433 111.813  0.00  0.00     0.149 HD
ENDBRANCH   6  13
BRANCH   5  18
ATOM     18  N   LIG d   1       0.728  86.746 111.055  0.00  0.00     0.381 N 
ATOM     19  H   LIG d   1       0.159  87.278 111.682  0.00  0.00    -0.090 HD
ATOM     20  H   LIG d   1       0.250  85.886 110.848  0.00  0.00    -0.090 HD
ATOM     21  H   LIG d   1       0.880  87.260 110.215  0.00  0.00    -0.090 HD
ENDBRANCH   5  18
BRANCH   3  22
ATOM     22  C   LIG d   1       4.582  88.573 113.233  0.00  0.00     0.382 C 
ATOM     23  O   LIG d   1       4.244  89.613 113.846  0.00  0.00    -0.241 OA
ATOM     24  O   LIG d   1       5.704  88.516 112.694  0.00  0.00    -0.241 OA
ENDBRANCH   3  22
TORSDOF 7
ENDMDL
MODEL 3
REMARK VINA RESULT:      -5.2      3.619      4.837
REMARK  7 active torsions:
REMARK  status: ('A' for Active; 'I' for Inactive)
REMARK    1  A    between atoms: C_2  and  C_3 
REMARK    2  A    between atoms: C_3  and  O_6 
REMARK    3  A    between atoms: C_3  and  C_4 
REMARK    4  A    between atoms: C_7  and  O_6 
REMARK    5  A    between atoms: C_9  and  C_10 
REMARK    6  A    between atoms: N_15  and  C_14 
REMARK    7  A    between atoms: N_20  and  C_19 
REMARK       I    between atoms: C_22  and  N_20 
ROOT
ATOM      1  C   LIG d   1      -5.977  77.014 116.178  0.00  0.00     0.161 C 
ATOM      2  C   LIG d   1      -5.058  75.963 116.020  0.00  0.00     0.016 C 
ATOM      3  C   LIG d   1      -3.800  75.926 116.663  0.00  0.00     0.038 C 
ATOM      4  C   LIG d   1      -3.435  76.872 117.633  0.00  0.00     0.028 C 
ATOM      5  C   LIG d   1      -4.120  78.222 117.450  0.00  0.00    -0.047 C 
ATOM      6  C   LIG d   1      -5.643  77.998 117.318  0.00  0.00     0.091 C 
ENDROOT
BRANCH   1   7
ATOM      7  O   LIG d   1      -7.305  76.480 116.350  0.00  0.00    -0.368 OA
BRANCH   7   8
ATOM      8  C   LIG d   1      -7.516  75.662 117.527  0.00  0.00     0.119 C 
BRANCH   8   9
ATOM      9  C   LIG d   1      -8.333  74.429 117.094  0.00  0.00     0.028 C 
ATOM     10  C   LIG d   1      -7.454  73.184 116.891  0.00  0.00     0.006 C 
ENDBRANCH   8   9
BRANCH   8  11
ATOM     11  C   LIG d   1      -8.387  76.384 118.559  0.00  0.00     0.028 C 
ATOM     12  C   LIG d   1      -9.469  77.264 117.914  0.00  0.00     0.006 C 
ENDBRANCH   8  11
ENDBRANCH   7   8
ENDBRANCH   1   7
BRANCH   6  13
ATOM     13  N   LIG d   1      -6.381  79.261 117.052  0.00  0.00    -0.311 N 
ATOM     14  C   LIG d   1      -6.939  80.000 118.010  0.00  0.00     0.210 C 
ATOM     15  C   LIG d   1      -7.669  81.253 117.517  0.00  0.00     0.109 C 
ATOM     16  O   LIG d   1      -6.871  79.753 119.224  0.00  0.00    -0.276 OA
ATOM     17  H   LIG d   1      -6.458  79.552 116.097  0.00  0.00     0.149 HD
ENDBRANCH   6  13
BRANCH   5  18
ATOM     18  N   LIG d   1      -3.757  79.066 118.605  0.00  0.00     0.381 N 
ATOM     19  H   LIG d   1      -2.765  79.195 118.631  0.00  0.00    -0.090 HD
ATOM     20  H   LIG d   1      -4.036  78.598 119.449  0.00  0.00    -0.090 HD
ATOM     21  H   LIG d   1      -4.213  79.949 118.538  0.00  0.00    -0.090 HD
ENDBRANCH   5  18
BRANCH   3  22
ATOM     22  C   LIG d   1      -2.874  74.957 116.307  0.00  0.00     0.382 C 
ATOM     23  O   LIG d   1      -2.563  74.800 115.102  0.00  0.00    -0.241 OA
ATOM     24  O   LIG d   1      -2.380  74.208 117.171  0.00  0.00    -0.241 OA
ENDBRANCH   3  22
TORSDOF 7
ENDMDL
MODEL 4
REMARK VINA RESULT:      -5.2     10.950     13.129
REMARK  7 active torsions:
REMARK  status: ('A' for Active; 'I' for Inactive)
REMARK    1  A    between atoms: C_2  and  C_3 
REMARK    2  A    between atoms: C_3  and  O_6 
REMARK    3  A    between atoms: C_3  and  C_4 
REMARK    4  A    between atoms: C_7  and  O_6 
REMARK    5  A    between atoms: C_9  and  C_10 
REMARK    6  A    between atoms: N_15  and  C_14 
REMARK    7  A    between atoms: N_20  and  C_19 
REMARK       I    between atoms: C_22  and  N_20 
ROOT
ATOM      1  C   LIG d   1       3.375  87.777 115.419  0.00  0.00     0.161 C 
ATOM      2  C   LIG d   1       3.823  88.405 116.593  0.00  0.00     0.016 C 
ATOM      3  C   LIG d   1       4.986  89.208 116.651  0.00  0.00     0.038 C 
ATOM      4  C   LIG d   1       5.700  89.563 115.497  0.00  0.00     0.028 C 
ATOM      5  C   LIG d   1       5.576  88.543 114.370  0.00  0.00    -0.047 C 
ATOM      6  C   LIG d   1       4.079  88.243 114.127  0.00  0.00     0.091 C 
ENDROOT
BRANCH   1   7
ATOM      7  O   LIG d   1       1.948  87.933 115.295  0.00  0.00    -0.368 OA
BRANCH   7   8
ATOM      8  C   LIG d   1       1.153  86.747 115.543  0.00  0.00     0.119 C 
BRANCH   8   9
ATOM      9  C   LIG d   1       0.522  86.896 116.941  0.00  0.00     0.028 C 
ATOM     10  C   LIG d   1      -0.530  88.016 116.993  0.00  0.00     0.006 C 
ENDBRANCH   8   9
BRANCH   8  11
ATOM     11  C   LIG d   1       2.032  85.495 115.627  0.00  0.00     0.028 C 
ATOM     12  C   LIG d   1       1.724  84.476 114.518  0.00  0.00     0.006 C 
ENDBRANCH   8  11
ENDBRANCH   7   8
ENDBRANCH   1   7
BRANCH   6  13
ATOM     13  N   LIG d   1       3.872  87.191 113.097  0.00  0.00    -0.311 N 
ATOM     14  C   LIG d   1       2.928  87.259 112.160  0.00  0.00     0.210 C 
ATOM     15  C   LIG d   1       2.874  86.059 111.210  0.00  0.00     0.109 C 
ATOM     16  O   LIG d   1       2.152  88.214 112.006  0.00  0.00    -0.276 OA
ATOM     17  H   LIG d   1       4.478  86.395 113.130  0.00  0.00     0.149 HD
ENDBRANCH   6  13
BRANCH   5  18
ATOM     18  N   LIG d   1       6.254  89.103 113.185  0.00  0.00     0.381 N 
ATOM     19  H   LIG d   1       6.989  88.490 112.894  0.00  0.00    -0.090 HD
ATOM     20  H   LIG d   1       6.660  89.988 113.431  0.00  0.00    -0.090 HD
ATOM     21  H   LIG d   1       5.599  89.223 112.444  0.00  0.00    -0.090 HD
ENDBRANCH   5  18
BRANCH   3  22
ATOM     22  C   LIG d   1       5.467  89.633 117.880  0.00  0.00     0.382 C 
ATOM     23  O   LIG d   1       5.339  88.900 118.890  0.00  0.00    -0.241 OA
ATOM     24  O   LIG d   1       5.988  90.758 118.000  0.00  0.00    -0.241 OA
ENDBRANCH   3  22
TORSDOF 7
ENDMDL
MODEL 5
REMARK VINA RESULT:      -5.0      8.693     11.514
REMARK  7 active torsions:
REMARK  status: ('A' for Active; 'I' for Inactive)
REMARK    1  A    between atoms: C_2  and  C_3 
REMARK    2  A    between atoms: C_3  and  O_6 
REMARK    3  A    between atoms: C_3  and  C_4 
REMARK    4  A    between atoms: C_7  and  O_6 
REMARK    5  A    between atoms: C_9  and  C_10 
REMARK    6  A    between atoms: N_15  and  C_14 
REMARK    7  A    between atoms: N_20  and  C_19 
REMARK       I    between atoms: C_22  and  N_20 
ROOT
ATOM      1  C   LIG d   1       3.178  84.780 114.197  0.00  0.00     0.161 C 
ATOM      2  C   LIG d   1       3.066  85.919 113.383  0.00  0.00     0.016 C 
ATOM      3  C   LIG d   1       3.671  87.159 113.693  0.00  0.00     0.038 C 
ATOM      4  C   LIG d   1       4.559  87.303 114.769  0.00  0.00     0.028 C 
ATOM      5  C   LIG d   1       4.303  86.315 115.902  0.00  0.00    -0.047 C 
ATOM      6  C   LIG d   1       4.234  84.886 115.317  0.00  0.00     0.091 C 
ENDROOT
BRANCH   1   7
ATOM      7  O   LIG d   1       3.428  83.619 113.381  0.00  0.00    -0.368 OA
BRANCH   7   8
ATOM      8  C   LIG d   1       2.745  83.579 112.104  0.00  0.00     0.119 C 
BRANCH   8   9
ATOM      9  C   LIG d   1       1.462  82.747 112.291  0.00  0.00     0.028 C 
ATOM     10  C   LIG d   1       0.203  83.499 111.826  0.00  0.00     0.006 C 
ENDBRANCH   8   9
BRANCH   8  11
ATOM     11  C   LIG d   1       3.568  82.824 111.056  0.00  0.00     0.028 C 
ATOM     12  C   LIG d   1       3.300  81.311 111.064  0.00  0.00     0.006 C 
ENDBRANCH   8  11
ENDBRANCH   7   8
ENDBRANCH   1   7
BRANCH   6  13
ATOM     13  N   LIG d   1       3.902  83.867 116.347  0.00  0.00    -0.311 N 
ATOM     14  C   LIG d   1       4.740  82.901 116.719  0.00  0.00     0.210 C 
ATOM     15  C   LIG d   1       4.192  81.944 117.782  0.00  0.00     0.109 C 
ATOM     16  O   LIG d   1       5.897  82.766 116.294  0.00  0.00    -0.276 OA
ATOM     17  H   LIG d   1       2.995  83.922 116.767  0.00  0.00     0.149 HD
ENDBRANCH   6  13
BRANCH   5  18
ATOM     18  N   LIG d   1       5.382  86.483 116.893  0.00  0.00     0.381 N 
ATOM     19  H   LIG d   1       5.699  87.432 116.892  0.00  0.00    -0.090 HD
ATOM     20  H   LIG d   1       6.154  85.893 116.636  0.00  0.00    -0.090 HD
ATOM     21  H   LIG d   1       5.054  86.236 117.801  0.00  0.00    -0.090 HD
ENDBRANCH   5  18
BRANCH   3  22
ATOM     22  C   LIG d   1       3.356  88.283 112.944  0.00  0.00     0.382 C 
ATOM     23  O   LIG d   1       2.318  88.297 112.240  0.00  0.00    -0.241 OA
ATOM     24  O   LIG d   1       4.121  89.267 112.930  0.00  0.00    -0.241 OA
ENDBRANCH   3  22
TORSDOF 7
ENDMDL
MODEL 6
REMARK VINA RESULT:      -5.0     22.818     25.657
REMARK  7 active torsions:
REMARK  status: ('A' for Active; 'I' for Inactive)
REMARK    1  A    between atoms: C_2  and  C_3 
REMARK    2  A    between atoms: C_3  and  O_6 
REMARK    3  A    between atoms: C_3  and  C_4 
REMARK    4  A    between atoms: C_7  and  O_6 
REMARK    5  A    between atoms: C_9  and  C_10 
REMARK    6  A    between atoms: N_15  and  C_14 
REMARK    7  A    between atoms: N_20  and  C_19 
REMARK       I    between atoms: C_22  and  N_20 
ROOT
ATOM      1  C   LIG d   1     -25.962  85.552 113.469  0.00  0.00     0.161 C 
ATOM      2  C   LIG d   1     -24.907  86.438 113.744  0.00  0.00     0.016 C 
ATOM      3  C   LIG d   1     -23.548  86.050 113.755  0.00  0.00     0.038 C 
ATOM      4  C   LIG d   1     -23.137  84.774 113.340  0.00  0.00     0.028 C 
ATOM      5  C   LIG d   1     -24.201  83.701 113.541  0.00  0.00    -0.047 C 
ATOM      6  C   LIG d   1     -25.526  84.183 112.906  0.00  0.00     0.091 C 
ENDROOT
BRANCH   1   7
ATOM      7  O   LIG d   1     -26.909  86.179 112.582  0.00  0.00    -0.368 OA
BRANCH   7   8
ATOM      8  C   LIG d   1     -27.028  87.619 112.692  0.00  0.00     0.119 C 
BRANCH   8   9
ATOM      9  C   LIG d   1     -28.272  87.916 113.553  0.00  0.00     0.028 C 
ATOM     10  C   LIG d   1     -27.912  88.564 114.900  0.00  0.00     0.006 C 
ENDBRANCH   8   9
BRANCH   8  11
ATOM     11  C   LIG d   1     -27.314  88.260 111.331  0.00  0.00     0.028 C 
ATOM     12  C   LIG d   1     -27.208  89.793 111.361  0.00  0.00     0.006 C 
ENDBRANCH   8  11
ENDBRANCH   7   8
ENDBRANCH   1   7
BRANCH   6  13
ATOM     13  N   LIG d   1     -26.642  83.228 113.130  0.00  0.00    -0.311 N 
ATOM     14  C   LIG d   1     -27.047  82.346 112.218  0.00  0.00     0.210 C 
ATOM     15  C   LIG d   1     -28.228  81.469 112.646  0.00  0.00     0.109 C 
ATOM     16  O   LIG d   1     -26.520  82.184 111.108  0.00  0.00    -0.276 OA
ATOM     17  H   LIG d   1     -27.107  83.269 114.016  0.00  0.00     0.149 HD
ENDBRANCH   6  13
BRANCH   5  18
ATOM     18  N   LIG d   1     -23.693  82.452 112.941  0.00  0.00     0.381 N 
ATOM     19  H   LIG d   1     -22.918  82.655 112.342  0.00  0.00    -0.090 HD
ATOM     20  H   LIG d   1     -24.422  82.039 112.386  0.00  0.00    -0.090 HD
ATOM     21  H   LIG d   1     -23.412  81.820 113.658  0.00  0.00    -0.090 HD
ENDBRANCH   5  18
BRANCH   3  22
ATOM     22  C   LIG d   1     -22.585  86.932 114.222  0.00  0.00     0.382 C 
ATOM     23  O   LIG d   1     -22.857  87.716 115.164  0.00  0.00    -0.241 OA
ATOM     24  O   LIG d   1     -21.463  86.985 113.685  0.00  0.00    -0.241 OA
ENDBRANCH   3  22
TORSDOF 7
ENDMDL
MODEL 7
REMARK VINA RESULT:      -4.9      8.658     11.519
REMARK  7 active torsions:
REMARK  status: ('A' for Active; 'I' for Inactive)
REMARK    1  A    between atoms: C_2  and  C_3 
REMARK    2  A    between atoms: C_3  and  O_6 
REMARK    3  A    between atoms: C_3  and  C_4 
REMARK    4  A    between atoms: C_7  and  O_6 
REMARK    5  A    between atoms: C_9  and  C_10 
REMARK    6  A    between atoms: N_15  and  C_14 
REMARK    7  A    between atoms: N_20  and  C_19 
REMARK       I    between atoms: C_22  and  N_20 
ROOT
ATOM      1  C   LIG d   1       3.801  85.449 114.498  0.00  0.00     0.161 C 
ATOM      2  C   LIG d   1       4.127  86.800 114.698  0.00  0.00     0.016 C 
ATOM      3  C   LIG d   1       3.719  87.837 113.828  0.00  0.00     0.038 C 
ATOM      4  C   LIG d   1       2.823  87.609 112.773  0.00  0.00     0.028 C 
ATOM      5  C   LIG d   1       2.872  86.183 112.233  0.00  0.00    -0.047 C 
ATOM      6  C   LIG d   1       2.732  85.195 113.414  0.00  0.00     0.091 C 
ENDROOT
BRANCH   1   7
ATOM      7  O   LIG d   1       3.399  84.852 115.747  0.00  0.00    -0.368 OA
BRANCH   7   8
ATOM      8  C   LIG d   1       1.972  84.757 115.977  0.00  0.00     0.119 C 
BRANCH   8   9
ATOM      9  C   LIG d   1       1.575  85.915 116.913  0.00  0.00     0.028 C 
ATOM     10  C   LIG d   1       0.719  86.977 116.202  0.00  0.00     0.006 C 
ENDBRANCH   8   9
BRANCH   8  11
ATOM     11  C   LIG d   1       1.615  83.478 116.741  0.00  0.00     0.028 C 
ATOM     12  C   LIG d   1       2.503  82.285 116.354  0.00  0.00     0.006 C 
ENDBRANCH   8  11
ENDBRANCH   7   8
ENDBRANCH   1   7
BRANCH   6  13
ATOM     13  N   LIG d   1       2.855  83.778 112.985  0.00  0.00    -0.311 N 
ATOM     14  C   LIG d   1       1.807  82.990 112.748  0.00  0.00     0.210 C 
ATOM     15  C   LIG d   1       2.155  81.557 112.335  0.00  0.00     0.109 C 
ATOM     16  O   LIG d   1       0.622  83.352 112.811  0.00  0.00    -0.276 OA
ATOM     17  H   LIG d   1       3.780  83.411 112.879  0.00  0.00     0.149 HD
ENDBRANCH   6  13
BRANCH   5  18
ATOM     18  N   LIG d   1       1.795  86.047 111.235  0.00  0.00     0.381 N 
ATOM     19  H   LIG d   1       2.191  85.945 110.322  0.00  0.00    -0.090 HD
ATOM     20  H   LIG d   1       1.236  86.881 111.244  0.00  0.00    -0.090 HD
ATOM     21  H   LIG d   1       1.229  85.256 111.449  0.00  0.00    -0.090 HD
ENDBRANCH   5  18
BRANCH   3  22
ATOM     22  C   LIG d   1       4.240  89.112 113.986  0.00  0.00     0.382 C 
ATOM     23  O   LIG d   1       4.380  89.594 115.135  0.00  0.00    -0.241 OA
ATOM     24  O   LIG d   1       4.530  89.803 112.991  0.00  0.00    -0.241 OA
ENDBRANCH   3  22
TORSDOF 7
ENDMDL
MODEL 8
REMARK VINA RESULT:      -4.8     20.991     23.208
REMARK  7 active torsions:
REMARK  status: ('A' for Active; 'I' for Inactive)
REMARK    1  A    between atoms: C_2  and  C_3 
REMARK    2  A    between atoms: C_3  and  O_6 
REMARK    3  A    between atoms: C_3  and  C_4 
REMARK    4  A    between atoms: C_7  and  O_6 
REMARK    5  A    between atoms: C_9  and  C_10 
REMARK    6  A    between atoms: N_15  and  C_14 
REMARK    7  A    between atoms: N_20  and  C_19 
REMARK       I    between atoms: C_22  and  N_20 
ROOT
ATOM      1  C   LIG d   1     -23.405  83.569 115.874  0.00  0.00     0.161 C 
ATOM      2  C   LIG d   1     -23.011  84.901 115.665  0.00  0.00     0.016 C 
ATOM      3  C   LIG d   1     -23.150  85.568 114.426  0.00  0.00     0.038 C 
ATOM      4  C   LIG d   1     -23.836  84.992 113.346  0.00  0.00     0.028 C 
ATOM      5  C   LIG d   1     -23.802  83.467 113.352  0.00  0.00    -0.047 C 
ATOM      6  C   LIG d   1     -24.256  82.961 114.740  0.00  0.00     0.091 C 
ENDROOT
BRANCH   1   7
ATOM      7  O   LIG d   1     -24.095  83.456 117.134  0.00  0.00    -0.368 OA
BRANCH   7   8
ATOM      8  C   LIG d   1     -23.278  83.107 118.279  0.00  0.00     0.119 C 
BRANCH   8   9
ATOM      9  C   LIG d   1     -22.167  82.161 117.784  0.00  0.00     0.028 C 
ATOM     10  C   LIG d   1     -21.010  82.039 118.789  0.00  0.00     0.006 C 
ENDBRANCH   8   9
BRANCH   8  11
ATOM     11  C   LIG d   1     -24.075  82.295 119.305  0.00  0.00     0.028 C 
ATOM     12  C   LIG d   1     -24.503  80.918 118.772  0.00  0.00     0.006 C 
ENDBRANCH   8  11
ENDBRANCH   7   8
ENDBRANCH   1   7
BRANCH   6  13
ATOM     13  N   LIG d   1     -24.172  81.481 114.859  0.00  0.00    -0.311 N 
ATOM     14  C   LIG d   1     -25.197  80.717 115.234  0.00  0.00     0.210 C 
ATOM     15  C   LIG d   1     -24.890  79.218 115.311  0.00  0.00     0.109 C 
ATOM     16  O   LIG d   1     -26.339  81.135 115.478  0.00  0.00    -0.276 OA
ATOM     17  H   LIG d   1     -23.291  81.056 114.649  0.00  0.00     0.149 HD
ENDBRANCH   6  13
BRANCH   5  18
ATOM     18  N   LIG d   1     -24.668  82.998 112.254  0.00  0.00     0.381 N 
ATOM     19  H   LIG d   1     -25.372  83.682 112.062  0.00  0.00    -0.090 HD
ATOM     20  H   LIG d   1     -25.124  82.149 112.539  0.00  0.00    -0.090 HD
ATOM     21  H   LIG d   1     -24.123  82.833 111.436  0.00  0.00    -0.090 HD
ENDBRANCH   5  18
BRANCH   3  22
ATOM     22  C   LIG d   1     -22.564  86.812 114.245  0.00  0.00     0.382 C 
ATOM     23  O   LIG d   1     -23.057  87.824 114.799  0.00  0.00    -0.241 OA
ATOM     24  O   LIG d   1     -21.575  86.942 113.499  0.00  0.00    -0.241 OA
ENDBRANCH   3  22
TORSDOF 7
ENDMDL
MODEL 9
REMARK VINA RESULT:      -4.8      3.691      6.091
REMARK  7 active torsions:
REMARK  status: ('A' for Active; 'I' for Inactive)
REMARK    1  A    between atoms: C_2  and  C_3 
REMARK    2  A    between atoms: C_3  and  O_6 
REMARK    3  A    between atoms: C_3  and  C_4 
REMARK    4  A    between atoms: C_7  and  O_6 
REMARK    5  A    between atoms: C_9  and  C_10 
REMARK    6  A    between atoms: N_15  and  C_14 
REMARK    7  A    between atoms: N_20  and  C_19 
REMARK       I    between atoms: C_22  and  N_20 
ROOT
ATOM      1  C   LIG d   1      -6.217  77.653 117.077  0.00  0.00     0.161 C 
ATOM      2  C   LIG d   1      -7.137  78.710 117.170  0.00  0.00     0.016 C 
ATOM      3  C   LIG d   1      -6.833  79.956 117.766  0.00  0.00     0.038 C 
ATOM      4  C   LIG d   1      -5.533  80.283 118.178  0.00  0.00     0.028 C 
ATOM      5  C   LIG d   1      -4.696  79.068 118.564  0.00  0.00    -0.047 C 
ATOM      6  C   LIG d   1      -4.761  78.030 117.421  0.00  0.00     0.091 C 
ENDROOT
BRANCH   1   7
ATOM      7  O   LIG d   1      -6.285  77.060 115.765  0.00  0.00    -0.368 OA
BRANCH   7   8
ATOM      8  C   LIG d   1      -6.853  75.729 115.695  0.00  0.00     0.119 C 
BRANCH   8   9
ATOM      9  C   LIG d   1      -7.274  75.330 117.123  0.00  0.00     0.028 C 
ATOM     10  C   LIG d   1      -8.225  74.122 117.138  0.00  0.00     0.006 C 
ENDBRANCH   8   9
BRANCH   8  11
ATOM     11  C   LIG d   1      -5.803  74.696 115.278  0.00  0.00     0.028 C 
ATOM     12  C   LIG d   1      -4.910  75.185 114.126  0.00  0.00     0.006 C 
ENDBRANCH   8  11
ENDBRANCH   7   8
ENDBRANCH   1   7
BRANCH   6  13
ATOM     13  N   LIG d   1      -4.037  76.775 117.752  0.00  0.00    -0.311 N 
ATOM     14  C   LIG d   1      -2.971  76.344 117.080  0.00  0.00     0.210 C 
ATOM     15  C   LIG d   1      -2.389  75.016 117.574  0.00  0.00     0.109 C 
ATOM     16  O   LIG d   1      -2.434  76.951 116.141  0.00  0.00    -0.276 OA
ATOM     17  H   LIG d   1      -4.387  76.236 118.520  0.00  0.00     0.149 HD
ENDBRANCH   6  13
BRANCH   5  18
ATOM     18  N   LIG d   1      -3.326  79.540 118.839  0.00  0.00     0.381 N 
ATOM     19  H   LIG d   1      -3.239  79.784 119.806  0.00  0.00    -0.090 HD
ATOM     20  H   LIG d   1      -3.148  80.363 118.290  0.00  0.00    -0.090 HD
ATOM     21  H   LIG d   1      -2.667  78.829 118.608  0.00  0.00    -0.090 HD
ENDBRANCH   5  18
BRANCH   3  22
ATOM     22  C   LIG d   1      -7.847  80.875 117.992  0.00  0.00     0.382 C 
ATOM     23  O   LIG d   1      -8.130  81.220 119.165  0.00  0.00    -0.241 OA
ATOM     24  O   LIG d   1      -8.510  81.330 117.042  0.00  0.00    -0.241 OA
ENDBRANCH   3  22
TORSDOF 7
ENDMDL
