MODEL 1
REMARK VINA RESULT:      -5.9      0.000      0.000
REMARK  7 active torsions:
REMARK  status: ('A' for Active; 'I' for Inactive)
REMARK    1  A    between atoms: C_2  and  C_3 
REMARK    2  A    between atoms: C_3  and  O_6 
REMARK    3  A    between atoms: C_3  and  C_4 
REMARK    4  A    between atoms: C_7  and  O_6 
REMARK    5  A    between atoms: C_9  and  C_10 
REMARK    6  A    between atoms: N_15  and  C_14 
REMARK    7  A    between atoms: N_20  and  C_19 
REMARK       I    between atoms: C_22  and  N_20 
ROOT
ATOM      1  C   LIG d   1      -7.958  75.355 117.538  0.00  0.00     0.161 C 
ATOM      2  C   LIG d   1      -9.092  76.041 118.002  0.00  0.00     0.016 C 
ATOM      3  C   LIG d   1      -9.149  77.447 118.139  0.00  0.00     0.038 C 
ATOM      4  C   LIG d   1      -8.120  78.280 117.673  0.00  0.00     0.028 C 
ATOM      5  C   LIG d   1      -6.753  77.605 117.663  0.00  0.00    -0.047 C 
ATOM      6  C   LIG d   1      -6.866  76.254 116.921  0.00  0.00     0.091 C 
ENDROOT
BRANCH   1   7
ATOM      7  O   LIG d   1      -8.355  74.334 116.601  0.00  0.00    -0.368 OA
BRANCH   7   8
ATOM      8  C   LIG d   1      -8.511  72.999 117.142  0.00  0.00     0.119 C 
BRANCH   8   9
ATOM      9  C   LIG d   1      -7.161  72.273 116.980  0.00  0.00     0.028 C 
ATOM     10  C   LIG d   1      -6.600  72.389 115.553  0.00  0.00     0.006 C 
ENDBRANCH   8   9
BRANCH   8  11
ATOM     11  C   LIG d   1      -9.513  72.180 116.324  0.00  0.00     0.028 C 
ATOM     12  C   LIG d   1      -9.628  70.725 116.806  0.00  0.00     0.006 C 
ENDBRANCH   8  11
ENDBRANCH   7   8
ENDBRANCH   1   7
BRANCH   6  13
ATOM     13  N   LIG d   1      -5.591  75.489 116.938  0.00  0.00    -0.311 N 
ATOM     14  C   LIG d   1      -4.698  75.531 115.951  0.00  0.00     0.210 C 
ATOM     15  C   LIG d   1      -3.462  74.651 116.160  0.00  0.00     0.109 C 
ATOM     16  O   LIG d   1      -4.797  76.238 114.936  0.00  0.00    -0.276 OA
ATOM     17  H   LIG d   1      -5.416  74.914 117.738  0.00  0.00     0.149 HD
ENDBRANCH   6  13
BRANCH   5  18
ATOM     18  N   LIG d   1      -5.801  78.536 117.028  0.00  0.00     0.381 N 
ATOM     19  H   LIG d   1      -5.060  78.020 116.596  0.00  0.00    -0.090 HD
ATOM     20  H   LIG d   1      -5.403  79.127 117.736  0.00  0.00    -0.090 HD
ATOM     21  H   LIG d   1      -6.270  79.091 116.347  0.00  0.00    -0.090 HD
ENDBRANCH   5  18
BRANCH   3  22
ATOM     22  C   LIG d   1     -10.228  78.032 118.783  0.00  0.00     0.382 C 
ATOM     23  O   LIG d   1     -10.108  79.168 119.303  0.00  0.00    -0.241 OA
ATOM     24  O   LIG d   1     -11.308  77.420 118.890  0.00  0.00    -0.241 OA
ENDBRANCH   3  22
TORSDOF 7
ENDMDL
MODEL 2
REMARK VINA RESULT:      -5.5      2.323      5.335
REMARK  7 active torsions:
REMARK  status: ('A' for Active; 'I' for Inactive)
REMARK    1  A    between atoms: C_2  and  C_3 
REMARK    2  A    between atoms: C_3  and  O_6 
REMARK    3  A    between atoms: C_3  and  C_4 
REMARK    4  A    between atoms: C_7  and  O_6 
REMARK    5  A    between atoms: C_9  and  C_10 
REMARK    6  A    between atoms: N_15  and  C_14 
REMARK    7  A    between atoms: N_20  and  C_19 
REMARK       I    between atoms: C_22  and  N_20 
ROOT
ATOM      1  C   LIG d   1      -5.443  74.952 116.977  0.00  0.00     0.161 C 
ATOM      2  C   LIG d   1      -4.334  74.300 116.412  0.00  0.00     0.016 C 
ATOM      3  C   LIG d   1      -2.995  74.654 116.696  0.00  0.00     0.038 C 
ATOM      4  C   LIG d   1      -2.671  75.591 117.687  0.00  0.00     0.028 C 
ATOM      5  C   LIG d   1      -3.763  76.630 117.919  0.00  0.00    -0.047 C 
ATOM      6  C   LIG d   1      -5.108  75.903 118.144  0.00  0.00     0.091 C 
ENDROOT
BRANCH   1   7
ATOM      7  O   LIG d   1      -6.424  73.980 117.388  0.00  0.00    -0.368 OA
BRANCH   7   8
ATOM      8  C   LIG d   1      -7.454  73.664 116.419  0.00  0.00     0.119 C 
BRANCH   8   9
ATOM      9  C   LIG d   1      -8.814  73.786 117.132  0.00  0.00     0.028 C 
ATOM     10  C   LIG d   1      -9.304  75.241 117.217  0.00  0.00     0.006 C 
ENDBRANCH   8   9
BRANCH   8  11
ATOM     11  C   LIG d   1      -7.363  72.204 115.965  0.00  0.00     0.028 C 
ATOM     12  C   LIG d   1      -8.659  71.418 116.223  0.00  0.00     0.006 C 
ENDBRANCH   8  11
ENDBRANCH   7   8
ENDBRANCH   1   7
BRANCH   6  13
ATOM     13  N   LIG d   1      -6.245  76.848 118.296  0.00  0.00    -0.311 N 
ATOM     14  C   LIG d   1      -6.553  77.774 117.390  0.00  0.00     0.210 C 
ATOM     15  C   LIG d   1      -7.751  78.658 117.751  0.00  0.00     0.109 C 
ATOM     16  O   LIG d   1      -5.969  77.927 116.307  0.00  0.00    -0.276 OA
ATOM     17  H   LIG d   1      -6.792  76.774 119.131  0.00  0.00     0.149 HD
ENDBRANCH   6  13
BRANCH   5  18
ATOM     18  N   LIG d   1      -3.353  77.458 119.069  0.00  0.00     0.381 N 
ATOM     19  H   LIG d   1      -3.630  78.408 118.919  0.00  0.00    -0.090 HD
ATOM     20  H   LIG d   1      -2.352  77.431 119.149  0.00  0.00    -0.090 HD
ATOM     21  H   LIG d   1      -3.770  77.112 119.905  0.00  0.00    -0.090 HD
ENDBRANCH   5  18
BRANCH   3  22
ATOM     22  C   LIG d   1      -1.965  74.095 115.955  0.00  0.00     0.382 C 
ATOM     23  O   LIG d   1      -1.852  74.364 114.735  0.00  0.00    -0.241 OA
ATOM     24  O   LIG d   1      -1.173  73.290 116.481  0.00  0.00    -0.241 OA
ENDBRANCH   3  22
TORSDOF 7
ENDMDL
MODEL 3
REMARK VINA RESULT:      -5.4      1.662      2.411
REMARK  7 active torsions:
REMARK  status: ('A' for Active; 'I' for Inactive)
REMARK    1  A    between atoms: C_2  and  C_3 
REMARK    2  A    between atoms: C_3  and  O_6 
REMARK    3  A    between atoms: C_3  and  C_4 
REMARK    4  A    between atoms: C_7  and  O_6 
REMARK    5  A    between atoms: C_9  and  C_10 
REMARK    6  A    between atoms: N_15  and  C_14 
REMARK    7  A    between atoms: N_20  and  C_19 
REMARK       I    between atoms: C_22  and  N_20 
ROOT
ATOM      1  C   LIG d   1      -6.578  75.602 118.367  0.00  0.00     0.161 C 
ATOM      2  C   LIG d   1      -7.912  76.023 118.239  0.00  0.00     0.016 C 
ATOM      3  C   LIG d   1      -8.282  77.349 117.915  0.00  0.00     0.038 C 
ATOM      4  C   LIG d   1      -7.333  78.314 117.547  0.00  0.00     0.028 C 
ATOM      5  C   LIG d   1      -5.955  78.071 118.152  0.00  0.00    -0.047 C 
ATOM      6  C   LIG d   1      -5.529  76.613 117.860  0.00  0.00     0.091 C 
ENDROOT
BRANCH   1   7
ATOM      7  O   LIG d   1      -6.403  74.329 117.715  0.00  0.00    -0.368 OA
BRANCH   7   8
ATOM      8  C   LIG d   1      -7.082  74.164 116.445  0.00  0.00     0.119 C 
BRANCH   8   9
ATOM      9  C   LIG d   1      -7.729  72.766 116.444  0.00  0.00     0.028 C 
ATOM     10  C   LIG d   1      -9.222  72.809 116.810  0.00  0.00     0.006 C 
ENDBRANCH   8   9
BRANCH   8  11
ATOM     11  C   LIG d   1      -6.089  74.153 115.279  0.00  0.00     0.028 C 
ATOM     12  C   LIG d   1      -6.110  75.457 114.465  0.00  0.00     0.006 C 
ENDBRANCH   8  11
ENDBRANCH   7   8
ENDBRANCH   1   7
BRANCH   6  13
ATOM     13  N   LIG d   1      -4.229  76.266 118.490  0.00  0.00    -0.311 N 
ATOM     14  C   LIG d   1      -3.159  75.877 117.797  0.00  0.00     0.210 C 
ATOM     15  C   LIG d   1      -1.926  75.547 118.644  0.00  0.00     0.109 C 
ATOM     16  O   LIG d   1      -3.106  75.805 116.561  0.00  0.00    -0.276 OA
ATOM     17  H   LIG d   1      -4.174  76.327 119.488  0.00  0.00     0.149 HD
ENDBRANCH   6  13
BRANCH   5  18
ATOM     18  N   LIG d   1      -5.033  79.068 117.577  0.00  0.00     0.381 N 
ATOM     19  H   LIG d   1      -4.280  79.240 118.213  0.00  0.00    -0.090 HD
ATOM     20  H   LIG d   1      -5.531  79.930 117.438  0.00  0.00    -0.090 HD
ATOM     21  H   LIG d   1      -4.674  78.740 116.708  0.00  0.00    -0.090 HD
ENDBRANCH   5  18
BRANCH   3  22
ATOM     22  C   LIG d   1      -9.612  77.731 117.996  0.00  0.00     0.382 C 
ATOM     23  O   LIG d   1      -9.919  78.947 117.958  0.00  0.00    -0.241 OA
ATOM     24  O   LIG d   1     -10.506  76.877 118.152  0.00  0.00    -0.241 OA
ENDBRANCH   3  22
TORSDOF 7
ENDMDL
MODEL 4
REMARK VINA RESULT:      -5.2     14.230     16.731
REMARK  7 active torsions:
REMARK  status: ('A' for Active; 'I' for Inactive)
REMARK    1  A    between atoms: C_2  and  C_3 
REMARK    2  A    between atoms: C_3  and  O_6 
REMARK    3  A    between atoms: C_3  and  C_4 
REMARK    4  A    between atoms: C_7  and  O_6 
REMARK    5  A    between atoms: C_9  and  C_10 
REMARK    6  A    between atoms: N_15  and  C_14 
REMARK    7  A    between atoms: N_20  and  C_19 
REMARK       I    between atoms: C_22  and  N_20 
ROOT
ATOM      1  C   LIG d   1       2.538  87.331 114.473  0.00  0.00     0.161 C 
ATOM      2  C   LIG d   1       3.033  88.590 114.095  0.00  0.00     0.016 C 
ATOM      3  C   LIG d   1       4.191  89.172 114.659  0.00  0.00     0.038 C 
ATOM      4  C   LIG d   1       5.024  88.464 115.539  0.00  0.00     0.028 C 
ATOM      5  C   LIG d   1       4.291  87.387 116.331  0.00  0.00    -0.047 C 
ATOM      6  C   LIG d   1       3.494  86.497 115.350  0.00  0.00     0.091 C 
ENDROOT
BRANCH   1   7
ATOM      7  O   LIG d   1       2.153  86.585 113.302  0.00  0.00    -0.368 OA
BRANCH   7   8
ATOM      8  C   LIG d   1       2.641  87.091 112.035  0.00  0.00     0.119 C 
BRANCH   8   9
ATOM      9  C   LIG d   1       1.452  87.111 111.055  0.00  0.00     0.028 C 
ATOM     10  C   LIG d   1       0.182  86.489 111.661  0.00  0.00     0.006 C 
ENDBRANCH   8   9
BRANCH   8  11
ATOM     11  C   LIG d   1       3.665  86.139 111.411  0.00  0.00     0.028 C 
ATOM     12  C   LIG d   1       3.646  84.742 112.052  0.00  0.00     0.006 C 
ENDBRANCH   8  11
ENDBRANCH   7   8
ENDBRANCH   1   7
BRANCH   6  13
ATOM     13  N   LIG d   1       2.681  85.469 116.051  0.00  0.00    -0.311 N 
ATOM     14  C   LIG d   1       2.989  84.173 116.063  0.00  0.00     0.210 C 
ATOM     15  C   LIG d   1       2.005  83.282 116.827  0.00  0.00     0.109 C 
ATOM     16  O   LIG d   1       4.000  83.682 115.540  0.00  0.00    -0.276 OA
ATOM     17  H   LIG d   1       1.859  85.785 116.528  0.00  0.00     0.149 HD
ENDBRANCH   6  13
BRANCH   5  18
ATOM     18  N   LIG d   1       5.300  86.638 117.104  0.00  0.00     0.381 N 
ATOM     19  H   LIG d   1       4.938  85.738 117.350  0.00  0.00    -0.090 HD
ATOM     20  H   LIG d   1       5.500  87.140 117.951  0.00  0.00    -0.090 HD
ATOM     21  H   LIG d   1       6.132  86.533 116.566  0.00  0.00    -0.090 HD
ENDBRANCH   5  18
BRANCH   3  22
ATOM     22  C   LIG d   1       4.505  90.493 114.375  0.00  0.00     0.382 C 
ATOM     23  O   LIG d   1       4.487  90.900 113.188  0.00  0.00    -0.241 OA
ATOM     24  O   LIG d   1       4.850  91.270 115.285  0.00  0.00    -0.241 OA
ENDBRANCH   3  22
TORSDOF 7
ENDMDL
MODEL 5
REMARK VINA RESULT:      -5.1      2.198      2.824
REMARK  7 active torsions:
REMARK  status: ('A' for Active; 'I' for Inactive)
REMARK    1  A    between atoms: C_2  and  C_3 
REMARK    2  A    between atoms: C_3  and  O_6 
REMARK    3  A    between atoms: C_3  and  C_4 
REMARK    4  A    between atoms: C_7  and  O_6 
REMARK    5  A    between atoms: C_9  and  C_10 
REMARK    6  A    between atoms: N_15  and  C_14 
REMARK    7  A    between atoms: N_20  and  C_19 
REMARK       I    between atoms: C_22  and  N_20 
ROOT
ATOM      1  C   LIG d   1      -5.945  76.589 117.290  0.00  0.00     0.161 C 
ATOM      2  C   LIG d   1      -6.790  77.685 117.532  0.00  0.00     0.016 C 
ATOM      3  C   LIG d   1      -6.360  79.030 117.454  0.00  0.00     0.038 C 
ATOM      4  C   LIG d   1      -5.087  79.375 116.978  0.00  0.00     0.028 C 
ATOM      5  C   LIG d   1      -4.040  78.289 117.204  0.00  0.00    -0.047 C 
ATOM      6  C   LIG d   1      -4.583  76.948 116.660  0.00  0.00     0.091 C 
ENDROOT
BRANCH   1   7
ATOM      7  O   LIG d   1      -6.631  75.614 116.478  0.00  0.00    -0.368 OA
BRANCH   7   8
ATOM      8  C   LIG d   1      -6.927  74.348 117.116  0.00  0.00     0.119 C 
BRANCH   8   9
ATOM      9  C   LIG d   1      -6.220  73.245 116.305  0.00  0.00     0.028 C 
ATOM     10  C   LIG d   1      -7.181  72.121 115.881  0.00  0.00     0.006 C 
ENDBRANCH   8   9
BRANCH   8  11
ATOM     11  C   LIG d   1      -8.420  74.018 117.035  0.00  0.00     0.028 C 
ATOM     12  C   LIG d   1      -9.314  75.190 117.470  0.00  0.00     0.006 C 
ENDBRANCH   8  11
ENDBRANCH   7   8
ENDBRANCH   1   7
BRANCH   6  13
ATOM     13  N   LIG d   1      -3.656  75.815 116.917  0.00  0.00    -0.311 N 
ATOM     14  C   LIG d   1      -3.046  75.134 115.950  0.00  0.00     0.210 C 
ATOM     15  C   LIG d   1      -2.147  73.990 116.432  0.00  0.00     0.109 C 
ATOM     16  O   LIG d   1      -3.138  75.387 114.739  0.00  0.00    -0.276 OA
ATOM     17  H   LIG d   1      -3.500  75.562 117.873  0.00  0.00     0.149 HD
ENDBRANCH   6  13
BRANCH   5  18
ATOM     18  N   LIG d   1      -2.797  78.723 116.538  0.00  0.00     0.381 N 
ATOM     19  H   LIG d   1      -2.558  79.647 116.836  0.00  0.00    -0.090 HD
ATOM     20  H   LIG d   1      -2.950  78.741 115.545  0.00  0.00    -0.090 HD
ATOM     21  H   LIG d   1      -2.057  78.093 116.756  0.00  0.00    -0.090 HD
ENDBRANCH   5  18
BRANCH   3  22
ATOM     22  C   LIG d   1      -7.196  80.045 117.894  0.00  0.00     0.382 C 
ATOM     23  O   LIG d   1      -7.804  80.761 117.063  0.00  0.00    -0.241 OA
ATOM     24  O   LIG d   1      -7.316  80.282 119.111  0.00  0.00    -0.241 OA
ENDBRANCH   3  22
TORSDOF 7
ENDMDL
MODEL 6
REMARK VINA RESULT:      -5.0      1.988      5.098
REMARK  7 active torsions:
REMARK  status: ('A' for Active; 'I' for Inactive)
REMARK    1  A    between atoms: C_2  and  C_3 
REMARK    2  A    between atoms: C_3  and  O_6 
REMARK    3  A    between atoms: C_3  and  C_4 
REMARK    4  A    between atoms: C_7  and  O_6 
REMARK    5  A    between atoms: C_9  and  C_10 
REMARK    6  A    between atoms: N_15  and  C_14 
REMARK    7  A    between atoms: N_20  and  C_19 
REMARK       I    between atoms: C_22  and  N_20 
ROOT
ATOM      1  C   LIG d   1      -7.248  75.946 116.966  0.00  0.00     0.161 C 
ATOM      2  C   LIG d   1      -7.977  74.745 116.964  0.00  0.00     0.016 C 
ATOM      3  C   LIG d   1      -7.448  73.515 116.509  0.00  0.00     0.038 C 
ATOM      4  C   LIG d   1      -6.096  73.372 116.164  0.00  0.00     0.028 C 
ATOM      5  C   LIG d   1      -5.456  74.666 115.672  0.00  0.00    -0.047 C 
ATOM      6  C   LIG d   1      -5.737  75.787 116.698  0.00  0.00     0.091 C 
ENDROOT
BRANCH   1   7
ATOM      7  O   LIG d   1      -7.466  76.647 118.207  0.00  0.00    -0.368 OA
BRANCH   7   8
ATOM      8  C   LIG d   1      -8.162  77.914 118.110  0.00  0.00     0.119 C 
BRANCH   8   9
ATOM      9  C   LIG d   1      -7.218  79.003 118.654  0.00  0.00     0.028 C 
ATOM     10  C   LIG d   1      -7.133  80.225 117.724  0.00  0.00     0.006 C 
ENDBRANCH   8   9
BRANCH   8  11
ATOM     11  C   LIG d   1      -9.390  77.947 119.024  0.00  0.00     0.028 C 
ATOM     12  C   LIG d   1     -10.528  77.042 118.527  0.00  0.00     0.006 C 
ENDBRANCH   8  11
ENDBRANCH   7   8
ENDBRANCH   1   7
BRANCH   6  13
ATOM     13  N   LIG d   1      -5.218  77.106 116.253  0.00  0.00    -0.311 N 
ATOM     14  C   LIG d   1      -4.239  77.758 116.879  0.00  0.00     0.210 C 
ATOM     15  C   LIG d   1      -3.869  79.112 116.266  0.00  0.00     0.109 C 
ATOM     16  O   LIG d   1      -3.621  77.328 117.864  0.00  0.00    -0.276 OA
ATOM     17  H   LIG d   1      -5.642  77.514 115.443  0.00  0.00     0.149 HD
ENDBRANCH   6  13
BRANCH   5  18
ATOM     18  N   LIG d   1      -4.016  74.406 115.480  0.00  0.00     0.381 N 
ATOM     19  H   LIG d   1      -3.480  75.084 115.983  0.00  0.00    -0.090 HD
ATOM     20  H   LIG d   1      -3.798  74.493 114.503  0.00  0.00    -0.090 HD
ATOM     21  H   LIG d   1      -3.790  73.489 115.798  0.00  0.00    -0.090 HD
ENDBRANCH   5  18
BRANCH   3  22
ATOM     22  C   LIG d   1      -8.286  72.421 116.357  0.00  0.00     0.382 C 
ATOM     23  O   LIG d   1      -7.918  71.441 115.666  0.00  0.00    -0.241 OA
ATOM     24  O   LIG d   1      -9.422  72.420 116.867  0.00  0.00    -0.241 OA
ENDBRANCH   3  22
TORSDOF 7
ENDMDL
MODEL 7
REMARK VINA RESULT:      -5.0      4.164      6.617
REMARK  7 active torsions:
REMARK  status: ('A' for Active; 'I' for Inactive)
REMARK    1  A    between atoms: C_2  and  C_3 
REMARK    2  A    between atoms: C_3  and  O_6 
REMARK    3  A    between atoms: C_3  and  C_4 
REMARK    4  A    between atoms: C_7  and  O_6 
REMARK    5  A    between atoms: C_9  and  C_10 
REMARK    6  A    between atoms: N_15  and  C_14 
REMARK    7  A    between atoms: N_20  and  C_19 
REMARK       I    between atoms: C_22  and  N_20 
ROOT
ATOM      1  C   LIG d   1      -2.825  76.301 115.911  0.00  0.00     0.161 C 
ATOM      2  C   LIG d   1      -3.172  77.039 114.767  0.00  0.00     0.016 C 
ATOM      3  C   LIG d   1      -2.268  77.311 113.714  0.00  0.00     0.038 C 
ATOM      4  C   LIG d   1      -0.992  76.732 113.663  0.00  0.00     0.028 C 
ATOM      5  C   LIG d   1      -0.425  76.393 115.038  0.00  0.00    -0.047 C 
ATOM      6  C   LIG d   1      -1.471  75.567 115.822  0.00  0.00     0.091 C 
ENDROOT
BRANCH   1   7
ATOM      7  O   LIG d   1      -3.879  75.370 116.230  0.00  0.00    -0.368 OA
BRANCH   7   8
ATOM      8  C   LIG d   1      -5.174  75.950 116.525  0.00  0.00     0.119 C 
BRANCH   8   9
ATOM      9  C   LIG d   1      -5.426  75.777 118.035  0.00  0.00     0.028 C 
ATOM     10  C   LIG d   1      -6.703  74.973 118.328  0.00  0.00     0.006 C 
ENDBRANCH   8   9
BRANCH   8  11
ATOM     11  C   LIG d   1      -6.301  75.177 115.834  0.00  0.00     0.028 C 
ATOM     12  C   LIG d   1      -5.781  74.061 114.914  0.00  0.00     0.006 C 
ENDBRANCH   8  11
ENDBRANCH   7   8
ENDBRANCH   1   7
BRANCH   6  13
ATOM     13  N   LIG d   1      -1.030  75.265 117.209  0.00  0.00    -0.311 N 
ATOM     14  C   LIG d   1      -0.757  74.035 117.640  0.00  0.00     0.210 C 
ATOM     15  C   LIG d   1      -0.339  73.943 119.111  0.00  0.00     0.109 C 
ATOM     16  O   LIG d   1      -0.791  73.015 116.935  0.00  0.00    -0.276 OA
ATOM     17  H   LIG d   1      -0.947  76.038 117.839  0.00  0.00     0.149 HD
ENDBRANCH   6  13
BRANCH   5  18
ATOM     18  N   LIG d   1       0.845  75.672 114.832  0.00  0.00     0.381 N 
ATOM     19  H   LIG d   1       0.680  74.842 114.298  0.00  0.00    -0.090 HD
ATOM     20  H   LIG d   1       1.215  75.404 115.726  0.00  0.00    -0.090 HD
ATOM     21  H   LIG d   1       1.496  76.258 114.356  0.00  0.00    -0.090 HD
ENDBRANCH   5  18
BRANCH   3  22
ATOM     22  C   LIG d   1      -2.626  78.205 112.716  0.00  0.00     0.382 C 
ATOM     23  O   LIG d   1      -2.951  79.380 113.013  0.00  0.00    -0.241 OA
ATOM     24  O   LIG d   1      -2.671  77.838 111.526  0.00  0.00    -0.241 OA
ENDBRANCH   3  22
TORSDOF 7
ENDMDL
MODEL 8
REMARK VINA RESULT:      -4.9      2.149      4.502
REMARK  7 active torsions:
REMARK  status: ('A' for Active; 'I' for Inactive)
REMARK    1  A    between atoms: C_2  and  C_3 
REMARK    2  A    between atoms: C_3  and  O_6 
REMARK    3  A    between atoms: C_3  and  C_4 
REMARK    4  A    between atoms: C_7  and  O_6 
REMARK    5  A    between atoms: C_9  and  C_10 
REMARK    6  A    between atoms: N_15  and  C_14 
REMARK    7  A    between atoms: N_20  and  C_19 
REMARK       I    between atoms: C_22  and  N_20 
ROOT
ATOM      1  C   LIG d   1      -5.960  76.188 116.698  0.00  0.00     0.161 C 
ATOM      2  C   LIG d   1      -5.990  77.545 117.061  0.00  0.00     0.016 C 
ATOM      3  C   LIG d   1      -7.142  78.189 117.569  0.00  0.00     0.038 C 
ATOM      4  C   LIG d   1      -8.307  77.478 117.892  0.00  0.00     0.028 C 
ATOM      5  C   LIG d   1      -8.488  76.205 117.072  0.00  0.00    -0.047 C 
ATOM      6  C   LIG d   1      -7.189  75.370 117.149  0.00  0.00     0.091 C 
ENDROOT
BRANCH   1   7
ATOM      7  O   LIG d   1      -4.748  75.579 117.185  0.00  0.00    -0.368 OA
BRANCH   7   8
ATOM      8  C   LIG d   1      -3.901  74.958 116.187  0.00  0.00     0.119 C 
BRANCH   8   9
ATOM      9  C   LIG d   1      -2.438  75.243 116.579  0.00  0.00     0.028 C 
ATOM     10  C   LIG d   1      -1.633  73.955 116.818  0.00  0.00     0.006 C 
ENDBRANCH   8   9
BRANCH   8  11
ATOM     11  C   LIG d   1      -4.088  75.610 114.814  0.00  0.00     0.028 C 
ATOM     12  C   LIG d   1      -3.034  76.689 114.518  0.00  0.00     0.006 C 
ENDBRANCH   8  11
ENDBRANCH   7   8
ENDBRANCH   1   7
BRANCH   6  13
ATOM     13  N   LIG d   1      -7.250  74.148 116.305  0.00  0.00    -0.311 N 
ATOM     14  C   LIG d   1      -7.096  72.916 116.787  0.00  0.00     0.210 C 
ATOM     15  C   LIG d   1      -7.176  71.799 115.743  0.00  0.00     0.109 C 
ATOM     16  O   LIG d   1      -6.934  72.641 117.986  0.00  0.00    -0.276 OA
ATOM     17  H   LIG d   1      -7.409  74.278 115.325  0.00  0.00     0.149 HD
ENDBRANCH   6  13
BRANCH   5  18
ATOM     18  N   LIG d   1      -9.664  75.494 117.606  0.00  0.00     0.381 N 
ATOM     19  H   LIG d   1     -10.239  75.176 116.852  0.00  0.00    -0.090 HD
ATOM     20  H   LIG d   1     -10.203  76.131 118.166  0.00  0.00    -0.090 HD
ATOM     21  H   LIG d   1      -9.372  74.719 118.160  0.00  0.00    -0.090 HD
ENDBRANCH   5  18
BRANCH   3  22
ATOM     22  C   LIG d   1      -7.148  79.567 117.720  0.00  0.00     0.382 C 
ATOM     23  O   LIG d   1      -7.962  80.108 118.506  0.00  0.00    -0.241 OA
ATOM     24  O   LIG d   1      -6.379  80.280 117.047  0.00  0.00    -0.241 OA
ENDBRANCH   3  22
TORSDOF 7
ENDMDL
MODEL 9
REMARK VINA RESULT:      -4.7     16.372     18.070
REMARK  7 active torsions:
REMARK  status: ('A' for Active; 'I' for Inactive)
REMARK    1  A    between atoms: C_2  and  C_3 
REMARK    2  A    between atoms: C_3  and  O_6 
REMARK    3  A    between atoms: C_3  and  C_4 
REMARK    4  A    between atoms: C_7  and  O_6 
REMARK    5  A    between atoms: C_9  and  C_10 
REMARK    6  A    between atoms: N_15  and  C_14 
REMARK    7  A    between atoms: N_20  and  C_19 
REMARK       I    between atoms: C_22  and  N_20 
ROOT
ATOM      1  C   LIG d   1       3.086  87.744 115.351  0.00  0.00     0.161 C 
ATOM      2  C   LIG d   1       3.195  86.723 114.392  0.00  0.00     0.016 C 
ATOM      3  C   LIG d   1       3.667  86.939 113.077  0.00  0.00     0.038 C 
ATOM      4  C   LIG d   1       4.208  88.169 112.676  0.00  0.00     0.028 C 
ATOM      5  C   LIG d   1       3.652  89.358 113.453  0.00  0.00    -0.047 C 
ATOM      6  C   LIG d   1       3.775  89.070 114.967  0.00  0.00     0.091 C 
ENDROOT
BRANCH   1   7
ATOM      7  O   LIG d   1       3.577  87.274 116.623  0.00  0.00    -0.368 OA
BRANCH   7   8
ATOM      8  C   LIG d   1       4.958  86.837 116.650  0.00  0.00     0.119 C 
BRANCH   8   9
ATOM      9  C   LIG d   1       4.998  85.477 117.375  0.00  0.00     0.028 C 
ATOM     10  C   LIG d   1       5.204  85.627 118.892  0.00  0.00     0.006 C 
ENDBRANCH   8   9
BRANCH   8  11
ATOM     11  C   LIG d   1       5.822  87.774 117.498  0.00  0.00     0.028 C 
ATOM     12  C   LIG d   1       6.985  88.392 116.706  0.00  0.00     0.006 C 
ENDBRANCH   8  11
ENDBRANCH   7   8
ENDBRANCH   1   7
BRANCH   6  13
ATOM     13  N   LIG d   1       3.177  90.146 115.799  0.00  0.00    -0.311 N 
ATOM     14  C   LIG d   1       3.861  91.204 116.231  0.00  0.00     0.210 C 
ATOM     15  C   LIG d   1       3.059  92.185 117.092  0.00  0.00     0.109 C 
ATOM     16  O   LIG d   1       5.047  91.440 115.956  0.00  0.00    -0.276 OA
ATOM     17  H   LIG d   1       2.211  90.050 116.043  0.00  0.00     0.149 HD
ENDBRANCH   6  13
BRANCH   5  18
ATOM     18  N   LIG d   1       4.400  90.557 113.030  0.00  0.00     0.381 N 
ATOM     19  H   LIG d   1       4.302  91.277 113.717  0.00  0.00    -0.090 HD
ATOM     20  H   LIG d   1       4.015  90.892 112.164  0.00  0.00    -0.090 HD
ATOM     21  H   LIG d   1       5.363  90.332 112.908  0.00  0.00    -0.090 HD
ENDBRANCH   5  18
BRANCH   3  22
ATOM     22  C   LIG d   1       3.564  85.926 112.135  0.00  0.00     0.382 C 
ATOM     23  O   LIG d   1       2.919  86.119 111.076  0.00  0.00    -0.241 OA
ATOM     24  O   LIG d   1       4.070  84.809 112.351  0.00  0.00    -0.241 OA
ENDBRANCH   3  22
TORSDOF 7
ENDMDL
