MODEL 1
REMARK VINA RESULT:      -5.5      0.000      0.000
REMARK  7 active torsions:
REMARK  status: ('A' for Active; 'I' for Inactive)
REMARK    1  A    between atoms: C_2  and  C_3 
REMARK    2  A    between atoms: C_3  and  O_6 
REMARK    3  A    between atoms: C_3  and  C_4 
REMARK    4  A    between atoms: C_7  and  O_6 
REMARK    5  A    between atoms: C_9  and  C_10 
REMARK    6  A    between atoms: N_15  and  C_14 
REMARK    7  A    between atoms: N_20  and  C_19 
REMARK       I    between atoms: C_22  and  N_20 
ROOT
ATOM      1  C   LIG d   1      -7.011  77.241 117.544  0.00  0.00     0.161 C 
ATOM      2  C   LIG d   1      -8.291  77.772 117.776  0.00  0.00     0.016 C 
ATOM      3  C   LIG d   1      -8.570  79.158 117.777  0.00  0.00     0.038 C 
ATOM      4  C   LIG d   1      -7.612  80.107 117.394  0.00  0.00     0.028 C 
ATOM      5  C   LIG d   1      -6.177  79.654 117.643  0.00  0.00    -0.047 C 
ATOM      6  C   LIG d   1      -5.976  78.256 117.015  0.00  0.00     0.091 C 
ENDROOT
BRANCH   1   7
ATOM      7  O   LIG d   1      -7.104  76.111 116.655  0.00  0.00    -0.368 OA
BRANCH   7   8
ATOM      8  C   LIG d   1      -6.717  74.830 117.209  0.00  0.00     0.119 C 
BRANCH   8   9
ATOM      9  C   LIG d   1      -5.788  74.145 116.189  0.00  0.00     0.028 C 
ATOM     10  C   LIG d   1      -5.614  74.974 114.905  0.00  0.00     0.006 C 
ENDBRANCH   8   9
BRANCH   8  11
ATOM     11  C   LIG d   1      -7.923  73.896 117.349  0.00  0.00     0.028 C 
ATOM     12  C   LIG d   1      -7.608  72.449 116.939  0.00  0.00     0.006 C 
ENDBRANCH   8  11
ENDBRANCH   7   8
ENDBRANCH   1   7
BRANCH   6  13
ATOM     13  N   LIG d   1      -4.624  77.702 117.285  0.00  0.00    -0.311 N 
ATOM     14  C   LIG d   1      -3.607  77.801 116.431  0.00  0.00     0.210 C 
ATOM     15  C   LIG d   1      -2.304  77.143 116.897  0.00  0.00     0.109 C 
ATOM     16  O   LIG d   1      -3.651  78.398 115.345  0.00  0.00    -0.276 OA
ATOM     17  H   LIG d   1      -4.491  77.229 118.157  0.00  0.00     0.149 HD
ENDBRANCH   6  13
BRANCH   5  18
ATOM     18  N   LIG d   1      -5.281  80.678 117.073  0.00  0.00     0.381 N 
ATOM     19  H   LIG d   1      -5.620  81.591 117.302  0.00  0.00    -0.090 HD
ATOM     20  H   LIG d   1      -5.276  80.586 116.072  0.00  0.00    -0.090 HD
ATOM     21  H   LIG d   1      -4.358  80.560 117.429  0.00  0.00    -0.090 HD
ENDBRANCH   5  18
BRANCH   3  22
ATOM     22  C   LIG d   1      -9.810  79.608 118.203  0.00  0.00     0.382 C 
ATOM     23  O   LIG d   1     -10.517  78.888 118.948  0.00  0.00    -0.241 OA
ATOM     24  O   LIG d   1     -10.250  80.707 117.815  0.00  0.00    -0.241 OA
ENDBRANCH   3  22
TORSDOF 7
ENDMDL
MODEL 2
REMARK VINA RESULT:      -5.2     10.950     14.053
REMARK  7 active torsions:
REMARK  status: ('A' for Active; 'I' for Inactive)
REMARK    1  A    between atoms: C_2  and  C_3 
REMARK    2  A    between atoms: C_3  and  O_6 
REMARK    3  A    between atoms: C_3  and  C_4 
REMARK    4  A    between atoms: C_7  and  O_6 
REMARK    5  A    between atoms: C_9  and  C_10 
REMARK    6  A    between atoms: N_15  and  C_14 
REMARK    7  A    between atoms: N_20  and  C_19 
REMARK       I    between atoms: C_22  and  N_20 
ROOT
ATOM      1  C   LIG d   1       2.617  86.172 113.772  0.00  0.00     0.161 C 
ATOM      2  C   LIG d   1       3.351  87.369 113.714  0.00  0.00     0.016 C 
ATOM      3  C   LIG d   1       4.449  87.567 112.846  0.00  0.00     0.038 C 
ATOM      4  C   LIG d   1       4.796  86.628 111.863  0.00  0.00     0.028 C 
ATOM      5  C   LIG d   1       4.402  85.200 112.223  0.00  0.00    -0.047 C 
ATOM      6  C   LIG d   1       2.910  85.178 112.629  0.00  0.00     0.091 C 
ENDROOT
BRANCH   1   7
ATOM      7  O   LIG d   1       1.207  86.466 113.831  0.00  0.00    -0.368 OA
BRANCH   7   8
ATOM      8  C   LIG d   1       0.516  86.034 115.029  0.00  0.00     0.119 C 
BRANCH   8   9
ATOM      9  C   LIG d   1      -0.875  85.526 114.602  0.00  0.00     0.028 C 
ATOM     10  C   LIG d   1      -1.369  84.363 115.479  0.00  0.00     0.006 C 
ENDBRANCH   8   9
BRANCH   8  11
ATOM     11  C   LIG d   1       0.246  87.210 115.972  0.00  0.00     0.028 C 
ATOM     12  C   LIG d   1       1.433  87.513 116.900  0.00  0.00     0.006 C 
ENDBRANCH   8  11
ENDBRANCH   7   8
ENDBRANCH   1   7
BRANCH   6  13
ATOM     13  N   LIG d   1       2.465  83.833 113.078  0.00  0.00    -0.311 N 
ATOM     14  C   LIG d   1       1.521  83.128 112.456  0.00  0.00     0.210 C 
ATOM     15  C   LIG d   1       1.199  81.774 113.096  0.00  0.00     0.109 C 
ATOM     16  O   LIG d   1       0.943  83.481 111.417  0.00  0.00    -0.276 OA
ATOM     17  H   LIG d   1       2.903  83.456 113.895  0.00  0.00     0.149 HD
ENDBRANCH   6  13
BRANCH   5  18
ATOM     18  N   LIG d   1       4.696  84.348 111.055  0.00  0.00     0.381 N 
ATOM     19  H   LIG d   1       4.584  83.385 111.302  0.00  0.00    -0.090 HD
ATOM     20  H   LIG d   1       5.650  84.494 110.778  0.00  0.00    -0.090 HD
ATOM     21  H   LIG d   1       4.085  84.578 110.303  0.00  0.00    -0.090 HD
ENDBRANCH   5  18
BRANCH   3  22
ATOM     22  C   LIG d   1       5.239  88.698 112.984  0.00  0.00     0.382 C 
ATOM     23  O   LIG d   1       4.788  89.821 112.653  0.00  0.00    -0.241 OA
ATOM     24  O   LIG d   1       6.412  88.604 113.392  0.00  0.00    -0.241 OA
ENDBRANCH   3  22
TORSDOF 7
ENDMDL
MODEL 3
REMARK VINA RESULT:      -5.1      4.054      6.503
REMARK  7 active torsions:
REMARK  status: ('A' for Active; 'I' for Inactive)
REMARK    1  A    between atoms: C_2  and  C_3 
REMARK    2  A    between atoms: C_3  and  O_6 
REMARK    3  A    between atoms: C_3  and  C_4 
REMARK    4  A    between atoms: C_7  and  O_6 
REMARK    5  A    between atoms: C_9  and  C_10 
REMARK    6  A    between atoms: N_15  and  C_14 
REMARK    7  A    between atoms: N_20  and  C_19 
REMARK       I    between atoms: C_22  and  N_20 
ROOT
ATOM      1  C   LIG d   1      -2.261  75.565 114.859  0.00  0.00     0.161 C 
ATOM      2  C   LIG d   1      -2.092  74.681 115.937  0.00  0.00     0.016 C 
ATOM      3  C   LIG d   1      -1.272  74.964 117.054  0.00  0.00     0.038 C 
ATOM      4  C   LIG d   1      -0.682  76.222 117.240  0.00  0.00     0.028 C 
ATOM      5  C   LIG d   1      -0.416  76.966 115.936  0.00  0.00    -0.047 C 
ATOM      6  C   LIG d   1      -1.714  76.988 115.097  0.00  0.00     0.091 C 
ENDROOT
BRANCH   1   7
ATOM      7  O   LIG d   1      -3.652  75.619 114.486  0.00  0.00    -0.368 OA
BRANCH   7   8
ATOM      8  C   LIG d   1      -4.607  75.537 115.572  0.00  0.00     0.119 C 
BRANCH   8   9
ATOM      9  C   LIG d   1      -5.712  74.552 115.144  0.00  0.00     0.028 C 
ATOM     10  C   LIG d   1      -6.317  73.793 116.337  0.00  0.00     0.006 C 
ENDBRANCH   8   9
BRANCH   8  11
ATOM     11  C   LIG d   1      -5.319  76.875 115.791  0.00  0.00     0.028 C 
ATOM     12  C   LIG d   1      -4.744  77.669 116.974  0.00  0.00     0.006 C 
ENDBRANCH   8  11
ENDBRANCH   7   8
ENDBRANCH   1   7
BRANCH   6  13
ATOM     13  N   LIG d   1      -1.519  77.623 113.768  0.00  0.00    -0.311 N 
ATOM     14  C   LIG d   1      -2.140  78.739 113.390  0.00  0.00     0.210 C 
ATOM     15  C   LIG d   1      -1.812  79.214 111.971  0.00  0.00     0.109 C 
ATOM     16  O   LIG d   1      -2.907  79.399 114.108  0.00  0.00    -0.276 OA
ATOM     17  H   LIG d   1      -0.889  77.171 113.134  0.00  0.00     0.149 HD
ENDBRANCH   6  13
BRANCH   5  18
ATOM     18  N   LIG d   1       0.071  78.314 116.283  0.00  0.00     0.381 N 
ATOM     19  H   LIG d   1       1.064  78.296 116.402  0.00  0.00    -0.090 HD
ATOM     20  H   LIG d   1      -0.346  78.597 117.152  0.00  0.00    -0.090 HD
ATOM     21  H   LIG d   1      -0.172  78.960 115.564  0.00  0.00    -0.090 HD
ENDBRANCH   5  18
BRANCH   3  22
ATOM     22  C   LIG d   1      -1.004  73.967 117.980  0.00  0.00     0.382 C 
ATOM     23  O   LIG d   1       0.065  73.991 118.635  0.00  0.00    -0.241 OA
ATOM     24  O   LIG d   1      -1.797  73.019 118.136  0.00  0.00    -0.241 OA
ENDBRANCH   3  22
TORSDOF 7
ENDMDL
MODEL 4
REMARK VINA RESULT:      -5.1      8.552     11.513
REMARK  7 active torsions:
REMARK  status: ('A' for Active; 'I' for Inactive)
REMARK    1  A    between atoms: C_2  and  C_3 
REMARK    2  A    between atoms: C_3  and  O_6 
REMARK    3  A    between atoms: C_3  and  C_4 
REMARK    4  A    between atoms: C_7  and  O_6 
REMARK    5  A    between atoms: C_9  and  C_10 
REMARK    6  A    between atoms: N_15  and  C_14 
REMARK    7  A    between atoms: N_20  and  C_19 
REMARK       I    between atoms: C_22  and  N_20 
ROOT
ATOM      1  C   LIG d   1       0.193  84.218 112.385  0.00  0.00     0.161 C 
ATOM      2  C   LIG d   1      -0.847  83.306 112.625  0.00  0.00     0.016 C 
ATOM      3  C   LIG d   1      -0.715  81.910 112.442  0.00  0.00     0.038 C 
ATOM      4  C   LIG d   1       0.520  81.314 112.148  0.00  0.00     0.028 C 
ATOM      5  C   LIG d   1       1.477  82.239 111.404  0.00  0.00    -0.047 C 
ATOM      6  C   LIG d   1       1.580  83.577 112.171  0.00  0.00     0.091 C 
ENDROOT
BRANCH   1   7
ATOM      7  O   LIG d   1       0.248  85.188 113.450  0.00  0.00    -0.368 OA
BRANCH   7   8
ATOM      8  C   LIG d   1       0.697  84.696 114.737  0.00  0.00     0.119 C 
BRANCH   8   9
ATOM      9  C   LIG d   1      -0.482  84.830 115.720  0.00  0.00     0.028 C 
ATOM     10  C   LIG d   1      -0.895  83.479 116.329  0.00  0.00     0.006 C 
ENDBRANCH   8   9
BRANCH   8  11
ATOM     11  C   LIG d   1       1.808  85.577 115.314  0.00  0.00     0.028 C 
ATOM     12  C   LIG d   1       1.843  86.980 114.686  0.00  0.00     0.006 C 
ENDBRANCH   8  11
ENDBRANCH   7   8
ENDBRANCH   1   7
BRANCH   6  13
ATOM     13  N   LIG d   1       2.432  84.570 111.466  0.00  0.00    -0.311 N 
ATOM     14  C   LIG d   1       3.612  84.982 111.927  0.00  0.00     0.210 C 
ATOM     15  C   LIG d   1       4.317  86.026 111.055  0.00  0.00     0.109 C 
ATOM     16  O   LIG d   1       4.156  84.559 112.957  0.00  0.00    -0.276 OA
ATOM     17  H   LIG d   1       2.081  84.943 110.606  0.00  0.00     0.149 HD
ENDBRANCH   6  13
BRANCH   5  18
ATOM     18  N   LIG d   1       2.770  81.540 111.284  0.00  0.00     0.381 N 
ATOM     19  H   LIG d   1       3.001  81.103 112.155  0.00  0.00    -0.090 HD
ATOM     20  H   LIG d   1       3.485  82.212 111.070  0.00  0.00    -0.090 HD
ATOM     21  H   LIG d   1       2.722  80.854 110.563  0.00  0.00    -0.090 HD
ENDBRANCH   5  18
BRANCH   3  22
ATOM     22  C   LIG d   1      -1.838  81.098 112.513  0.00  0.00     0.382 C 
ATOM     23  O   LIG d   1      -2.961  81.552 112.185  0.00  0.00    -0.241 OA
ATOM     24  O   LIG d   1      -1.748  79.933 112.943  0.00  0.00    -0.241 OA
ENDBRANCH   3  22
TORSDOF 7
ENDMDL
MODEL 5
REMARK VINA RESULT:      -5.0     11.649     14.851
REMARK  7 active torsions:
REMARK  status: ('A' for Active; 'I' for Inactive)
REMARK    1  A    between atoms: C_2  and  C_3 
REMARK    2  A    between atoms: C_3  and  O_6 
REMARK    3  A    between atoms: C_3  and  C_4 
REMARK    4  A    between atoms: C_7  and  O_6 
REMARK    5  A    between atoms: C_9  and  C_10 
REMARK    6  A    between atoms: N_15  and  C_14 
REMARK    7  A    between atoms: N_20  and  C_19 
REMARK       I    between atoms: C_22  and  N_20 
ROOT
ATOM      1  C   LIG d   1       2.579  87.187 114.410  0.00  0.00     0.161 C 
ATOM      2  C   LIG d   1       3.718  88.008 114.370  0.00  0.00     0.016 C 
ATOM      3  C   LIG d   1       4.663  87.977 113.318  0.00  0.00     0.038 C 
ATOM      4  C   LIG d   1       4.451  87.225 112.153  0.00  0.00     0.028 C 
ATOM      5  C   LIG d   1       3.568  86.001 112.375  0.00  0.00    -0.047 C 
ATOM      6  C   LIG d   1       2.273  86.440 113.095  0.00  0.00     0.091 C 
ENDROOT
BRANCH   1   7
ATOM      7  O   LIG d   1       1.435  87.959 114.826  0.00  0.00    -0.368 OA
BRANCH   7   8
ATOM      8  C   LIG d   1       0.963  87.724 116.175  0.00  0.00     0.119 C 
BRANCH   8   9
ATOM      9  C   LIG d   1       1.162  89.030 116.969  0.00  0.00     0.028 C 
ATOM     10  C   LIG d   1      -0.147  89.821 117.135  0.00  0.00     0.006 C 
ENDBRANCH   8   9
BRANCH   8  11
ATOM     11  C   LIG d   1       1.823  86.680 116.892  0.00  0.00     0.028 C 
ATOM     12  C   LIG d   1       2.286  87.141 118.283  0.00  0.00     0.006 C 
ENDBRANCH   8  11
ENDBRANCH   7   8
ENDBRANCH   1   7
BRANCH   6  13
ATOM     13  N   LIG d   1       1.391  85.291 113.426  0.00  0.00    -0.311 N 
ATOM     14  C   LIG d   1       0.296  84.984 112.732  0.00  0.00     0.210 C 
ATOM     15  C   LIG d   1      -0.482  83.772 113.254  0.00  0.00     0.109 C 
ATOM     16  O   LIG d   1      -0.088  85.581 111.715  0.00  0.00    -0.276 OA
ATOM     17  H   LIG d   1       1.645  84.734 114.218  0.00  0.00     0.149 HD
ENDBRANCH   6  13
BRANCH   5  18
ATOM     18  N   LIG d   1       3.317  85.388 111.057  0.00  0.00     0.381 N 
ATOM     19  H   LIG d   1       2.546  84.754 111.119  0.00  0.00    -0.090 HD
ATOM     20  H   LIG d   1       4.132  84.869 110.780  0.00  0.00    -0.090 HD
ATOM     21  H   LIG d   1       3.121  86.096 110.384  0.00  0.00    -0.090 HD
ENDBRANCH   5  18
BRANCH   3  22
ATOM     22  C   LIG d   1       5.854  88.675 113.444  0.00  0.00     0.382 C 
ATOM     23  O   LIG d   1       6.478  89.040 112.419  0.00  0.00    -0.241 OA
ATOM     24  O   LIG d   1       6.336  88.904 114.570  0.00  0.00    -0.241 OA
ENDBRANCH   3  22
TORSDOF 7
ENDMDL
MODEL 6
REMARK VINA RESULT:      -4.9      2.414      4.755
REMARK  7 active torsions:
REMARK  status: ('A' for Active; 'I' for Inactive)
REMARK    1  A    between atoms: C_2  and  C_3 
REMARK    2  A    between atoms: C_3  and  O_6 
REMARK    3  A    between atoms: C_3  and  C_4 
REMARK    4  A    between atoms: C_7  and  O_6 
REMARK    5  A    between atoms: C_9  and  C_10 
REMARK    6  A    between atoms: N_15  and  C_14 
REMARK    7  A    between atoms: N_20  and  C_19 
REMARK       I    between atoms: C_22  and  N_20 
ROOT
ATOM      1  C   LIG d   1      -5.520  76.952 116.583  0.00  0.00     0.161 C 
ATOM      2  C   LIG d   1      -6.835  77.295 116.941  0.00  0.00     0.016 C 
ATOM      3  C   LIG d   1      -7.840  76.341 117.219  0.00  0.00     0.038 C 
ATOM      4  C   LIG d   1      -7.557  74.970 117.306  0.00  0.00     0.028 C 
ATOM      5  C   LIG d   1      -6.364  74.543 116.458  0.00  0.00    -0.047 C 
ATOM      6  C   LIG d   1      -5.165  75.463 116.781  0.00  0.00     0.091 C 
ENDROOT
BRANCH   1   7
ATOM      7  O   LIG d   1      -4.586  77.789 117.292  0.00  0.00    -0.368 OA
BRANCH   7   8
ATOM      8  C   LIG d   1      -4.280  79.065 116.678  0.00  0.00     0.119 C 
BRANCH   8   9
ATOM      9  C   LIG d   1      -2.781  79.058 116.320  0.00  0.00     0.028 C 
ATOM     10  C   LIG d   1      -2.503  78.376 114.969  0.00  0.00     0.006 C 
ENDBRANCH   8   9
BRANCH   8  11
ATOM     11  C   LIG d   1      -4.454  80.218 117.671  0.00  0.00     0.028 C 
ATOM     12  C   LIG d   1      -5.520  81.231 117.226  0.00  0.00     0.006 C 
ENDBRANCH   8  11
ENDBRANCH   7   8
ENDBRANCH   1   7
BRANCH   6  13
ATOM     13  N   LIG d   1      -3.979  75.168 115.934  0.00  0.00    -0.311 N 
ATOM     14  C   LIG d   1      -3.013  74.324 116.293  0.00  0.00     0.210 C 
ATOM     15  C   LIG d   1      -1.872  74.179 115.282  0.00  0.00     0.109 C 
ATOM     16  O   LIG d   1      -3.010  73.658 117.339  0.00  0.00    -0.276 OA
ATOM     17  H   LIG d   1      -3.918  75.642 115.054  0.00  0.00     0.149 HD
ENDBRANCH   6  13
BRANCH   5  18
ATOM     18  N   LIG d   1      -6.096  73.122 116.749  0.00  0.00     0.381 N 
ATOM     19  H   LIG d   1      -5.903  72.632 115.898  0.00  0.00    -0.090 HD
ATOM     20  H   LIG d   1      -6.915  72.716 117.168  0.00  0.00    -0.090 HD
ATOM     21  H   LIG d   1      -5.322  73.041 117.370  0.00  0.00    -0.090 HD
ENDBRANCH   5  18
BRANCH   3  22
ATOM     22  C   LIG d   1      -9.155  76.753 117.375  0.00  0.00     0.382 C 
ATOM     23  O   LIG d   1      -9.404  77.878 117.871  0.00  0.00    -0.241 OA
ATOM     24  O   LIG d   1     -10.095  75.997 117.066  0.00  0.00    -0.241 OA
ENDBRANCH   3  22
TORSDOF 7
ENDMDL
MODEL 7
REMARK VINA RESULT:      -4.9     12.269     14.326
REMARK  7 active torsions:
REMARK  status: ('A' for Active; 'I' for Inactive)
REMARK    1  A    between atoms: C_2  and  C_3 
REMARK    2  A    between atoms: C_3  and  O_6 
REMARK    3  A    between atoms: C_3  and  C_4 
REMARK    4  A    between atoms: C_7  and  O_6 
REMARK    5  A    between atoms: C_9  and  C_10 
REMARK    6  A    between atoms: N_15  and  C_14 
REMARK    7  A    between atoms: N_20  and  C_19 
REMARK       I    between atoms: C_22  and  N_20 
ROOT
ATOM      1  C   LIG d   1       1.900  88.334 115.920  0.00  0.00     0.161 C 
ATOM      2  C   LIG d   1       0.624  88.600 116.443  0.00  0.00     0.016 C 
ATOM      3  C   LIG d   1       0.319  89.753 117.202  0.00  0.00     0.038 C 
ATOM      4  C   LIG d   1       1.238  90.800 117.361  0.00  0.00     0.028 C 
ATOM      5  C   LIG d   1       2.692  90.348 117.279  0.00  0.00    -0.047 C 
ATOM      6  C   LIG d   1       2.887  89.518 115.989  0.00  0.00     0.091 C 
ENDROOT
BRANCH   1   7
ATOM      7  O   LIG d   1       1.783  87.858 114.564  0.00  0.00    -0.368 OA
BRANCH   7   8
ATOM      8  C   LIG d   1       1.931  86.430 114.375  0.00  0.00     0.119 C 
BRANCH   8   9
ATOM      9  C   LIG d   1       3.137  86.209 113.441  0.00  0.00     0.028 C 
ATOM     10  C   LIG d   1       2.969  86.921 112.088  0.00  0.00     0.006 C 
ENDBRANCH   8   9
BRANCH   8  11
ATOM     11  C   LIG d   1       0.729  85.838 113.633  0.00  0.00     0.028 C 
ATOM     12  C   LIG d   1      -0.483  85.609 114.549  0.00  0.00     0.006 C 
ENDBRANCH   8  11
ENDBRANCH   7   8
ENDBRANCH   1   7
BRANCH   6  13
ATOM     13  N   LIG d   1       4.262  88.965 115.873  0.00  0.00    -0.311 N 
ATOM     14  C   LIG d   1       4.981  89.019 114.754  0.00  0.00     0.210 C 
ATOM     15  C   LIG d   1       6.367  88.371 114.844  0.00  0.00     0.109 C 
ATOM     16  O   LIG d   1       4.616  89.569 113.704  0.00  0.00    -0.276 OA
ATOM     17  H   LIG d   1       4.648  88.528 116.687  0.00  0.00     0.149 HD
ENDBRANCH   6  13
BRANCH   5  18
ATOM     18  N   LIG d   1       3.538  91.555 117.323  0.00  0.00     0.381 N 
ATOM     19  H   LIG d   1       3.809  91.745 118.268  0.00  0.00    -0.090 HD
ATOM     20  H   LIG d   1       3.006  92.337 116.985  0.00  0.00    -0.090 HD
ATOM     21  H   LIG d   1       4.348  91.425 116.758  0.00  0.00    -0.090 HD
ENDBRANCH   5  18
BRANCH   3  22
ATOM     22  C   LIG d   1      -0.907  89.849 117.844  0.00  0.00     0.382 C 
ATOM     23  O   LIG d   1      -1.959  89.542 117.235  0.00  0.00    -0.241 OA
ATOM     24  O   LIG d   1      -0.976  90.281 119.010  0.00  0.00    -0.241 OA
ENDBRANCH   3  22
TORSDOF 7
ENDMDL
MODEL 8
REMARK VINA RESULT:      -4.9      3.064      5.494
REMARK  7 active torsions:
REMARK  status: ('A' for Active; 'I' for Inactive)
REMARK    1  A    between atoms: C_2  and  C_3 
REMARK    2  A    between atoms: C_3  and  O_6 
REMARK    3  A    between atoms: C_3  and  C_4 
REMARK    4  A    between atoms: C_7  and  O_6 
REMARK    5  A    between atoms: C_9  and  C_10 
REMARK    6  A    between atoms: N_15  and  C_14 
REMARK    7  A    between atoms: N_20  and  C_19 
REMARK       I    between atoms: C_22  and  N_20 
ROOT
ATOM      1  C   LIG d   1      -4.513  75.059 116.175  0.00  0.00     0.161 C 
ATOM      2  C   LIG d   1      -4.041  76.378 116.273  0.00  0.00     0.016 C 
ATOM      3  C   LIG d   1      -4.864  77.476 116.615  0.00  0.00     0.038 C 
ATOM      4  C   LIG d   1      -6.192  77.304 117.034  0.00  0.00     0.028 C 
ATOM      5  C   LIG d   1      -6.850  76.051 116.465  0.00  0.00    -0.047 C 
ATOM      6  C   LIG d   1      -5.933  74.836 116.736  0.00  0.00     0.091 C 
ENDROOT
BRANCH   1   7
ATOM      7  O   LIG d   1      -3.579  74.158 116.804  0.00  0.00    -0.368 OA
BRANCH   7   8
ATOM      8  C   LIG d   1      -2.186  74.556 116.766  0.00  0.00     0.119 C 
BRANCH   8   9
ATOM      9  C   LIG d   1      -1.587  74.018 115.452  0.00  0.00     0.028 C 
ATOM     10  C   LIG d   1      -0.898  75.118 114.627  0.00  0.00     0.006 C 
ENDBRANCH   8   9
BRANCH   8  11
ATOM     11  C   LIG d   1      -1.384  73.883 117.883  0.00  0.00     0.028 C 
ATOM     12  C   LIG d   1       0.000  74.518 118.089  0.00  0.00     0.006 C 
ENDBRANCH   8  11
ENDBRANCH   7   8
ENDBRANCH   1   7
BRANCH   6  13
ATOM     13  N   LIG d   1      -6.461  73.583 116.138  0.00  0.00    -0.311 N 
ATOM     14  C   LIG d   1      -7.270  72.745 116.786  0.00  0.00     0.210 C 
ATOM     15  C   LIG d   1      -7.682  71.501 115.993  0.00  0.00     0.109 C 
ATOM     16  O   LIG d   1      -7.710  72.931 117.930  0.00  0.00    -0.276 OA
ATOM     17  H   LIG d   1      -6.179  73.370 115.201  0.00  0.00     0.149 HD
ENDBRANCH   6  13
BRANCH   5  18
ATOM     18  N   LIG d   1      -8.180  75.923 117.090  0.00  0.00     0.381 N 
ATOM     19  H   LIG d   1      -8.096  75.458 117.972  0.00  0.00    -0.090 HD
ATOM     20  H   LIG d   1      -8.766  75.365 116.494  0.00  0.00    -0.090 HD
ATOM     21  H   LIG d   1      -8.585  76.824 117.218  0.00  0.00    -0.090 HD
ENDBRANCH   5  18
BRANCH   3  22
ATOM     22  C   LIG d   1      -4.371  78.767 116.502  0.00  0.00     0.382 C 
ATOM     23  O   LIG d   1      -3.196  78.956 116.105  0.00  0.00    -0.241 OA
ATOM     24  O   LIG d   1      -5.071  79.742 116.835  0.00  0.00    -0.241 OA
ENDBRANCH   3  22
TORSDOF 7
ENDMDL
MODEL 9
REMARK VINA RESULT:      -4.8      8.901     11.886
REMARK  7 active torsions:
REMARK  status: ('A' for Active; 'I' for Inactive)
REMARK    1  A    between atoms: C_2  and  C_3 
REMARK    2  A    between atoms: C_3  and  O_6 
REMARK    3  A    between atoms: C_3  and  C_4 
REMARK    4  A    between atoms: C_7  and  O_6 
REMARK    5  A    between atoms: C_9  and  C_10 
REMARK    6  A    between atoms: N_15  and  C_14 
REMARK    7  A    between atoms: N_20  and  C_19 
REMARK       I    between atoms: C_22  and  N_20 
ROOT
ATOM      1  C   LIG d   1       0.842  84.205 112.837  0.00  0.00     0.161 C 
ATOM      2  C   LIG d   1      -0.093  83.321 112.273  0.00  0.00     0.016 C 
ATOM      3  C   LIG d   1      -1.123  82.699 113.016  0.00  0.00     0.038 C 
ATOM      4  C   LIG d   1      -1.382  83.040 114.352  0.00  0.00     0.028 C 
ATOM      5  C   LIG d   1      -0.152  83.549 115.097  0.00  0.00    -0.047 C 
ATOM      6  C   LIG d   1       0.506  84.675 114.268  0.00  0.00     0.091 C 
ENDROOT
BRANCH   1   7
ATOM      7  O   LIG d   1       1.026  85.340 111.967  0.00  0.00    -0.368 OA
BRANCH   7   8
ATOM      8  C   LIG d   1       2.287  85.400 111.256  0.00  0.00     0.119 C 
BRANCH   8   9
ATOM      9  C   LIG d   1       3.255  84.422 111.948  0.00  0.00     0.028 C 
ATOM     10  C   LIG d   1       3.615  83.223 111.055  0.00  0.00     0.006 C 
ENDBRANCH   8   9
BRANCH   8  11
ATOM     11  C   LIG d   1       2.938  86.780 111.393  0.00  0.00     0.028 C 
ATOM     12  C   LIG d   1       4.439  86.701 111.713  0.00  0.00     0.006 C 
ENDBRANCH   8  11
ENDBRANCH   7   8
ENDBRANCH   1   7
BRANCH   6  13
ATOM     13  N   LIG d   1       1.764  85.171 114.884  0.00  0.00    -0.311 N 
ATOM     14  C   LIG d   1       2.095  86.460 114.940  0.00  0.00     0.210 C 
ATOM     15  C   LIG d   1       3.445  86.754 115.600  0.00  0.00     0.109 C 
ATOM     16  O   LIG d   1       1.383  87.391 114.533  0.00  0.00    -0.276 OA
ATOM     17  H   LIG d   1       2.386  84.486 115.267  0.00  0.00     0.149 HD
ENDBRANCH   6  13
BRANCH   5  18
ATOM     18  N   LIG d   1      -0.593  83.996 116.432  0.00  0.00     0.381 N 
ATOM     19  H   LIG d   1      -1.557  84.263 116.399  0.00  0.00    -0.090 HD
ATOM     20  H   LIG d   1      -0.053  84.800 116.700  0.00  0.00    -0.090 HD
ATOM     21  H   LIG d   1      -0.466  83.265 117.096  0.00  0.00    -0.090 HD
ENDBRANCH   5  18
BRANCH   3  22
ATOM     22  C   LIG d   1      -1.881  81.696 112.434  0.00  0.00     0.382 C 
ATOM     23  O   LIG d   1      -1.318  80.685 111.949  0.00  0.00    -0.241 OA
ATOM     24  O   LIG d   1      -3.119  81.809 112.347  0.00  0.00    -0.241 OA
ENDBRANCH   3  22
TORSDOF 7
ENDMDL
