MODEL 1
REMARK VINA RESULT:      -6.0      0.000      0.000
REMARK  7 active torsions:
REMARK  status: ('A' for Active; 'I' for Inactive)
REMARK    1  A    between atoms: C_2  and  C_3 
REMARK    2  A    between atoms: C_3  and  O_6 
REMARK    3  A    between atoms: C_3  and  C_4 
REMARK    4  A    between atoms: C_7  and  O_6 
REMARK    5  A    between atoms: C_9  and  C_10 
REMARK    6  A    between atoms: N_15  and  C_14 
REMARK    7  A    between atoms: N_20  and  C_19 
REMARK       I    between atoms: C_22  and  N_20 
ROOT
ATOM      1  C   LIG d   1      -7.237  76.875 117.740  0.00  0.00     0.161 C 
ATOM      2  C   LIG d   1      -8.422  77.562 118.052  0.00  0.00     0.016 C 
ATOM      3  C   LIG d   1      -8.472  78.951 118.311  0.00  0.00     0.038 C 
ATOM      4  C   LIG d   1      -7.355  79.779 118.127  0.00  0.00     0.028 C 
ATOM      5  C   LIG d   1      -6.026  79.053 118.304  0.00  0.00    -0.047 C 
ATOM      6  C   LIG d   1      -6.028  77.781 117.426  0.00  0.00     0.091 C 
ENDROOT
BRANCH   1   7
ATOM      7  O   LIG d   1      -7.474  75.961 116.651  0.00  0.00    -0.368 OA
BRANCH   7   8
ATOM      8  C   LIG d   1      -7.781  74.594 117.022  0.00  0.00     0.119 C 
BRANCH   8   9
ATOM      9  C   LIG d   1      -6.878  73.672 116.181  0.00  0.00     0.028 C 
ATOM     10  C   LIG d   1      -6.002  74.454 115.188  0.00  0.00     0.006 C 
ENDBRANCH   8   9
BRANCH   8  11
ATOM     11  C   LIG d   1      -9.215  74.221 116.635  0.00  0.00     0.028 C 
ATOM     12  C   LIG d   1      -9.454  72.703 116.625  0.00  0.00     0.006 C 
ENDBRANCH   8  11
ENDBRANCH   7   8
ENDBRANCH   1   7
BRANCH   6  13
ATOM     13  N   LIG d   1      -4.798  76.967 117.604  0.00  0.00    -0.311 N 
ATOM     14  C   LIG d   1      -3.725  77.080 116.822  0.00  0.00     0.210 C 
ATOM     15  C   LIG d   1      -2.572  76.132 117.167  0.00  0.00     0.109 C 
ATOM     16  O   LIG d   1      -3.606  77.898 115.897  0.00  0.00    -0.276 OA
ATOM     17  H   LIG d   1      -4.796  76.300 118.350  0.00  0.00     0.149 HD
ENDBRANCH   6  13
BRANCH   5  18
ATOM     18  N   LIG d   1      -4.951  79.999 117.950  0.00  0.00     0.381 N 
ATOM     19  H   LIG d   1      -5.275  80.938 118.063  0.00  0.00    -0.090 HD
ATOM     20  H   LIG d   1      -4.705  79.864 116.985  0.00  0.00    -0.090 HD
ATOM     21  H   LIG d   1      -4.154  79.842 118.528  0.00  0.00    -0.090 HD
ENDBRANCH   5  18
BRANCH   3  22
ATOM     22  C   LIG d   1      -9.639  79.517 118.799  0.00  0.00     0.382 C 
ATOM     23  O   LIG d   1     -10.526  78.788 119.305  0.00  0.00    -0.241 OA
ATOM     24  O   LIG d   1      -9.836  80.743 118.699  0.00  0.00    -0.241 OA
ENDBRANCH   3  22
TORSDOF 7
ENDMDL
MODEL 2
REMARK VINA RESULT:      -6.0      2.088      5.241
REMARK  7 active torsions:
REMARK  status: ('A' for Active; 'I' for Inactive)
REMARK    1  A    between atoms: C_2  and  C_3 
REMARK    2  A    between atoms: C_3  and  O_6 
REMARK    3  A    between atoms: C_3  and  C_4 
REMARK    4  A    between atoms: C_7  and  O_6 
REMARK    5  A    between atoms: C_9  and  C_10 
REMARK    6  A    between atoms: N_15  and  C_14 
REMARK    7  A    between atoms: N_20  and  C_19 
REMARK       I    between atoms: C_22  and  N_20 
ROOT
ATOM      1  C   LIG d   1      -5.710  75.807 116.546  0.00  0.00     0.161 C 
ATOM      2  C   LIG d   1      -6.337  74.602 116.186  0.00  0.00     0.016 C 
ATOM      3  C   LIG d   1      -7.701  74.330 116.437  0.00  0.00     0.038 C 
ATOM      4  C   LIG d   1      -8.574  75.310 116.933  0.00  0.00     0.028 C 
ATOM      5  C   LIG d   1      -7.877  76.371 117.778  0.00  0.00    -0.047 C 
ATOM      6  C   LIG d   1      -6.672  76.930 116.987  0.00  0.00     0.091 C 
ENDROOT
BRANCH   1   7
ATOM      7  O   LIG d   1      -4.870  76.262 115.467  0.00  0.00    -0.368 OA
BRANCH   7   8
ATOM      8  C   LIG d   1      -3.466  75.917 115.564  0.00  0.00     0.119 C 
BRANCH   8   9
ATOM      9  C   LIG d   1      -3.132  75.751 117.059  0.00  0.00     0.028 C 
ATOM     10  C   LIG d   1      -1.807  75.003 117.285  0.00  0.00     0.006 C 
ENDBRANCH   8   9
BRANCH   8  11
ATOM     11  C   LIG d   1      -2.576  77.064 115.075  0.00  0.00     0.028 C 
ATOM     12  C   LIG d   1      -2.769  78.355 115.885  0.00  0.00     0.006 C 
ENDBRANCH   8  11
ENDBRANCH   7   8
ENDBRANCH   1   7
BRANCH   6  13
ATOM     13  N   LIG d   1      -5.885  77.914 117.775  0.00  0.00    -0.311 N 
ATOM     14  C   LIG d   1      -6.218  79.198 117.887  0.00  0.00     0.210 C 
ATOM     15  C   LIG d   1      -5.258  80.044 118.729  0.00  0.00     0.109 C 
ATOM     16  O   LIG d   1      -7.235  79.711 117.396  0.00  0.00    -0.276 OA
ATOM     17  H   LIG d   1      -5.060  77.577 118.232  0.00  0.00     0.149 HD
ENDBRANCH   6  13
BRANCH   5  18
ATOM     18  N   LIG d   1      -8.877  77.402 118.113  0.00  0.00     0.381 N 
ATOM     19  H   LIG d   1      -9.749  77.184 117.672  0.00  0.00    -0.090 HD
ATOM     20  H   LIG d   1      -8.560  78.289 117.763  0.00  0.00    -0.090 HD
ATOM     21  H   LIG d   1      -8.999  77.450 119.101  0.00  0.00    -0.090 HD
ENDBRANCH   5  18
BRANCH   3  22
ATOM     22  C   LIG d   1      -8.196  73.051 116.229  0.00  0.00     0.382 C 
ATOM     23  O   LIG d   1      -9.400  72.798 116.475  0.00  0.00    -0.241 OA
ATOM     24  O   LIG d   1      -7.444  72.138 115.840  0.00  0.00    -0.241 OA
ENDBRANCH   3  22
TORSDOF 7
ENDMDL
MODEL 3
REMARK VINA RESULT:      -5.4      3.862      6.421
REMARK  7 active torsions:
REMARK  status: ('A' for Active; 'I' for Inactive)
REMARK    1  A    between atoms: C_2  and  C_3 
REMARK    2  A    between atoms: C_3  and  O_6 
REMARK    3  A    between atoms: C_3  and  C_4 
REMARK    4  A    between atoms: C_7  and  O_6 
REMARK    5  A    between atoms: C_9  and  C_10 
REMARK    6  A    between atoms: N_15  and  C_14 
REMARK    7  A    between atoms: N_20  and  C_19 
REMARK       I    between atoms: C_22  and  N_20 
ROOT
ATOM      1  C   LIG d   1      -2.536  76.323 115.330  0.00  0.00     0.161 C 
ATOM      2  C   LIG d   1      -2.315  75.400 116.365  0.00  0.00     0.016 C 
ATOM      3  C   LIG d   1      -1.245  75.501 117.283  0.00  0.00     0.038 C 
ATOM      4  C   LIG d   1      -0.404  76.624 117.320  0.00  0.00     0.028 C 
ATOM      5  C   LIG d   1      -0.280  77.333 115.976  0.00  0.00    -0.047 C 
ATOM      6  C   LIG d   1      -1.696  77.614 115.424  0.00  0.00     0.091 C 
ENDROOT
BRANCH   1   7
ATOM      7  O   LIG d   1      -3.939  76.644 115.252  0.00  0.00    -0.368 OA
BRANCH   7   8
ATOM      8  C   LIG d   1      -4.829  75.801 116.024  0.00  0.00     0.119 C 
BRANCH   8   9
ATOM      9  C   LIG d   1      -5.815  75.144 115.039  0.00  0.00     0.028 C 
ATOM     10  C   LIG d   1      -7.269  75.202 115.537  0.00  0.00     0.006 C 
ENDBRANCH   8   9
BRANCH   8  11
ATOM     11  C   LIG d   1      -5.698  76.631 116.974  0.00  0.00     0.028 C 
ATOM     12  C   LIG d   1      -4.872  77.420 118.002  0.00  0.00     0.006 C 
ENDBRANCH   8  11
ENDBRANCH   7   8
ENDBRANCH   1   7
BRANCH   6  13
ATOM     13  N   LIG d   1      -1.665  78.230 114.072  0.00  0.00    -0.311 N 
ATOM     14  C   LIG d   1      -2.276  79.375 113.774  0.00  0.00     0.210 C 
ATOM     15  C   LIG d   1      -2.135  79.823 112.316  0.00  0.00     0.109 C 
ATOM     16  O   LIG d   1      -2.895  80.079 114.586  0.00  0.00    -0.276 OA
ATOM     17  H   LIG d   1      -1.159  77.742 113.359  0.00  0.00     0.149 HD
ENDBRANCH   6  13
BRANCH   5  18
ATOM     18  N   LIG d   1       0.512  78.559 116.190  0.00  0.00     0.381 N 
ATOM     19  H   LIG d   1       0.611  78.731 117.171  0.00  0.00    -0.090 HD
ATOM     20  H   LIG d   1       0.024  79.336 115.781  0.00  0.00    -0.090 HD
ATOM     21  H   LIG d   1       1.410  78.463 115.770  0.00  0.00    -0.090 HD
ENDBRANCH   5  18
BRANCH   3  22
ATOM     22  C   LIG d   1      -0.982  74.452 118.151  0.00  0.00     0.382 C 
ATOM     23  O   LIG d   1      -0.152  73.567 117.831  0.00  0.00    -0.241 OA
ATOM     24  O   LIG d   1      -1.597  74.356 119.230  0.00  0.00    -0.241 OA
ENDBRANCH   3  22
TORSDOF 7
ENDMDL
MODEL 4
REMARK VINA RESULT:      -5.3     11.069     13.881
REMARK  7 active torsions:
REMARK  status: ('A' for Active; 'I' for Inactive)
REMARK    1  A    between atoms: C_2  and  C_3 
REMARK    2  A    between atoms: C_3  and  O_6 
REMARK    3  A    between atoms: C_3  and  C_4 
REMARK    4  A    between atoms: C_7  and  O_6 
REMARK    5  A    between atoms: C_9  and  C_10 
REMARK    6  A    between atoms: N_15  and  C_14 
REMARK    7  A    between atoms: N_20  and  C_19 
REMARK       I    between atoms: C_22  and  N_20 
ROOT
ATOM      1  C   LIG d   1       2.082  86.048 114.048  0.00  0.00     0.161 C 
ATOM      2  C   LIG d   1       2.782  87.265 113.976  0.00  0.00     0.016 C 
ATOM      3  C   LIG d   1       3.784  87.530 113.015  0.00  0.00     0.038 C 
ATOM      4  C   LIG d   1       4.051  86.647 111.958  0.00  0.00     0.028 C 
ATOM      5  C   LIG d   1       3.724  85.194 112.286  0.00  0.00    -0.047 C 
ATOM      6  C   LIG d   1       2.282  85.115 112.835  0.00  0.00     0.091 C 
ENDROOT
BRANCH   1   7
ATOM      7  O   LIG d   1       0.679  86.303 114.259  0.00  0.00    -0.368 OA
BRANCH   7   8
ATOM      8  C   LIG d   1       0.093  85.701 115.439  0.00  0.00     0.119 C 
BRANCH   8   9
ATOM      9  C   LIG d   1      -1.295  85.162 115.043  0.00  0.00     0.028 C 
ATOM     10  C   LIG d   1      -1.412  83.641 115.238  0.00  0.00     0.006 C 
ENDBRANCH   8   9
BRANCH   8  11
ATOM     11  C   LIG d   1      -0.174  86.748 116.525  0.00  0.00     0.028 C 
ATOM     12  C   LIG d   1       0.757  86.597 117.739  0.00  0.00     0.006 C 
ENDBRANCH   8  11
ENDBRANCH   7   8
ENDBRANCH   1   7
BRANCH   6  13
ATOM     13  N   LIG d   1       1.911  83.740 113.260  0.00  0.00    -0.311 N 
ATOM     14  C   LIG d   1       1.059  82.969 112.586  0.00  0.00     0.210 C 
ATOM     15  C   LIG d   1       0.801  81.593 113.209  0.00  0.00     0.109 C 
ATOM     16  O   LIG d   1       0.517  83.282 111.516  0.00  0.00    -0.276 OA
ATOM     17  H   LIG d   1       2.329  83.395 114.102  0.00  0.00     0.149 HD
ENDBRANCH   6  13
BRANCH   5  18
ATOM     18  N   LIG d   1       3.919  84.405 111.056  0.00  0.00     0.381 N 
ATOM     19  H   LIG d   1       3.700  83.445 111.231  0.00  0.00    -0.090 HD
ATOM     20  H   LIG d   1       4.884  84.463 110.781  0.00  0.00    -0.090 HD
ATOM     21  H   LIG d   1       3.337  84.758 110.328  0.00  0.00    -0.090 HD
ENDBRANCH   5  18
BRANCH   3  22
ATOM     22  C   LIG d   1       4.559  88.674 113.129  0.00  0.00     0.382 C 
ATOM     23  O   LIG d   1       4.046  89.802 112.932  0.00  0.00    -0.241 OA
ATOM     24  O   LIG d   1       5.776  88.590 113.383  0.00  0.00    -0.241 OA
ENDBRANCH   3  22
TORSDOF 7
ENDMDL
MODEL 5
REMARK VINA RESULT:      -5.3      4.535      6.726
REMARK  7 active torsions:
REMARK  status: ('A' for Active; 'I' for Inactive)
REMARK    1  A    between atoms: C_2  and  C_3 
REMARK    2  A    between atoms: C_3  and  O_6 
REMARK    3  A    between atoms: C_3  and  C_4 
REMARK    4  A    between atoms: C_7  and  O_6 
REMARK    5  A    between atoms: C_9  and  C_10 
REMARK    6  A    between atoms: N_15  and  C_14 
REMARK    7  A    between atoms: N_20  and  C_19 
REMARK       I    between atoms: C_22  and  N_20 
ROOT
ATOM      1  C   LIG d   1      -1.653  79.376 116.048  0.00  0.00     0.161 C 
ATOM      2  C   LIG d   1      -2.002  80.628 115.514  0.00  0.00     0.016 C 
ATOM      3  C   LIG d   1      -2.207  80.856 114.134  0.00  0.00     0.038 C 
ATOM      4  C   LIG d   1      -2.225  79.807 113.204  0.00  0.00     0.028 C 
ATOM      5  C   LIG d   1      -1.381  78.609 113.626  0.00  0.00    -0.047 C 
ATOM      6  C   LIG d   1      -1.777  78.196 115.062  0.00  0.00     0.091 C 
ENDROOT
BRANCH   1   7
ATOM      7  O   LIG d   1      -2.426  79.119 117.237  0.00  0.00    -0.368 OA
BRANCH   7   8
ATOM      8  C   LIG d   1      -3.853  78.960 117.047  0.00  0.00     0.119 C 
BRANCH   8   9
ATOM      9  C   LIG d   1      -4.558  79.990 117.950  0.00  0.00     0.028 C 
ATOM     10  C   LIG d   1      -6.084  79.798 117.978  0.00  0.00     0.006 C 
ENDBRANCH   8   9
BRANCH   8  11
ATOM     11  C   LIG d   1      -4.331  77.592 117.543  0.00  0.00     0.028 C 
ATOM     12  C   LIG d   1      -3.318  76.908 118.475  0.00  0.00     0.006 C 
ENDBRANCH   8  11
ENDBRANCH   7   8
ENDBRANCH   1   7
BRANCH   6  13
ATOM     13  N   LIG d   1      -0.940  77.084 115.583  0.00  0.00    -0.311 N 
ATOM     14  C   LIG d   1      -1.313  75.806 115.545  0.00  0.00     0.210 C 
ATOM     15  C   LIG d   1      -0.310  74.822 116.155  0.00  0.00     0.109 C 
ATOM     16  O   LIG d   1      -2.364  75.391 115.036  0.00  0.00    -0.276 OA
ATOM     17  H   LIG d   1      -0.057  77.329 115.986  0.00  0.00     0.149 HD
ENDBRANCH   6  13
BRANCH   5  18
ATOM     18  N   LIG d   1      -1.600  77.538 112.635  0.00  0.00     0.381 N 
ATOM     19  H   LIG d   1      -2.070  76.768 113.067  0.00  0.00    -0.090 HD
ATOM     20  H   LIG d   1      -0.708  77.216 112.302  0.00  0.00    -0.090 HD
ATOM     21  H   LIG d   1      -2.142  77.883 111.874  0.00  0.00    -0.090 HD
ENDBRANCH   5  18
BRANCH   3  22
ATOM     22  C   LIG d   1      -2.358  82.153 113.667  0.00  0.00     0.382 C 
ATOM     23  O   LIG d   1      -2.935  83.012 114.376  0.00  0.00    -0.241 OA
ATOM     24  O   LIG d   1      -1.963  82.464 112.527  0.00  0.00    -0.241 OA
ENDBRANCH   3  22
TORSDOF 7
ENDMDL
MODEL 6
REMARK VINA RESULT:      -5.2     13.516     16.101
REMARK  7 active torsions:
REMARK  status: ('A' for Active; 'I' for Inactive)
REMARK    1  A    between atoms: C_2  and  C_3 
REMARK    2  A    between atoms: C_3  and  O_6 
REMARK    3  A    between atoms: C_3  and  C_4 
REMARK    4  A    between atoms: C_7  and  O_6 
REMARK    5  A    between atoms: C_9  and  C_10 
REMARK    6  A    between atoms: N_15  and  C_14 
REMARK    7  A    between atoms: N_20  and  C_19 
REMARK       I    between atoms: C_22  and  N_20 
ROOT
ATOM      1  C   LIG d   1       3.539  88.521 115.503  0.00  0.00     0.161 C 
ATOM      2  C   LIG d   1       2.868  88.013 114.377  0.00  0.00     0.016 C 
ATOM      3  C   LIG d   1       3.467  87.897 113.102  0.00  0.00     0.038 C 
ATOM      4  C   LIG d   1       4.833  88.142 112.898  0.00  0.00     0.028 C 
ATOM      5  C   LIG d   1       5.424  89.136 113.891  0.00  0.00    -0.047 C 
ATOM      6  C   LIG d   1       5.063  88.688 115.326  0.00  0.00     0.091 C 
ENDROOT
BRANCH   1   7
ATOM      7  O   LIG d   1       3.256  87.699 116.652  0.00  0.00    -0.368 OA
BRANCH   7   8
ATOM      8  C   LIG d   1       2.845  86.337 116.377  0.00  0.00     0.119 C 
BRANCH   8   9
ATOM      9  C   LIG d   1       1.729  85.979 117.376  0.00  0.00     0.028 C 
ATOM     10  C   LIG d   1       0.330  86.344 116.850  0.00  0.00     0.006 C 
ENDBRANCH   8   9
BRANCH   8  11
ATOM     11  C   LIG d   1       3.978  85.346 116.661  0.00  0.00     0.028 C 
ATOM     12  C   LIG d   1       4.405  84.555 115.414  0.00  0.00     0.006 C 
ENDBRANCH   8  11
ENDBRANCH   7   8
ENDBRANCH   1   7
BRANCH   6  13
ATOM     13  N   LIG d   1       5.532  89.652 116.356  0.00  0.00    -0.311 N 
ATOM     14  C   LIG d   1       6.734  89.589 116.926  0.00  0.00     0.210 C 
ATOM     15  C   LIG d   1       7.008  90.668 117.978  0.00  0.00     0.109 C 
ATOM     16  O   LIG d   1       7.611  88.761 116.637  0.00  0.00    -0.276 OA
ATOM     17  H   LIG d   1       4.895  90.375 116.627  0.00  0.00     0.149 HD
ENDBRANCH   6  13
BRANCH   5  18
ATOM     18  N   LIG d   1       6.879  89.193 113.653  0.00  0.00     0.381 N 
ATOM     19  H   LIG d   1       7.108  90.030 113.155  0.00  0.00    -0.090 HD
ATOM     20  H   LIG d   1       7.146  88.407 113.087  0.00  0.00    -0.090 HD
ATOM     21  H   LIG d   1       7.368  89.169 114.520  0.00  0.00    -0.090 HD
ENDBRANCH   5  18
BRANCH   3  22
ATOM     22  C   LIG d   1       2.686  87.570 112.004  0.00  0.00     0.382 C 
ATOM     23  O   LIG d   1       1.632  88.211 111.771  0.00  0.00    -0.241 OA
ATOM     24  O   LIG d   1       2.998  86.615 111.268  0.00  0.00    -0.241 OA
ENDBRANCH   3  22
TORSDOF 7
ENDMDL
MODEL 7
REMARK VINA RESULT:      -5.1     14.729     16.733
REMARK  7 active torsions:
REMARK  status: ('A' for Active; 'I' for Inactive)
REMARK    1  A    between atoms: C_2  and  C_3 
REMARK    2  A    between atoms: C_3  and  O_6 
REMARK    3  A    between atoms: C_3  and  C_4 
REMARK    4  A    between atoms: C_7  and  O_6 
REMARK    5  A    between atoms: C_9  and  C_10 
REMARK    6  A    between atoms: N_15  and  C_14 
REMARK    7  A    between atoms: N_20  and  C_19 
REMARK       I    between atoms: C_22  and  N_20 
ROOT
ATOM      1  C   LIG d   1       3.448  88.835 115.409  0.00  0.00     0.161 C 
ATOM      2  C   LIG d   1       2.771  88.267 114.317  0.00  0.00     0.016 C 
ATOM      3  C   LIG d   1       3.402  87.943 113.093  0.00  0.00     0.038 C 
ATOM      4  C   LIG d   1       4.793  88.026 112.932  0.00  0.00     0.028 C 
ATOM      5  C   LIG d   1       5.447  89.068 113.834  0.00  0.00    -0.047 C 
ATOM      6  C   LIG d   1       4.987  88.830 115.290  0.00  0.00     0.091 C 
ENDROOT
BRANCH   1   7
ATOM      7  O   LIG d   1       3.038  88.186 116.629  0.00  0.00    -0.368 OA
BRANCH   7   8
ATOM      8  C   LIG d   1       2.191  88.964 117.510  0.00  0.00     0.119 C 
BRANCH   8   9
ATOM      9  C   LIG d   1       0.749  88.447 117.342  0.00  0.00     0.028 C 
ATOM     10  C   LIG d   1      -0.253  89.581 117.067  0.00  0.00     0.006 C 
ENDBRANCH   8   9
BRANCH   8  11
ATOM     11  C   LIG d   1       2.147  90.435 117.086  0.00  0.00     0.028 C 
ATOM     12  C   LIG d   1       2.848  91.366 118.088  0.00  0.00     0.006 C 
ENDBRANCH   8  11
ENDBRANCH   7   8
ENDBRANCH   1   7
BRANCH   6  13
ATOM     13  N   LIG d   1       5.514  89.857 116.226  0.00  0.00    -0.311 N 
ATOM     14  C   LIG d   1       6.184  89.561 117.338  0.00  0.00     0.210 C 
ATOM     15  C   LIG d   1       6.621  90.770 118.171  0.00  0.00     0.109 C 
ATOM     16  O   LIG d   1       6.487  88.413 117.696  0.00  0.00    -0.276 OA
ATOM     17  H   LIG d   1       5.340  90.816 115.995  0.00  0.00     0.149 HD
ENDBRANCH   6  13
BRANCH   5  18
ATOM     18  N   LIG d   1       6.907  88.952 113.662  0.00  0.00     0.381 N 
ATOM     19  H   LIG d   1       7.249  89.729 113.132  0.00  0.00    -0.090 HD
ATOM     20  H   LIG d   1       7.109  88.110 113.153  0.00  0.00    -0.090 HD
ATOM     21  H   LIG d   1       7.354  88.926 114.552  0.00  0.00    -0.090 HD
ENDBRANCH   5  18
BRANCH   3  22
ATOM     22  C   LIG d   1       2.633  87.568 112.002  0.00  0.00     0.382 C 
ATOM     23  O   LIG d   1       2.981  86.591 111.296  0.00  0.00    -0.241 OA
ATOM     24  O   LIG d   1       1.621  88.221 111.688  0.00  0.00    -0.241 OA
ENDBRANCH   3  22
TORSDOF 7
ENDMDL
MODEL 8
REMARK VINA RESULT:      -5.1     15.141     18.933
REMARK  7 active torsions:
REMARK  status: ('A' for Active; 'I' for Inactive)
REMARK    1  A    between atoms: C_2  and  C_3 
REMARK    2  A    between atoms: C_3  and  O_6 
REMARK    3  A    between atoms: C_3  and  C_4 
REMARK    4  A    between atoms: C_7  and  O_6 
REMARK    5  A    between atoms: C_9  and  C_10 
REMARK    6  A    between atoms: N_15  and  C_14 
REMARK    7  A    between atoms: N_20  and  C_19 
REMARK       I    between atoms: C_22  and  N_20 
ROOT
ATOM      1  C   LIG d   1      10.876  78.962 114.334  0.00  0.00     0.161 C 
ATOM      2  C   LIG d   1       9.532  79.180 114.681  0.00  0.00     0.016 C 
ATOM      3  C   LIG d   1       8.696  78.179 115.225  0.00  0.00     0.038 C 
ATOM      4  C   LIG d   1       9.193  76.922 115.603  0.00  0.00     0.028 C 
ATOM      5  C   LIG d   1      10.420  76.492 114.806  0.00  0.00    -0.047 C 
ATOM      6  C   LIG d   1      11.466  77.629 114.842  0.00  0.00     0.091 C 
ENDROOT
BRANCH   1   7
ATOM      7  O   LIG d   1      11.682  80.069 114.781  0.00  0.00    -0.368 OA
BRANCH   7   8
ATOM      8  C   LIG d   1      12.213  80.931 113.744  0.00  0.00     0.119 C 
BRANCH   8   9
ATOM      9  C   LIG d   1      11.832  80.309 112.386  0.00  0.00     0.028 C 
ATOM     10  C   LIG d   1      11.280  81.351 111.398  0.00  0.00     0.006 C 
ENDBRANCH   8   9
BRANCH   8  11
ATOM     11  C   LIG d   1      13.744  80.951 113.765  0.00  0.00     0.028 C 
ATOM     12  C   LIG d   1      14.316  81.306 115.147  0.00  0.00     0.006 C 
ENDBRANCH   8  11
ENDBRANCH   7   8
ENDBRANCH   1   7
BRANCH   6  13
ATOM     13  N   LIG d   1      12.664  77.325 114.016  0.00  0.00    -0.311 N 
ATOM     14  C   LIG d   1      13.910  77.389 114.481  0.00  0.00     0.210 C 
ATOM     15  C   LIG d   1      15.000  77.054 113.458  0.00  0.00     0.109 C 
ATOM     16  O   LIG d   1      14.215  77.659 115.653  0.00  0.00    -0.276 OA
ATOM     17  H   LIG d   1      12.506  77.066 113.062  0.00  0.00     0.149 HD
ENDBRANCH   6  13
BRANCH   5  18
ATOM     18  N   LIG d   1      10.914  75.233 115.394  0.00  0.00     0.381 N 
ATOM     19  H   LIG d   1      11.907  75.177 115.289  0.00  0.00    -0.090 HD
ATOM     20  H   LIG d   1      10.501  74.460 114.902  0.00  0.00    -0.090 HD
ATOM     21  H   LIG d   1      10.672  75.189 116.359  0.00  0.00    -0.090 HD
ENDBRANCH   5  18
BRANCH   3  22
ATOM     22  C   LIG d   1       7.336  78.416 115.360  0.00  0.00     0.382 C 
ATOM     23  O   LIG d   1       6.926  79.242 116.211  0.00  0.00    -0.241 OA
ATOM     24  O   LIG d   1       6.513  77.784 114.672  0.00  0.00    -0.241 OA
ENDBRANCH   3  22
TORSDOF 7
ENDMDL
MODEL 9
REMARK VINA RESULT:      -5.1     11.030     13.946
REMARK  7 active torsions:
REMARK  status: ('A' for Active; 'I' for Inactive)
REMARK    1  A    between atoms: C_2  and  C_3 
REMARK    2  A    between atoms: C_3  and  O_6 
REMARK    3  A    between atoms: C_3  and  C_4 
REMARK    4  A    between atoms: C_7  and  O_6 
REMARK    5  A    between atoms: C_9  and  C_10 
REMARK    6  A    between atoms: N_15  and  C_14 
REMARK    7  A    between atoms: N_20  and  C_19 
REMARK       I    between atoms: C_22  and  N_20 
ROOT
ATOM      1  C   LIG d   1       1.825  86.334 114.603  0.00  0.00     0.161 C 
ATOM      2  C   LIG d   1       2.691  87.412 114.353  0.00  0.00     0.016 C 
ATOM      3  C   LIG d   1       3.333  87.623 113.112  0.00  0.00     0.038 C 
ATOM      4  C   LIG d   1       3.033  86.849 111.981  0.00  0.00     0.028 C 
ATOM      5  C   LIG d   1       2.549  85.443 112.320  0.00  0.00    -0.047 C 
ATOM      6  C   LIG d   1       1.399  85.543 113.348  0.00  0.00     0.091 C 
ENDROOT
BRANCH   1   7
ATOM      7  O   LIG d   1       0.664  86.796 115.322  0.00  0.00    -0.368 OA
BRANCH   7   8
ATOM      8  C   LIG d   1       0.402  86.149 116.591  0.00  0.00     0.119 C 
BRANCH   8   9
ATOM      9  C   LIG d   1       0.156  87.257 117.633  0.00  0.00     0.028 C 
ATOM     10  C   LIG d   1       0.226  88.666 117.020  0.00  0.00     0.006 C 
ENDBRANCH   8   9
BRANCH   8  11
ATOM     11  C   LIG d   1       1.631  85.385 117.092  0.00  0.00     0.028 C 
ATOM     12  C   LIG d   1       1.328  83.913 117.411  0.00  0.00     0.006 C 
ENDBRANCH   8  11
ENDBRANCH   7   8
ENDBRANCH   1   7
BRANCH   6  13
ATOM     13  N   LIG d   1       0.923  84.209 113.798  0.00  0.00    -0.311 N 
ATOM     14  C   LIG d   1      -0.353  83.831 113.750  0.00  0.00     0.210 C 
ATOM     15  C   LIG d   1      -0.631  82.422 114.282  0.00  0.00     0.109 C 
ATOM     16  O   LIG d   1      -1.277  84.517 113.287  0.00  0.00    -0.276 OA
ATOM     17  H   LIG d   1       1.611  83.577 114.159  0.00  0.00     0.149 HD
ENDBRANCH   6  13
BRANCH   5  18
ATOM     18  N   LIG d   1       2.142  84.795 111.059  0.00  0.00     0.381 N 
ATOM     19  H   LIG d   1       2.946  84.637 110.484  0.00  0.00    -0.090 HD
ATOM     20  H   LIG d   1       1.518  85.409 110.565  0.00  0.00    -0.090 HD
ATOM     21  H   LIG d   1       1.687  83.930 111.251  0.00  0.00    -0.090 HD
ENDBRANCH   5  18
BRANCH   3  22
ATOM     22  C   LIG d   1       4.318  88.593 113.003  0.00  0.00     0.382 C 
ATOM     23  O   LIG d   1       4.030  89.801 113.181  0.00  0.00    -0.241 OA
ATOM     24  O   LIG d   1       5.481  88.280 112.687  0.00  0.00    -0.241 OA
ENDBRANCH   3  22
TORSDOF 7
ENDMDL
