MODEL 1
REMARK VINA RESULT:      -5.7      0.000      0.000
REMARK  7 active torsions:
REMARK  status: ('A' for Active; 'I' for Inactive)
REMARK    1  A    between atoms: C_2  and  C_3 
REMARK    2  A    between atoms: C_3  and  O_6 
REMARK    3  A    between atoms: C_3  and  C_4 
REMARK    4  A    between atoms: C_7  and  O_6 
REMARK    5  A    between atoms: C_9  and  C_10 
REMARK    6  A    between atoms: N_15  and  C_14 
REMARK    7  A    between atoms: N_20  and  C_19 
REMARK       I    between atoms: C_22  and  N_20 
ROOT
ATOM      1  C   LIG d   1      -7.162  76.150 117.572  0.00  0.00     0.161 C 
ATOM      2  C   LIG d   1      -8.172  77.124 117.650  0.00  0.00     0.016 C 
ATOM      3  C   LIG d   1      -7.912  78.514 117.662  0.00  0.00     0.038 C 
ATOM      4  C   LIG d   1      -6.627  79.030 117.443  0.00  0.00     0.028 C 
ATOM      5  C   LIG d   1      -5.512  78.078 117.864  0.00  0.00    -0.047 C 
ATOM      6  C   LIG d   1      -5.763  76.696 117.220  0.00  0.00     0.091 C 
ENDROOT
BRANCH   1   7
ATOM      7  O   LIG d   1      -7.548  75.121 116.639  0.00  0.00    -0.368 OA
BRANCH   7   8
ATOM      8  C   LIG d   1      -7.803  73.811 117.204  0.00  0.00     0.119 C 
BRANCH   8   9
ATOM      9  C   LIG d   1      -6.874  72.810 116.490  0.00  0.00     0.028 C 
ATOM     10  C   LIG d   1      -6.276  73.386 115.195  0.00  0.00     0.006 C 
ENDBRANCH   8   9
BRANCH   8  11
ATOM     11  C   LIG d   1      -9.226  73.337 116.893  0.00  0.00     0.028 C 
ATOM     12  C   LIG d   1      -9.315  71.817 116.686  0.00  0.00     0.006 C 
ENDBRANCH   8  11
ENDBRANCH   7   8
ENDBRANCH   1   7
BRANCH   6  13
ATOM     13  N   LIG d   1      -4.764  75.681 117.648  0.00  0.00    -0.311 N 
ATOM     14  C   LIG d   1      -3.653  75.413 116.964  0.00  0.00     0.210 C 
ATOM     15  C   LIG d   1      -2.769  74.318 117.570  0.00  0.00     0.109 C 
ATOM     16  O   LIG d   1      -3.299  76.000 115.930  0.00  0.00    -0.276 OA
ATOM     17  H   LIG d   1      -4.956  75.180 118.492  0.00  0.00     0.149 HD
ENDBRANCH   6  13
BRANCH   5  18
ATOM     18  N   LIG d   1      -4.231  78.683 117.453  0.00  0.00     0.381 N 
ATOM     19  H   LIG d   1      -4.329  79.105 116.551  0.00  0.00    -0.090 HD
ATOM     20  H   LIG d   1      -3.535  77.961 117.390  0.00  0.00    -0.090 HD
ATOM     21  H   LIG d   1      -3.948  79.369 118.119  0.00  0.00    -0.090 HD
ENDBRANCH   5  18
BRANCH   3  22
ATOM     22  C   LIG d   1      -8.941  79.402 117.936  0.00  0.00     0.382 C 
ATOM     23  O   LIG d   1     -10.118  78.983 118.048  0.00  0.00    -0.241 OA
ATOM     24  O   LIG d   1      -8.713  80.623 118.027  0.00  0.00    -0.241 OA
ENDBRANCH   3  22
TORSDOF 7
ENDMDL
MODEL 2
REMARK VINA RESULT:      -5.3      1.435      2.343
REMARK  7 active torsions:
REMARK  status: ('A' for Active; 'I' for Inactive)
REMARK    1  A    between atoms: C_2  and  C_3 
REMARK    2  A    between atoms: C_3  and  O_6 
REMARK    3  A    between atoms: C_3  and  C_4 
REMARK    4  A    between atoms: C_7  and  O_6 
REMARK    5  A    between atoms: C_9  and  C_10 
REMARK    6  A    between atoms: N_15  and  C_14 
REMARK    7  A    between atoms: N_20  and  C_19 
REMARK       I    between atoms: C_22  and  N_20 
ROOT
ATOM      1  C   LIG d   1      -5.628  75.069 117.814  0.00  0.00     0.161 C 
ATOM      2  C   LIG d   1      -6.850  75.751 117.699  0.00  0.00     0.016 C 
ATOM      3  C   LIG d   1      -6.947  77.154 117.548  0.00  0.00     0.038 C 
ATOM      4  C   LIG d   1      -5.815  77.958 117.349  0.00  0.00     0.028 C 
ATOM      5  C   LIG d   1      -4.545  77.379 117.963  0.00  0.00    -0.047 C 
ATOM      6  C   LIG d   1      -4.381  75.917 117.488  0.00  0.00     0.091 C 
ENDROOT
BRANCH   1   7
ATOM      7  O   LIG d   1      -5.653  73.880 116.999  0.00  0.00    -0.368 OA
BRANCH   7   8
ATOM      8  C   LIG d   1      -6.516  73.924 115.836  0.00  0.00     0.119 C 
BRANCH   8   9
ATOM      9  C   LIG d   1      -7.213  72.554 115.726  0.00  0.00     0.028 C 
ATOM     10  C   LIG d   1      -8.639  72.573 116.303  0.00  0.00     0.006 C 
ENDBRANCH   8   9
BRANCH   8  11
ATOM     11  C   LIG d   1      -5.704  74.070 114.546  0.00  0.00     0.028 C 
ATOM     12  C   LIG d   1      -5.513  75.536 114.125  0.00  0.00     0.006 C 
ENDBRANCH   8  11
ENDBRANCH   7   8
ENDBRANCH   1   7
BRANCH   6  13
ATOM     13  N   LIG d   1      -3.207  75.248 118.109  0.00  0.00    -0.311 N 
ATOM     14  C   LIG d   1      -2.216  74.704 117.404  0.00  0.00     0.210 C 
ATOM     15  C   LIG d   1      -1.113  74.048 118.241  0.00  0.00     0.109 C 
ATOM     16  O   LIG d   1      -2.130  74.732 116.168  0.00  0.00    -0.276 OA
ATOM     17  H   LIG d   1      -3.181  75.208 119.109  0.00  0.00     0.149 HD
ENDBRANCH   6  13
BRANCH   5  18
ATOM     18  N   LIG d   1      -3.421  78.246 117.563  0.00  0.00     0.381 N 
ATOM     19  H   LIG d   1      -3.705  78.844 116.813  0.00  0.00    -0.090 HD
ATOM     20  H   LIG d   1      -2.665  77.670 117.237  0.00  0.00    -0.090 HD
ATOM     21  H   LIG d   1      -3.121  78.794 118.339  0.00  0.00    -0.090 HD
ENDBRANCH   5  18
BRANCH   3  22
ATOM     22  C   LIG d   1      -8.186  77.770 117.635  0.00  0.00     0.382 C 
ATOM     23  O   LIG d   1      -9.232  77.108 117.432  0.00  0.00    -0.241 OA
ATOM     24  O   LIG d   1      -8.270  78.990 117.872  0.00  0.00    -0.241 OA
ENDBRANCH   3  22
TORSDOF 7
ENDMDL
MODEL 3
REMARK VINA RESULT:      -5.2      2.115      5.121
REMARK  7 active torsions:
REMARK  status: ('A' for Active; 'I' for Inactive)
REMARK    1  A    between atoms: C_2  and  C_3 
REMARK    2  A    between atoms: C_3  and  O_6 
REMARK    3  A    between atoms: C_3  and  C_4 
REMARK    4  A    between atoms: C_7  and  O_6 
REMARK    5  A    between atoms: C_9  and  C_10 
REMARK    6  A    between atoms: N_15  and  C_14 
REMARK    7  A    between atoms: N_20  and  C_19 
REMARK       I    between atoms: C_22  and  N_20 
ROOT
ATOM      1  C   LIG d   1      -5.222  75.632 117.718  0.00  0.00     0.161 C 
ATOM      2  C   LIG d   1      -5.667  74.364 117.307  0.00  0.00     0.016 C 
ATOM      3  C   LIG d   1      -7.007  74.088 116.950  0.00  0.00     0.038 C 
ATOM      4  C   LIG d   1      -7.967  75.103 116.832  0.00  0.00     0.028 C 
ATOM      5  C   LIG d   1      -7.686  76.309 117.723  0.00  0.00    -0.047 C 
ATOM      6  C   LIG d   1      -6.231  76.776 117.490  0.00  0.00     0.091 C 
ENDROOT
BRANCH   1   7
ATOM      7  O   LIG d   1      -3.965  75.938 117.083  0.00  0.00    -0.368 OA
BRANCH   7   8
ATOM      8  C   LIG d   1      -3.718  75.286 115.812  0.00  0.00     0.119 C 
BRANCH   8   9
ATOM      9  C   LIG d   1      -2.196  75.075 115.689  0.00  0.00     0.028 C 
ATOM     10  C   LIG d   1      -1.593  74.408 116.936  0.00  0.00     0.006 C 
ENDBRANCH   8   9
BRANCH   8  11
ATOM     11  C   LIG d   1      -4.098  76.193 114.638  0.00  0.00     0.028 C 
ATOM     12  C   LIG d   1      -5.374  75.729 113.917  0.00  0.00     0.006 C 
ENDBRANCH   8  11
ENDBRANCH   7   8
ENDBRANCH   1   7
BRANCH   6  13
ATOM     13  N   LIG d   1      -5.847  77.900 118.383  0.00  0.00    -0.311 N 
ATOM     14  C   LIG d   1      -5.874  79.178 118.008  0.00  0.00     0.210 C 
ATOM     15  C   LIG d   1      -5.418  80.175 119.078  0.00  0.00     0.109 C 
ATOM     16  O   LIG d   1      -6.262  79.582 116.902  0.00  0.00    -0.276 OA
ATOM     17  H   LIG d   1      -5.548  77.664 119.310  0.00  0.00     0.149 HD
ENDBRANCH   6  13
BRANCH   5  18
ATOM     18  N   LIG d   1      -8.685  77.345 117.400  0.00  0.00     0.381 N 
ATOM     19  H   LIG d   1      -9.303  77.473 118.176  0.00  0.00    -0.090 HD
ATOM     20  H   LIG d   1      -9.228  77.038 116.612  0.00  0.00    -0.090 HD
ATOM     21  H   LIG d   1      -8.228  78.203 117.184  0.00  0.00    -0.090 HD
ENDBRANCH   5  18
BRANCH   3  22
ATOM     22  C   LIG d   1      -7.406  72.776 116.743  0.00  0.00     0.382 C 
ATOM     23  O   LIG d   1      -7.533  71.998 117.720  0.00  0.00    -0.241 OA
ATOM     24  O   LIG d   1      -7.598  72.348 115.589  0.00  0.00    -0.241 OA
ENDBRANCH   3  22
TORSDOF 7
ENDMDL
MODEL 4
REMARK VINA RESULT:      -4.9      7.148      9.890
REMARK  7 active torsions:
REMARK  status: ('A' for Active; 'I' for Inactive)
REMARK    1  A    between atoms: C_2  and  C_3 
REMARK    2  A    between atoms: C_3  and  O_6 
REMARK    3  A    between atoms: C_3  and  C_4 
REMARK    4  A    between atoms: C_7  and  O_6 
REMARK    5  A    between atoms: C_9  and  C_10 
REMARK    6  A    between atoms: N_15  and  C_14 
REMARK    7  A    between atoms: N_20  and  C_19 
REMARK       I    between atoms: C_22  and  N_20 
ROOT
ATOM      1  C   LIG d   1      -2.501  81.859 112.817  0.00  0.00     0.161 C 
ATOM      2  C   LIG d   1      -2.741  80.498 113.069  0.00  0.00     0.016 C 
ATOM      3  C   LIG d   1      -1.733  79.508 113.020  0.00  0.00     0.038 C 
ATOM      4  C   LIG d   1      -0.378  79.836 112.862  0.00  0.00     0.028 C 
ATOM      5  C   LIG d   1      -0.155  81.140 112.103  0.00  0.00    -0.047 C 
ATOM      6  C   LIG d   1      -1.010  82.251 112.753  0.00  0.00     0.091 C 
ENDROOT
BRANCH   1   7
ATOM      7  O   LIG d   1      -3.190  82.665 113.793  0.00  0.00    -0.368 OA
BRANCH   7   8
ATOM      8  C   LIG d   1      -2.559  82.770 115.093  0.00  0.00     0.119 C 
BRANCH   8   9
ATOM      9  C   LIG d   1      -3.540  82.191 116.131  0.00  0.00     0.028 C 
ATOM     10  C   LIG d   1      -3.003  80.914 116.799  0.00  0.00     0.006 C 
ENDBRANCH   8   9
BRANCH   8  11
ATOM     11  C   LIG d   1      -2.357  84.233 115.498  0.00  0.00     0.028 C 
ATOM     12  C   LIG d   1      -1.317  84.403 116.617  0.00  0.00     0.006 C 
ENDBRANCH   8  11
ENDBRANCH   7   8
ENDBRANCH   1   7
BRANCH   6  13
ATOM     13  N   LIG d   1      -0.915  83.541 112.021  0.00  0.00    -0.311 N 
ATOM     14  C   LIG d   1      -0.137  84.550 112.409  0.00  0.00     0.210 C 
ATOM     15  C   LIG d   1      -0.204  85.796 111.522  0.00  0.00     0.109 C 
ATOM     16  O   LIG d   1       0.627  84.518 113.386  0.00  0.00    -0.276 OA
ATOM     17  H   LIG d   1      -1.478  83.641 111.198  0.00  0.00     0.149 HD
ENDBRANCH   6  13
BRANCH   5  18
ATOM     18  N   LIG d   1       1.291  81.431 112.132  0.00  0.00     0.381 N 
ATOM     19  H   LIG d   1       1.809  80.576 112.081  0.00  0.00    -0.090 HD
ATOM     20  H   LIG d   1       1.514  81.883 113.001  0.00  0.00    -0.090 HD
ATOM     21  H   LIG d   1       1.535  82.023 111.369  0.00  0.00    -0.090 HD
ENDBRANCH   5  18
BRANCH   3  22
ATOM     22  C   LIG d   1      -2.082  78.168 113.089  0.00  0.00     0.382 C 
ATOM     23  O   LIG d   1      -3.254  77.810 112.819  0.00  0.00    -0.241 OA
ATOM     24  O   LIG d   1      -1.252  77.317 113.460  0.00  0.00    -0.241 OA
ENDBRANCH   3  22
TORSDOF 7
ENDMDL
MODEL 5
REMARK VINA RESULT:      -4.8      2.006      3.912
REMARK  7 active torsions:
REMARK  status: ('A' for Active; 'I' for Inactive)
REMARK    1  A    between atoms: C_2  and  C_3 
REMARK    2  A    between atoms: C_3  and  O_6 
REMARK    3  A    between atoms: C_3  and  C_4 
REMARK    4  A    between atoms: C_7  and  O_6 
REMARK    5  A    between atoms: C_9  and  C_10 
REMARK    6  A    between atoms: N_15  and  C_14 
REMARK    7  A    between atoms: N_20  and  C_19 
REMARK       I    between atoms: C_22  and  N_20 
ROOT
ATOM      1  C   LIG d   1      -6.210  76.777 116.841  0.00  0.00     0.161 C 
ATOM      2  C   LIG d   1      -6.036  78.145 117.110  0.00  0.00     0.016 C 
ATOM      3  C   LIG d   1      -7.074  78.983 117.578  0.00  0.00     0.038 C 
ATOM      4  C   LIG d   1      -8.325  78.474 117.957  0.00  0.00     0.028 C 
ATOM      5  C   LIG d   1      -8.702  77.190 117.227  0.00  0.00    -0.047 C 
ATOM      6  C   LIG d   1      -7.538  76.181 117.354  0.00  0.00     0.091 C 
ENDROOT
BRANCH   1   7
ATOM      7  O   LIG d   1      -5.092  76.031 117.362  0.00  0.00    -0.368 OA
BRANCH   7   8
ATOM      8  C   LIG d   1      -4.269  75.349 116.384  0.00  0.00     0.119 C 
BRANCH   8   9
ATOM      9  C   LIG d   1      -2.818  75.825 116.586  0.00  0.00     0.028 C 
ATOM     10  C   LIG d   1      -1.811  74.663 116.566  0.00  0.00     0.006 C 
ENDBRANCH   8   9
BRANCH   8  11
ATOM     11  C   LIG d   1      -4.638  75.766 114.957  0.00  0.00     0.028 C 
ATOM     12  C   LIG d   1      -5.254  74.619 114.141  0.00  0.00     0.006 C 
ENDBRANCH   8  11
ENDBRANCH   7   8
ENDBRANCH   1   7
BRANCH   6  13
ATOM     13  N   LIG d   1      -7.789  74.927 116.597  0.00  0.00    -0.311 N 
ATOM     14  C   LIG d   1      -7.477  73.717 117.058  0.00  0.00     0.210 C 
ATOM     15  C   LIG d   1      -7.804  72.559 116.109  0.00  0.00     0.109 C 
ATOM     16  O   LIG d   1      -6.991  73.490 118.176  0.00  0.00    -0.276 OA
ATOM     17  H   LIG d   1      -8.210  75.016 115.692  0.00  0.00     0.149 HD
ENDBRANCH   6  13
BRANCH   5  18
ATOM     18  N   LIG d   1      -9.961  76.696 117.815  0.00  0.00     0.381 N 
ATOM     19  H   LIG d   1     -10.084  77.085 118.729  0.00  0.00    -0.090 HD
ATOM     20  H   LIG d   1      -9.909  75.696 117.903  0.00  0.00    -0.090 HD
ATOM     21  H   LIG d   1     -10.730  76.947 117.234  0.00  0.00    -0.090 HD
ENDBRANCH   5  18
BRANCH   3  22
ATOM     22  C   LIG d   1      -6.876  80.355 117.635  0.00  0.00     0.382 C 
ATOM     23  O   LIG d   1      -7.667  81.127 117.042  0.00  0.00    -0.241 OA
ATOM     24  O   LIG d   1      -5.891  80.827 118.234  0.00  0.00    -0.241 OA
ENDBRANCH   3  22
TORSDOF 7
ENDMDL
MODEL 6
REMARK VINA RESULT:      -4.8     12.047     14.326
REMARK  7 active torsions:
REMARK  status: ('A' for Active; 'I' for Inactive)
REMARK    1  A    between atoms: C_2  and  C_3 
REMARK    2  A    between atoms: C_3  and  O_6 
REMARK    3  A    between atoms: C_3  and  C_4 
REMARK    4  A    between atoms: C_7  and  O_6 
REMARK    5  A    between atoms: C_9  and  C_10 
REMARK    6  A    between atoms: N_15  and  C_14 
REMARK    7  A    between atoms: N_20  and  C_19 
REMARK       I    between atoms: C_22  and  N_20 
ROOT
ATOM      1  C   LIG d   1       2.264  86.237 113.920  0.00  0.00     0.161 C 
ATOM      2  C   LIG d   1       2.901  87.484 113.815  0.00  0.00     0.016 C 
ATOM      3  C   LIG d   1       3.917  87.761 112.871  0.00  0.00     0.038 C 
ATOM      4  C   LIG d   1       4.261  86.849 111.862  0.00  0.00     0.028 C 
ATOM      5  C   LIG d   1       4.000  85.396 112.245  0.00  0.00    -0.047 C 
ATOM      6  C   LIG d   1       2.547  85.265 112.756  0.00  0.00     0.091 C 
ENDROOT
BRANCH   1   7
ATOM      7  O   LIG d   1       0.844  86.426 114.081  0.00  0.00    -0.368 OA
BRANCH   7   8
ATOM      8  C   LIG d   1       0.278  85.972 115.335  0.00  0.00     0.119 C 
BRANCH   8   9
ATOM      9  C   LIG d   1      -1.116  85.390 115.030  0.00  0.00     0.028 C 
ATOM     10  C   LIG d   1      -1.087  83.864 114.841  0.00  0.00     0.006 C 
ENDBRANCH   8   9
BRANCH   8  11
ATOM     11  C   LIG d   1       0.029  87.143 116.290  0.00  0.00     0.028 C 
ATOM     12  C   LIG d   1      -1.421  87.201 116.797  0.00  0.00     0.006 C 
ENDBRANCH   8  11
ENDBRANCH   7   8
ENDBRANCH   1   7
BRANCH   6  13
ATOM     13  N   LIG d   1       2.235  83.891 113.230  0.00  0.00    -0.311 N 
ATOM     14  C   LIG d   1       1.695  82.953 112.454  0.00  0.00     0.210 C 
ATOM     15  C   LIG d   1       1.436  81.611 113.147  0.00  0.00     0.109 C 
ATOM     16  O   LIG d   1       1.435  83.094 111.250  0.00  0.00    -0.276 OA
ATOM     17  H   LIG d   1       2.443  83.681 114.186  0.00  0.00     0.149 HD
ENDBRANCH   6  13
BRANCH   5  18
ATOM     18  N   LIG d   1       4.272  84.567 111.055  0.00  0.00     0.381 N 
ATOM     19  H   LIG d   1       4.606  85.144 110.309  0.00  0.00    -0.090 HD
ATOM     20  H   LIG d   1       3.416  84.133 110.759  0.00  0.00    -0.090 HD
ATOM     21  H   LIG d   1       4.949  83.869 111.274  0.00  0.00    -0.090 HD
ENDBRANCH   5  18
BRANCH   3  22
ATOM     22  C   LIG d   1       4.629  88.948 112.957  0.00  0.00     0.382 C 
ATOM     23  O   LIG d   1       5.878  88.940 112.839  0.00  0.00    -0.241 OA
ATOM     24  O   LIG d   1       4.042  90.021 113.194  0.00  0.00    -0.241 OA
ENDBRANCH   3  22
TORSDOF 7
ENDMDL
MODEL 7
REMARK VINA RESULT:      -4.7     12.256     14.435
REMARK  7 active torsions:
REMARK  status: ('A' for Active; 'I' for Inactive)
REMARK    1  A    between atoms: C_2  and  C_3 
REMARK    2  A    between atoms: C_3  and  O_6 
REMARK    3  A    between atoms: C_3  and  C_4 
REMARK    4  A    between atoms: C_7  and  O_6 
REMARK    5  A    between atoms: C_9  and  C_10 
REMARK    6  A    between atoms: N_15  and  C_14 
REMARK    7  A    between atoms: N_20  and  C_19 
REMARK       I    between atoms: C_22  and  N_20 
ROOT
ATOM      1  C   LIG d   1       2.864  85.852 114.628  0.00  0.00     0.161 C 
ATOM      2  C   LIG d   1       2.929  87.252 114.720  0.00  0.00     0.016 C 
ATOM      3  C   LIG d   1       3.425  88.078 113.686  0.00  0.00     0.038 C 
ATOM      4  C   LIG d   1       3.752  87.567 112.421  0.00  0.00     0.028 C 
ATOM      5  C   LIG d   1       4.179  86.103 112.451  0.00  0.00    -0.047 C 
ATOM      6  C   LIG d   1       3.112  85.285 113.214  0.00  0.00     0.091 C 
ENDROOT
BRANCH   1   7
ATOM      7  O   LIG d   1       1.599  85.386 115.139  0.00  0.00    -0.368 OA
BRANCH   7   8
ATOM      8  C   LIG d   1       0.424  86.100 114.680  0.00  0.00     0.119 C 
BRANCH   8   9
ATOM      9  C   LIG d   1      -0.477  86.345 115.905  0.00  0.00     0.028 C 
ATOM     10  C   LIG d   1      -0.049  87.583 116.711  0.00  0.00     0.006 C 
ENDBRANCH   8   9
BRANCH   8  11
ATOM     11  C   LIG d   1      -0.412  85.241 113.726  0.00  0.00     0.028 C 
ATOM     12  C   LIG d   1      -0.365  85.745 112.275  0.00  0.00     0.006 C 
ENDBRANCH   8  11
ENDBRANCH   7   8
ENDBRANCH   1   7
BRANCH   6  13
ATOM     13  N   LIG d   1       3.492  83.856 113.363  0.00  0.00    -0.311 N 
ATOM     14  C   LIG d   1       3.117  82.905 112.509  0.00  0.00     0.210 C 
ATOM     15  C   LIG d   1       3.602  81.494 112.859  0.00  0.00     0.109 C 
ATOM     16  O   LIG d   1       2.456  83.100 111.479  0.00  0.00    -0.276 OA
ATOM     17  H   LIG d   1       4.055  83.614 114.155  0.00  0.00     0.149 HD
ENDBRANCH   6  13
BRANCH   5  18
ATOM     18  N   LIG d   1       4.357  85.662 111.055  0.00  0.00     0.381 N 
ATOM     19  H   LIG d   1       5.330  85.655 110.823  0.00  0.00    -0.090 HD
ATOM     20  H   LIG d   1       3.892  86.313 110.447  0.00  0.00    -0.090 HD
ATOM     21  H   LIG d   1       3.973  84.750 110.934  0.00  0.00    -0.090 HD
ENDBRANCH   5  18
BRANCH   3  22
ATOM     22  C   LIG d   1       3.637  89.427 113.926  0.00  0.00     0.382 C 
ATOM     23  O   LIG d   1       4.116  90.157 113.025  0.00  0.00    -0.241 OA
ATOM     24  O   LIG d   1       3.396  89.915 115.046  0.00  0.00    -0.241 OA
ENDBRANCH   3  22
TORSDOF 7
ENDMDL
MODEL 8
REMARK VINA RESULT:      -4.7      2.606      3.581
REMARK  7 active torsions:
REMARK  status: ('A' for Active; 'I' for Inactive)
REMARK    1  A    between atoms: C_2  and  C_3 
REMARK    2  A    between atoms: C_3  and  O_6 
REMARK    3  A    between atoms: C_3  and  C_4 
REMARK    4  A    between atoms: C_7  and  O_6 
REMARK    5  A    between atoms: C_9  and  C_10 
REMARK    6  A    between atoms: N_15  and  C_14 
REMARK    7  A    between atoms: N_20  and  C_19 
REMARK       I    between atoms: C_22  and  N_20 
ROOT
ATOM      1  C   LIG d   1      -4.039  76.587 117.694  0.00  0.00     0.161 C 
ATOM      2  C   LIG d   1      -4.789  77.774 117.747  0.00  0.00     0.016 C 
ATOM      3  C   LIG d   1      -4.392  78.974 117.113  0.00  0.00     0.038 C 
ATOM      4  C   LIG d   1      -3.286  79.027 116.251  0.00  0.00     0.028 C 
ATOM      5  C   LIG d   1      -2.219  77.985 116.570  0.00  0.00    -0.047 C 
ATOM      6  C   LIG d   1      -2.888  76.595 116.666  0.00  0.00     0.091 C 
ENDROOT
BRANCH   1   7
ATOM      7  O   LIG d   1      -4.915  75.467 117.457  0.00  0.00    -0.368 OA
BRANCH   7   8
ATOM      8  C   LIG d   1      -5.950  75.667 116.463  0.00  0.00     0.119 C 
BRANCH   8   9
ATOM      9  C   LIG d   1      -7.285  75.214 117.087  0.00  0.00     0.028 C 
ATOM     10  C   LIG d   1      -8.347  76.326 117.072  0.00  0.00     0.006 C 
ENDBRANCH   8   9
BRANCH   8  11
ATOM     11  C   LIG d   1      -5.741  74.756 115.249  0.00  0.00     0.028 C 
ATOM     12  C   LIG d   1      -5.370  75.535 113.977  0.00  0.00     0.006 C 
ENDBRANCH   8  11
ENDBRANCH   7   8
ENDBRANCH   1   7
BRANCH   6  13
ATOM     13  N   LIG d   1      -1.929  75.530 117.059  0.00  0.00    -0.311 N 
ATOM     14  C   LIG d   1      -1.335  74.719 116.184  0.00  0.00     0.210 C 
ATOM     15  C   LIG d   1      -0.396  73.678 116.801  0.00  0.00     0.109 C 
ATOM     16  O   LIG d   1      -1.472  74.785 114.953  0.00  0.00    -0.276 OA
ATOM     17  H   LIG d   1      -1.735  75.427 118.036  0.00  0.00     0.149 HD
ENDBRANCH   6  13
BRANCH   5  18
ATOM     18  N   LIG d   1      -1.193  78.060 115.514  0.00  0.00     0.381 N 
ATOM     19  H   LIG d   1      -0.526  78.771 115.740  0.00  0.00    -0.090 HD
ATOM     20  H   LIG d   1      -1.636  78.308 114.646  0.00  0.00    -0.090 HD
ATOM     21  H   LIG d   1      -0.733  77.181 115.421  0.00  0.00    -0.090 HD
ENDBRANCH   5  18
BRANCH   3  22
ATOM     22  C   LIG d   1      -5.081  80.149 117.371  0.00  0.00     0.382 C 
ATOM     23  O   LIG d   1      -5.415  80.901 116.425  0.00  0.00    -0.241 OA
ATOM     24  O   LIG d   1      -5.336  80.488 118.543  0.00  0.00    -0.241 OA
ENDBRANCH   3  22
TORSDOF 7
ENDMDL
MODEL 9
REMARK VINA RESULT:      -4.5      2.271      3.299
REMARK  7 active torsions:
REMARK  status: ('A' for Active; 'I' for Inactive)
REMARK    1  A    between atoms: C_2  and  C_3 
REMARK    2  A    between atoms: C_3  and  O_6 
REMARK    3  A    between atoms: C_3  and  C_4 
REMARK    4  A    between atoms: C_7  and  O_6 
REMARK    5  A    between atoms: C_9  and  C_10 
REMARK    6  A    between atoms: N_15  and  C_14 
REMARK    7  A    between atoms: N_20  and  C_19 
REMARK       I    between atoms: C_22  and  N_20 
ROOT
ATOM      1  C   LIG d   1      -4.514  74.937 117.817  0.00  0.00     0.161 C 
ATOM      2  C   LIG d   1      -5.304  76.089 117.664  0.00  0.00     0.016 C 
ATOM      3  C   LIG d   1      -4.846  77.268 117.032  0.00  0.00     0.038 C 
ATOM      4  C   LIG d   1      -3.609  77.323 116.373  0.00  0.00     0.028 C 
ATOM      5  C   LIG d   1      -2.577  76.352 116.937  0.00  0.00    -0.047 C 
ATOM      6  C   LIG d   1      -3.202  74.940 117.005  0.00  0.00     0.091 C 
ENDROOT
BRANCH   1   7
ATOM      7  O   LIG d   1      -5.293  73.765 117.504  0.00  0.00    -0.368 OA
BRANCH   7   8
ATOM      8  C   LIG d   1      -6.534  73.996 116.793  0.00  0.00     0.119 C 
BRANCH   8   9
ATOM      9  C   LIG d   1      -7.612  73.106 117.442  0.00  0.00     0.028 C 
ATOM     10  C   LIG d   1      -8.954  73.168 116.692  0.00  0.00     0.006 C 
ENDBRANCH   8   9
BRANCH   8  11
ATOM     11  C   LIG d   1      -6.440  73.523 115.339  0.00  0.00     0.028 C 
ATOM     12  C   LIG d   1      -5.689  74.516 114.438  0.00  0.00     0.006 C 
ENDBRANCH   8  11
ENDBRANCH   7   8
ENDBRANCH   1   7
BRANCH   6  13
ATOM     13  N   LIG d   1      -2.287  73.945 117.625  0.00  0.00    -0.311 N 
ATOM     14  C   LIG d   1      -1.527  74.210 118.686  0.00  0.00     0.210 C 
ATOM     15  C   LIG d   1      -0.643  73.049 119.153  0.00  0.00     0.109 C 
ATOM     16  O   LIG d   1      -1.526  75.284 119.305  0.00  0.00    -0.276 OA
ATOM     17  H   LIG d   1      -2.250  73.037 117.205  0.00  0.00     0.149 HD
ENDBRANCH   6  13
BRANCH   5  18
ATOM     18  N   LIG d   1      -1.385  76.416 116.071  0.00  0.00     0.381 N 
ATOM     19  H   LIG d   1      -0.680  75.797 116.419  0.00  0.00    -0.090 HD
ATOM     20  H   LIG d   1      -1.019  77.352 116.090  0.00  0.00    -0.090 HD
ATOM     21  H   LIG d   1      -1.627  76.165 115.138  0.00  0.00    -0.090 HD
ENDBRANCH   5  18
BRANCH   3  22
ATOM     22  C   LIG d   1      -5.613  78.421 117.092  0.00  0.00     0.382 C 
ATOM     23  O   LIG d   1      -6.813  78.358 117.452  0.00  0.00    -0.241 OA
ATOM     24  O   LIG d   1      -5.132  79.518 116.748  0.00  0.00    -0.241 OA
ENDBRANCH   3  22
TORSDOF 7
ENDMDL
