MODEL 1
REMARK VINA RESULT:      -5.5      0.000      0.000
REMARK  7 active torsions:
REMARK  status: ('A' for Active; 'I' for Inactive)
REMARK    1  A    between atoms: C_2  and  C_3 
REMARK    2  A    between atoms: C_3  and  O_6 
REMARK    3  A    between atoms: C_3  and  C_4 
REMARK    4  A    between atoms: C_7  and  O_6 
REMARK    5  A    between atoms: C_9  and  C_10 
REMARK    6  A    between atoms: N_15  and  C_14 
REMARK    7  A    between atoms: N_20  and  C_19 
REMARK       I    between atoms: C_22  and  N_20 
ROOT
ATOM      1  C   LIG d   1      -0.144  83.935 112.657  0.00  0.00     0.161 C 
ATOM      2  C   LIG d   1      -1.272  83.141 112.920  0.00  0.00     0.016 C 
ATOM      3  C   LIG d   1      -1.318  81.749 112.675  0.00  0.00     0.038 C 
ATOM      4  C   LIG d   1      -0.179  81.026 112.290  0.00  0.00     0.028 C 
ATOM      5  C   LIG d   1       0.842  81.865 111.530  0.00  0.00    -0.047 C 
ATOM      6  C   LIG d   1       1.144  83.146 112.341  0.00  0.00     0.091 C 
ENDROOT
BRANCH   1   7
ATOM      7  O   LIG d   1       0.081  84.843 113.754  0.00  0.00    -0.368 OA
BRANCH   7   8
ATOM      8  C   LIG d   1      -0.373  84.395 115.055  0.00  0.00     0.119 C 
BRANCH   8   9
ATOM      9  C   LIG d   1      -0.989  85.610 115.774  0.00  0.00     0.028 C 
ATOM     10  C   LIG d   1      -0.623  85.657 117.267  0.00  0.00     0.006 C 
ENDBRANCH   8   9
BRANCH   8  11
ATOM     11  C   LIG d   1       0.801  83.955 115.934  0.00  0.00     0.028 C 
ATOM     12  C   LIG d   1       1.005  82.432 115.938  0.00  0.00     0.006 C 
ENDBRANCH   8  11
ENDBRANCH   7   8
ENDBRANCH   1   7
BRANCH   6  13
ATOM     13  N   LIG d   1       2.070  84.064 111.629  0.00  0.00    -0.311 N 
ATOM     14  C   LIG d   1       3.083  84.690 112.224  0.00  0.00     0.210 C 
ATOM     15  C   LIG d   1       3.904  85.606 111.311  0.00  0.00     0.109 C 
ATOM     16  O   LIG d   1       3.400  84.550 113.415  0.00  0.00    -0.276 OA
ATOM     17  H   LIG d   1       1.905  84.211 110.652  0.00  0.00     0.149 HD
ENDBRANCH   6  13
BRANCH   5  18
ATOM     18  N   LIG d   1       2.035  81.025 111.311  0.00  0.00     0.381 N 
ATOM     19  H   LIG d   1       1.987  80.212 111.891  0.00  0.00    -0.090 HD
ATOM     20  H   LIG d   1       2.853  81.549 111.568  0.00  0.00    -0.090 HD
ATOM     21  H   LIG d   1       2.092  80.756 110.353  0.00  0.00    -0.090 HD
ENDBRANCH   5  18
BRANCH   3  22
ATOM     22  C   LIG d   1      -2.524  81.072 112.778  0.00  0.00     0.382 C 
ATOM     23  O   LIG d   1      -3.576  81.596 112.337  0.00  0.00    -0.241 OA
ATOM     24  O   LIG d   1      -2.581  79.965 113.345  0.00  0.00    -0.241 OA
ENDBRANCH   3  22
TORSDOF 7
ENDMDL
MODEL 2
REMARK VINA RESULT:      -5.4      9.320     12.000
REMARK  7 active torsions:
REMARK  status: ('A' for Active; 'I' for Inactive)
REMARK    1  A    between atoms: C_2  and  C_3 
REMARK    2  A    between atoms: C_3  and  O_6 
REMARK    3  A    between atoms: C_3  and  C_4 
REMARK    4  A    between atoms: C_7  and  O_6 
REMARK    5  A    between atoms: C_9  and  C_10 
REMARK    6  A    between atoms: N_15  and  C_14 
REMARK    7  A    between atoms: N_20  and  C_19 
REMARK       I    between atoms: C_22  and  N_20 
ROOT
ATOM      1  C   LIG d   1      -6.922  76.254 117.102  0.00  0.00     0.161 C 
ATOM      2  C   LIG d   1      -7.639  77.253 117.781  0.00  0.00     0.016 C 
ATOM      3  C   LIG d   1      -9.010  77.141 118.108  0.00  0.00     0.038 C 
ATOM      4  C   LIG d   1      -9.725  75.950 117.909  0.00  0.00     0.028 C 
ATOM      5  C   LIG d   1      -9.176  75.097 116.770  0.00  0.00    -0.047 C 
ATOM      6  C   LIG d   1      -7.656  74.903 116.976  0.00  0.00     0.091 C 
ENDROOT
BRANCH   1   7
ATOM      7  O   LIG d   1      -5.635  76.069 117.724  0.00  0.00    -0.368 OA
BRANCH   7   8
ATOM      8  C   LIG d   1      -4.509  76.691 117.057  0.00  0.00     0.119 C 
BRANCH   8   9
ATOM      9  C   LIG d   1      -3.897  75.644 116.107  0.00  0.00     0.028 C 
ATOM     10  C   LIG d   1      -3.260  76.283 114.861  0.00  0.00     0.006 C 
ENDBRANCH   8   9
BRANCH   8  11
ATOM     11  C   LIG d   1      -3.395  77.038 118.049  0.00  0.00     0.028 C 
ATOM     12  C   LIG d   1      -3.892  77.886 119.231  0.00  0.00     0.006 C 
ENDBRANCH   8  11
ENDBRANCH   7   8
ENDBRANCH   1   7
BRANCH   6  13
ATOM     13  N   LIG d   1      -7.024  74.150 115.861  0.00  0.00    -0.311 N 
ATOM     14  C   LIG d   1      -6.812  72.836 115.892  0.00  0.00     0.210 C 
ATOM     15  C   LIG d   1      -6.130  72.262 114.646  0.00  0.00     0.109 C 
ATOM     16  O   LIG d   1      -7.153  72.086 116.819  0.00  0.00    -0.276 OA
ATOM     17  H   LIG d   1      -6.745  74.676 115.057  0.00  0.00     0.149 HD
ENDBRANCH   6  13
BRANCH   5  18
ATOM     18  N   LIG d   1      -9.925  73.827 116.764  0.00  0.00     0.381 N 
ATOM     19  H   LIG d   1     -10.659  73.870 116.084  0.00  0.00    -0.090 HD
ATOM     20  H   LIG d   1     -10.341  73.690 117.668  0.00  0.00    -0.090 HD
ATOM     21  H   LIG d   1      -9.312  73.070 116.554  0.00  0.00    -0.090 HD
ENDBRANCH   5  18
BRANCH   3  22
ATOM     22  C   LIG d   1      -9.691  78.242 118.603  0.00  0.00     0.382 C 
ATOM     23  O   LIG d   1     -10.881  78.125 118.985  0.00  0.00    -0.241 OA
ATOM     24  O   LIG d   1      -9.146  79.362 118.632  0.00  0.00    -0.241 OA
ENDBRANCH   3  22
TORSDOF 7
ENDMDL
MODEL 3
REMARK VINA RESULT:      -5.4      6.806      9.641
REMARK  7 active torsions:
REMARK  status: ('A' for Active; 'I' for Inactive)
REMARK    1  A    between atoms: C_2  and  C_3 
REMARK    2  A    between atoms: C_3  and  O_6 
REMARK    3  A    between atoms: C_3  and  C_4 
REMARK    4  A    between atoms: C_7  and  O_6 
REMARK    5  A    between atoms: C_9  and  C_10 
REMARK    6  A    between atoms: N_15  and  C_14 
REMARK    7  A    between atoms: N_20  and  C_19 
REMARK       I    between atoms: C_22  and  N_20 
ROOT
ATOM      1  C   LIG d   1      -3.440  75.822 115.684  0.00  0.00     0.161 C 
ATOM      2  C   LIG d   1      -3.703  76.588 114.536  0.00  0.00     0.016 C 
ATOM      3  C   LIG d   1      -2.696  77.240 113.789  0.00  0.00     0.038 C 
ATOM      4  C   LIG d   1      -1.332  77.045 114.054  0.00  0.00     0.028 C 
ATOM      5  C   LIG d   1      -1.043  76.687 115.508  0.00  0.00    -0.047 C 
ATOM      6  C   LIG d   1      -1.949  75.506 115.924  0.00  0.00     0.091 C 
ENDROOT
BRANCH   1   7
ATOM      7  O   LIG d   1      -4.210  74.604 115.646  0.00  0.00    -0.368 OA
BRANCH   7   8
ATOM      8  C   LIG d   1      -5.627  74.753 115.381  0.00  0.00     0.119 C 
BRANCH   8   9
ATOM      9  C   LIG d   1      -6.309  75.129 116.710  0.00  0.00     0.028 C 
ATOM     10  C   LIG d   1      -7.007  76.498 116.646  0.00  0.00     0.006 C 
ENDBRANCH   8   9
BRANCH   8  11
ATOM     11  C   LIG d   1      -6.259  73.423 114.962  0.00  0.00     0.028 C 
ATOM     12  C   LIG d   1      -7.115  72.794 116.073  0.00  0.00     0.006 C 
ENDBRANCH   8  11
ENDBRANCH   7   8
ENDBRANCH   1   7
BRANCH   6  13
ATOM     13  N   LIG d   1      -1.790  75.147 117.357  0.00  0.00    -0.311 N 
ATOM     14  C   LIG d   1      -0.939  74.218 117.790  0.00  0.00     0.210 C 
ATOM     15  C   LIG d   1      -0.948  73.990 119.305  0.00  0.00     0.109 C 
ATOM     16  O   LIG d   1      -0.156  73.585 117.067  0.00  0.00    -0.276 OA
ATOM     17  H   LIG d   1      -2.365  75.635 118.016  0.00  0.00     0.149 HD
ENDBRANCH   6  13
BRANCH   5  18
ATOM     18  N   LIG d   1       0.396  76.377 115.612  0.00  0.00     0.381 N 
ATOM     19  H   LIG d   1       0.843  76.542 114.733  0.00  0.00    -0.090 HD
ATOM     20  H   LIG d   1       0.503  75.405 115.844  0.00  0.00    -0.090 HD
ATOM     21  H   LIG d   1       0.816  76.942 116.318  0.00  0.00    -0.090 HD
ENDBRANCH   5  18
BRANCH   3  22
ATOM     22  C   LIG d   1      -3.051  78.131 112.788  0.00  0.00     0.382 C 
ATOM     23  O   LIG d   1      -3.021  79.366 113.007  0.00  0.00    -0.241 OA
ATOM     24  O   LIG d   1      -3.444  77.714 111.682  0.00  0.00    -0.241 OA
ENDBRANCH   3  22
TORSDOF 7
ENDMDL
MODEL 4
REMARK VINA RESULT:      -5.3      8.350     10.587
REMARK  7 active torsions:
REMARK  status: ('A' for Active; 'I' for Inactive)
REMARK    1  A    between atoms: C_2  and  C_3 
REMARK    2  A    between atoms: C_3  and  O_6 
REMARK    3  A    between atoms: C_3  and  C_4 
REMARK    4  A    between atoms: C_7  and  O_6 
REMARK    5  A    between atoms: C_9  and  C_10 
REMARK    6  A    between atoms: N_15  and  C_14 
REMARK    7  A    between atoms: N_20  and  C_19 
REMARK       I    between atoms: C_22  and  N_20 
ROOT
ATOM      1  C   LIG d   1      -6.737  76.445 115.962  0.00  0.00     0.161 C 
ATOM      2  C   LIG d   1      -7.979  75.928 116.366  0.00  0.00     0.016 C 
ATOM      3  C   LIG d   1      -8.268  74.544 116.414  0.00  0.00     0.038 C 
ATOM      4  C   LIG d   1      -7.278  73.573 116.204  0.00  0.00     0.028 C 
ATOM      5  C   LIG d   1      -6.144  74.048 115.302  0.00  0.00    -0.047 C 
ATOM      6  C   LIG d   1      -5.611  75.398 115.835  0.00  0.00     0.091 C 
ENDROOT
BRANCH   1   7
ATOM      7  O   LIG d   1      -6.337  77.506 116.850  0.00  0.00    -0.368 OA
BRANCH   7   8
ATOM      8  C   LIG d   1      -7.042  77.579 118.114  0.00  0.00     0.119 C 
BRANCH   8   9
ATOM      9  C   LIG d   1      -7.643  78.994 118.228  0.00  0.00     0.028 C 
ATOM     10  C   LIG d   1      -9.104  78.974 118.706  0.00  0.00     0.006 C 
ENDBRANCH   8   9
BRANCH   8  11
ATOM     11  C   LIG d   1      -6.078  77.451 119.298  0.00  0.00     0.028 C 
ATOM     12  C   LIG d   1      -4.623  77.771 118.919  0.00  0.00     0.006 C 
ENDBRANCH   8  11
ENDBRANCH   7   8
ENDBRANCH   1   7
BRANCH   6  13
ATOM     13  N   LIG d   1      -4.556  75.975 114.962  0.00  0.00    -0.311 N 
ATOM     14  C   LIG d   1      -3.297  76.160 115.358  0.00  0.00     0.210 C 
ATOM     15  C   LIG d   1      -2.375  76.788 114.307  0.00  0.00     0.109 C 
ATOM     16  O   LIG d   1      -2.849  75.834 116.467  0.00  0.00    -0.276 OA
ATOM     17  H   LIG d   1      -4.825  76.238 114.035  0.00  0.00     0.149 HD
ENDBRANCH   6  13
BRANCH   5  18
ATOM     18  N   LIG d   1      -5.118  72.989 115.280  0.00  0.00     0.381 N 
ATOM     19  H   LIG d   1      -5.460  72.176 115.751  0.00  0.00    -0.090 HD
ATOM     20  H   LIG d   1      -4.302  73.316 115.768  0.00  0.00    -0.090 HD
ATOM     21  H   LIG d   1      -4.882  72.762 114.339  0.00  0.00    -0.090 HD
ENDBRANCH   5  18
BRANCH   3  22
ATOM     22  C   LIG d   1      -9.569  74.121 116.637  0.00  0.00     0.382 C 
ATOM     23  O   LIG d   1     -10.491  74.964 116.757  0.00  0.00    -0.241 OA
ATOM     24  O   LIG d   1      -9.827  72.909 116.762  0.00  0.00    -0.241 OA
ENDBRANCH   3  22
TORSDOF 7
ENDMDL
MODEL 5
REMARK VINA RESULT:      -4.8      2.504      4.448
REMARK  7 active torsions:
REMARK  status: ('A' for Active; 'I' for Inactive)
REMARK    1  A    between atoms: C_2  and  C_3 
REMARK    2  A    between atoms: C_3  and  O_6 
REMARK    3  A    between atoms: C_3  and  C_4 
REMARK    4  A    between atoms: C_7  and  O_6 
REMARK    5  A    between atoms: C_9  and  C_10 
REMARK    6  A    between atoms: N_15  and  C_14 
REMARK    7  A    between atoms: N_20  and  C_19 
REMARK       I    between atoms: C_22  and  N_20 
ROOT
ATOM      1  C   LIG d   1       1.707  83.812 113.881  0.00  0.00     0.161 C 
ATOM      2  C   LIG d   1       0.789  83.090 113.100  0.00  0.00     0.016 C 
ATOM      3  C   LIG d   1      -0.607  83.313 113.134  0.00  0.00     0.038 C 
ATOM      4  C   LIG d   1      -1.169  84.385 113.844  0.00  0.00     0.028 C 
ATOM      5  C   LIG d   1      -0.333  84.823 115.042  0.00  0.00    -0.047 C 
ATOM      6  C   LIG d   1       1.122  85.059 114.578  0.00  0.00     0.091 C 
ENDROOT
BRANCH   1   7
ATOM      7  O   LIG d   1       2.850  84.175 113.082  0.00  0.00    -0.368 OA
BRANCH   7   8
ATOM      8  C   LIG d   1       2.944  85.570 112.701  0.00  0.00     0.119 C 
BRANCH   8   9
ATOM      9  C   LIG d   1       2.513  85.677 111.226  0.00  0.00     0.028 C 
ATOM     10  C   LIG d   1       1.192  86.446 111.055  0.00  0.00     0.006 C 
ENDBRANCH   8   9
BRANCH   8  11
ATOM     11  C   LIG d   1       4.395  86.059 112.736  0.00  0.00     0.028 C 
ATOM     12  C   LIG d   1       4.532  87.545 112.368  0.00  0.00     0.006 C 
ENDBRANCH   8  11
ENDBRANCH   7   8
ENDBRANCH   1   7
BRANCH   6  13
ATOM     13  N   LIG d   1       2.026  85.409 115.705  0.00  0.00    -0.311 N 
ATOM     14  C   LIG d   1       2.342  86.661 116.030  0.00  0.00     0.210 C 
ATOM     15  C   LIG d   1       3.306  86.800 117.212  0.00  0.00     0.109 C 
ATOM     16  O   LIG d   1       1.890  87.672 115.471  0.00  0.00    -0.276 OA
ATOM     17  H   LIG d   1       2.413  84.650 116.232  0.00  0.00     0.149 HD
ENDBRANCH   6  13
BRANCH   5  18
ATOM     18  N   LIG d   1      -0.963  86.031 115.607  0.00  0.00     0.381 N 
ATOM     19  H   LIG d   1      -1.799  86.245 115.101  0.00  0.00    -0.090 HD
ATOM     20  H   LIG d   1      -0.329  86.804 115.509  0.00  0.00    -0.090 HD
ATOM     21  H   LIG d   1      -1.176  85.886 116.569  0.00  0.00    -0.090 HD
ENDBRANCH   5  18
BRANCH   3  22
ATOM     22  C   LIG d   1      -1.459  82.435 112.483  0.00  0.00     0.382 C 
ATOM     23  O   LIG d   1      -2.609  82.223 112.939  0.00  0.00    -0.241 OA
ATOM     24  O   LIG d   1      -1.078  81.818 111.471  0.00  0.00    -0.241 OA
ENDBRANCH   3  22
TORSDOF 7
ENDMDL
MODEL 6
REMARK VINA RESULT:      -4.8     23.878     26.404
REMARK  7 active torsions:
REMARK  status: ('A' for Active; 'I' for Inactive)
REMARK    1  A    between atoms: C_2  and  C_3 
REMARK    2  A    between atoms: C_3  and  O_6 
REMARK    3  A    between atoms: C_3  and  C_4 
REMARK    4  A    between atoms: C_7  and  O_6 
REMARK    5  A    between atoms: C_9  and  C_10 
REMARK    6  A    between atoms: N_15  and  C_14 
REMARK    7  A    between atoms: N_20  and  C_19 
REMARK       I    between atoms: C_22  and  N_20 
ROOT
ATOM      1  C   LIG d   1     -25.570  85.555 113.246  0.00  0.00     0.161 C 
ATOM      2  C   LIG d   1     -24.483  86.438 113.359  0.00  0.00     0.016 C 
ATOM      3  C   LIG d   1     -23.189  86.033 113.761  0.00  0.00     0.038 C 
ATOM      4  C   LIG d   1     -22.856  84.681 113.935  0.00  0.00     0.028 C 
ATOM      5  C   LIG d   1     -24.046  83.809 114.323  0.00  0.00    -0.047 C 
ATOM      6  C   LIG d   1     -25.198  84.059 113.324  0.00  0.00     0.091 C 
ENDROOT
BRANCH   1   7
ATOM      7  O   LIG d   1     -26.298  85.828 112.033  0.00  0.00    -0.368 OA
BRANCH   7   8
ATOM      8  C   LIG d   1     -27.520  86.593 112.181  0.00  0.00     0.119 C 
BRANCH   8   9
ATOM      9  C   LIG d   1     -28.591  85.930 111.293  0.00  0.00     0.028 C 
ATOM     10  C   LIG d   1     -29.710  85.271 112.117  0.00  0.00     0.006 C 
ENDBRANCH   8   9
BRANCH   8  11
ATOM     11  C   LIG d   1     -27.358  88.013 111.631  0.00  0.00     0.028 C 
ATOM     12  C   LIG d   1     -27.085  89.051 112.731  0.00  0.00     0.006 C 
ENDBRANCH   8  11
ENDBRANCH   7   8
ENDBRANCH   1   7
BRANCH   6  13
ATOM     13  N   LIG d   1     -26.430  83.308 113.681  0.00  0.00    -0.311 N 
ATOM     14  C   LIG d   1     -27.178  82.661 112.789  0.00  0.00     0.210 C 
ATOM     15  C   LIG d   1     -28.417  81.968 113.365  0.00  0.00     0.109 C 
ATOM     16  O   LIG d   1     -26.915  82.567 111.580  0.00  0.00    -0.276 OA
ATOM     17  H   LIG d   1     -26.700  83.305 114.645  0.00  0.00     0.149 HD
ENDBRANCH   6  13
BRANCH   5  18
ATOM     18  N   LIG d   1     -23.585  82.408 114.336  0.00  0.00     0.381 N 
ATOM     19  H   LIG d   1     -23.480  82.095 115.280  0.00  0.00    -0.090 HD
ATOM     20  H   LIG d   1     -22.689  82.356 113.885  0.00  0.00    -0.090 HD
ATOM     21  H   LIG d   1     -24.240  81.829 113.858  0.00  0.00    -0.090 HD
ENDBRANCH   5  18
BRANCH   3  22
ATOM     22  C   LIG d   1     -22.223  86.989 114.033  0.00  0.00     0.382 C 
ATOM     23  O   LIG d   1     -22.467  87.913 114.847  0.00  0.00    -0.241 OA
ATOM     24  O   LIG d   1     -21.127  86.966 113.442  0.00  0.00    -0.241 OA
ENDBRANCH   3  22
TORSDOF 7
ENDMDL
MODEL 7
REMARK VINA RESULT:      -4.6      3.414      6.679
REMARK  7 active torsions:
REMARK  status: ('A' for Active; 'I' for Inactive)
REMARK    1  A    between atoms: C_2  and  C_3 
REMARK    2  A    between atoms: C_3  and  O_6 
REMARK    3  A    between atoms: C_3  and  C_4 
REMARK    4  A    between atoms: C_7  and  O_6 
REMARK    5  A    between atoms: C_9  and  C_10 
REMARK    6  A    between atoms: N_15  and  C_14 
REMARK    7  A    between atoms: N_20  and  C_19 
REMARK       I    between atoms: C_22  and  N_20 
ROOT
ATOM      1  C   LIG d   1       2.615  86.056 112.857  0.00  0.00     0.161 C 
ATOM      2  C   LIG d   1       3.304  87.230 112.509  0.00  0.00     0.016 C 
ATOM      3  C   LIG d   1       4.141  87.935 113.404  0.00  0.00     0.038 C 
ATOM      4  C   LIG d   1       4.469  87.426 114.670  0.00  0.00     0.028 C 
ATOM      5  C   LIG d   1       3.400  86.504 115.247  0.00  0.00    -0.047 C 
ATOM      6  C   LIG d   1       3.047  85.425 114.197  0.00  0.00     0.091 C 
ENDROOT
BRANCH   1   7
ATOM      7  O   LIG d   1       2.725  85.092 111.791  0.00  0.00    -0.368 OA
BRANCH   7   8
ATOM      8  C   LIG d   1       1.508  84.814 111.055  0.00  0.00     0.119 C 
BRANCH   8   9
ATOM      9  C   LIG d   1       0.492  85.918 111.406  0.00  0.00     0.028 C 
ATOM     10  C   LIG d   1      -0.775  85.360 112.075  0.00  0.00     0.006 C 
ENDBRANCH   8   9
BRANCH   8  11
ATOM     11  C   LIG d   1       0.861  83.506 111.522  0.00  0.00     0.028 C 
ATOM     12  C   LIG d   1       1.819  82.307 111.442  0.00  0.00     0.006 C 
ENDBRANCH   8  11
ENDBRANCH   7   8
ENDBRANCH   1   7
BRANCH   6  13
ATOM     13  N   LIG d   1       1.949  84.532 114.648  0.00  0.00    -0.311 N 
ATOM     14  C   LIG d   1       2.156  83.370 115.265  0.00  0.00     0.210 C 
ATOM     15  C   LIG d   1       0.885  82.595 115.628  0.00  0.00     0.109 C 
ATOM     16  O   LIG d   1       3.270  82.922 115.574  0.00  0.00    -0.276 OA
ATOM     17  H   LIG d   1       1.012  84.833 114.466  0.00  0.00     0.149 HD
ENDBRANCH   6  13
BRANCH   5  18
ATOM     18  N   LIG d   1       3.930  85.937 116.502  0.00  0.00     0.381 N 
ATOM     19  H   LIG d   1       4.909  86.129 116.572  0.00  0.00    -0.090 HD
ATOM     20  H   LIG d   1       3.803  84.941 116.487  0.00  0.00    -0.090 HD
ATOM     21  H   LIG d   1       3.450  86.329 117.282  0.00  0.00    -0.090 HD
ENDBRANCH   5  18
BRANCH   3  22
ATOM     22  C   LIG d   1       4.630  89.183 113.050  0.00  0.00     0.382 C 
ATOM     23  O   LIG d   1       5.813  89.303 112.652  0.00  0.00    -0.241 OA
ATOM     24  O   LIG d   1       3.916  90.197 113.166  0.00  0.00    -0.241 OA
ENDBRANCH   3  22
TORSDOF 7
ENDMDL
MODEL 8
REMARK VINA RESULT:      -4.6      2.853      6.147
REMARK  7 active torsions:
REMARK  status: ('A' for Active; 'I' for Inactive)
REMARK    1  A    between atoms: C_2  and  C_3 
REMARK    2  A    between atoms: C_3  and  O_6 
REMARK    3  A    between atoms: C_3  and  C_4 
REMARK    4  A    between atoms: C_7  and  O_6 
REMARK    5  A    between atoms: C_9  and  C_10 
REMARK    6  A    between atoms: N_15  and  C_14 
REMARK    7  A    between atoms: N_20  and  C_19 
REMARK       I    between atoms: C_22  and  N_20 
ROOT
ATOM      1  C   LIG d   1       2.519  86.499 114.641  0.00  0.00     0.161 C 
ATOM      2  C   LIG d   1       3.140  87.727 114.359  0.00  0.00     0.016 C 
ATOM      3  C   LIG d   1       3.793  88.006 113.137  0.00  0.00     0.038 C 
ATOM      4  C   LIG d   1       3.737  87.124 112.048  0.00  0.00     0.028 C 
ATOM      5  C   LIG d   1       3.554  85.667 112.458  0.00  0.00    -0.047 C 
ATOM      6  C   LIG d   1       2.352  85.565 113.425  0.00  0.00     0.091 C 
ENDROOT
BRANCH   1   7
ATOM      7  O   LIG d   1       1.245  86.730 115.275  0.00  0.00    -0.368 OA
BRANCH   7   8
ATOM      8  C   LIG d   1       1.159  86.381 116.678  0.00  0.00     0.119 C 
BRANCH   8   9
ATOM      9  C   LIG d   1      -0.225  85.745 116.913  0.00  0.00     0.028 C 
ATOM     10  C   LIG d   1      -0.430  85.306 118.372  0.00  0.00     0.006 C 
ENDBRANCH   8   9
BRANCH   8  11
ATOM     11  C   LIG d   1       1.187  87.629 117.566  0.00  0.00     0.028 C 
ATOM     12  C   LIG d   1       0.301  88.763 117.027  0.00  0.00     0.006 C 
ENDBRANCH   8  11
ENDBRANCH   7   8
ENDBRANCH   1   7
BRANCH   6  13
ATOM     13  N   LIG d   1       2.154  84.185 113.941  0.00  0.00    -0.311 N 
ATOM     14  C   LIG d   1       1.319  83.308 113.388  0.00  0.00     0.210 C 
ATOM     15  C   LIG d   1       1.252  81.948 114.089  0.00  0.00     0.109 C 
ATOM     16  O   LIG d   1       0.651  83.516 112.364  0.00  0.00    -0.276 OA
ATOM     17  H   LIG d   1       2.681  83.922 114.751  0.00  0.00     0.149 HD
ENDBRANCH   6  13
BRANCH   5  18
ATOM     18  N   LIG d   1       3.373  84.876 111.226  0.00  0.00     0.381 N 
ATOM     19  H   LIG d   1       3.352  85.485 110.433  0.00  0.00    -0.090 HD
ATOM     20  H   LIG d   1       2.494  84.392 111.276  0.00  0.00    -0.090 HD
ATOM     21  H   LIG d   1       4.117  84.219 111.131  0.00  0.00    -0.090 HD
ENDBRANCH   5  18
BRANCH   3  22
ATOM     22  C   LIG d   1       4.545  89.164 113.008  0.00  0.00     0.382 C 
ATOM     23  O   LIG d   1       4.004  90.285 113.165  0.00  0.00    -0.241 OA
ATOM     24  O   LIG d   1       5.749  89.103 112.693  0.00  0.00    -0.241 OA
ENDBRANCH   3  22
TORSDOF 7
ENDMDL
MODEL 9
REMARK VINA RESULT:      -4.4      2.215      5.187
REMARK  7 active torsions:
REMARK  status: ('A' for Active; 'I' for Inactive)
REMARK    1  A    between atoms: C_2  and  C_3 
REMARK    2  A    between atoms: C_3  and  O_6 
REMARK    3  A    between atoms: C_3  and  C_4 
REMARK    4  A    between atoms: C_7  and  O_6 
REMARK    5  A    between atoms: C_9  and  C_10 
REMARK    6  A    between atoms: N_15  and  C_14 
REMARK    7  A    between atoms: N_20  and  C_19 
REMARK       I    between atoms: C_22  and  N_20 
ROOT
ATOM      1  C   LIG d   1       1.919  84.079 113.779  0.00  0.00     0.161 C 
ATOM      2  C   LIG d   1       2.548  85.283 113.423  0.00  0.00     0.016 C 
ATOM      3  C   LIG d   1       2.104  86.110 112.366  0.00  0.00     0.038 C 
ATOM      4  C   LIG d   1       0.902  85.864 111.686  0.00  0.00     0.028 C 
ATOM      5  C   LIG d   1       0.504  84.392 111.674  0.00  0.00    -0.047 C 
ATOM      6  C   LIG d   1       0.541  83.850 113.121  0.00  0.00     0.091 C 
ENDROOT
BRANCH   1   7
ATOM      7  O   LIG d   1       1.810  83.990 115.213  0.00  0.00    -0.368 OA
BRANCH   7   8
ATOM      8  C   LIG d   1       1.646  85.245 115.919  0.00  0.00     0.119 C 
BRANCH   8   9
ATOM      9  C   LIG d   1       2.738  85.311 117.005  0.00  0.00     0.028 C 
ATOM     10  C   LIG d   1       3.395  83.944 117.260  0.00  0.00     0.006 C 
ENDBRANCH   8   9
BRANCH   8  11
ATOM     11  C   LIG d   1       0.316  85.289 116.677  0.00  0.00     0.028 C 
ATOM     12  C   LIG d   1      -0.889  85.524 115.753  0.00  0.00     0.006 C 
ENDBRANCH   8  11
ENDBRANCH   7   8
ENDBRANCH   1   7
BRANCH   6  13
ATOM     13  N   LIG d   1       0.247  82.395 113.190  0.00  0.00    -0.311 N 
ATOM     14  C   LIG d   1      -0.974  81.903 113.397  0.00  0.00     0.210 C 
ATOM     15  C   LIG d   1      -1.054  80.374 113.452  0.00  0.00     0.109 C 
ATOM     16  O   LIG d   1      -2.002  82.587 113.509  0.00  0.00    -0.276 OA
ATOM     17  H   LIG d   1       1.019  81.767 113.078  0.00  0.00     0.149 HD
ENDBRANCH   6  13
BRANCH   5  18
ATOM     18  N   LIG d   1      -0.832  84.296 111.056  0.00  0.00     0.381 N 
ATOM     19  H   LIG d   1      -1.537  84.459 111.746  0.00  0.00    -0.090 HD
ATOM     20  H   LIG d   1      -0.956  83.368 110.691  0.00  0.00    -0.090 HD
ATOM     21  H   LIG d   1      -0.916  84.964 110.321  0.00  0.00    -0.090 HD
ENDBRANCH   5  18
BRANCH   3  22
ATOM     22  C   LIG d   1       2.888  87.177 111.953  0.00  0.00     0.382 C 
ATOM     23  O   LIG d   1       2.363  88.300 111.753  0.00  0.00    -0.241 OA
ATOM     24  O   LIG d   1       4.104  87.021 111.734  0.00  0.00    -0.241 OA
ENDBRANCH   3  22
TORSDOF 7
ENDMDL
