MODEL 1
REMARK VINA RESULT:      -5.7      0.000      0.000
REMARK  7 active torsions:
REMARK  status: ('A' for Active; 'I' for Inactive)
REMARK    1  A    between atoms: C_2  and  C_3 
REMARK    2  A    between atoms: C_3  and  O_6 
REMARK    3  A    between atoms: C_3  and  C_4 
REMARK    4  A    between atoms: C_7  and  O_6 
REMARK    5  A    between atoms: C_9  and  C_10 
REMARK    6  A    between atoms: N_15  and  C_14 
REMARK    7  A    between atoms: N_20  and  C_19 
REMARK       I    between atoms: C_22  and  N_20 
ROOT
ATOM      1  C   LIG d   1      -5.796  76.048 116.927  0.00  0.00     0.161 C 
ATOM      2  C   LIG d   1      -6.116  74.778 116.419  0.00  0.00     0.016 C 
ATOM      3  C   LIG d   1      -7.426  74.244 116.428  0.00  0.00     0.038 C 
ATOM      4  C   LIG d   1      -8.536  75.011 116.811  0.00  0.00     0.028 C 
ATOM      5  C   LIG d   1      -8.195  76.118 117.803  0.00  0.00    -0.047 C 
ATOM      6  C   LIG d   1      -7.011  76.943 117.247  0.00  0.00     0.091 C 
ENDROOT
BRANCH   1   7
ATOM      7  O   LIG d   1      -4.900  76.724 116.023  0.00  0.00    -0.368 OA
BRANCH   7   8
ATOM      8  C   LIG d   1      -3.656  76.042 115.729  0.00  0.00     0.119 C 
BRANCH   8   9
ATOM      9  C   LIG d   1      -2.721  76.244 116.937  0.00  0.00     0.028 C 
ATOM     10  C   LIG d   1      -2.357  74.918 117.626  0.00  0.00     0.006 C 
ENDBRANCH   8   9
BRANCH   8  11
ATOM     11  C   LIG d   1      -2.932  76.688 114.544  0.00  0.00     0.028 C 
ATOM     12  C   LIG d   1      -1.461  76.258 114.438  0.00  0.00     0.006 C 
ENDBRANCH   8  11
ENDBRANCH   7   8
ENDBRANCH   1   7
BRANCH   6  13
ATOM     13  N   LIG d   1      -6.559  77.994 118.194  0.00  0.00    -0.311 N 
ATOM     14  C   LIG d   1      -7.018  79.245 118.176  0.00  0.00     0.210 C 
ATOM     15  C   LIG d   1      -6.404  80.175 119.227  0.00  0.00     0.109 C 
ATOM     16  O   LIG d   1      -7.899  79.663 117.410  0.00  0.00    -0.276 OA
ATOM     17  H   LIG d   1      -5.868  77.733 118.870  0.00  0.00     0.149 HD
ENDBRANCH   6  13
BRANCH   5  18
ATOM     18  N   LIG d   1      -9.414  76.923 118.009  0.00  0.00     0.381 N 
ATOM     19  H   LIG d   1     -10.156  76.565 117.442  0.00  0.00    -0.090 HD
ATOM     20  H   LIG d   1      -9.230  77.870 117.726  0.00  0.00    -0.090 HD
ATOM     21  H   LIG d   1      -9.679  76.901 118.969  0.00  0.00    -0.090 HD
ENDBRANCH   5  18
BRANCH   3  22
ATOM     22  C   LIG d   1      -7.629  72.916 116.088  0.00  0.00     0.382 C 
ATOM     23  O   LIG d   1      -8.664  72.321 116.474  0.00  0.00    -0.241 OA
ATOM     24  O   LIG d   1      -6.768  72.291 115.439  0.00  0.00    -0.241 OA
ENDBRANCH   3  22
TORSDOF 7
ENDMDL
MODEL 2
REMARK VINA RESULT:      -5.6      4.263      7.593
REMARK  7 active torsions:
REMARK  status: ('A' for Active; 'I' for Inactive)
REMARK    1  A    between atoms: C_2  and  C_3 
REMARK    2  A    between atoms: C_3  and  O_6 
REMARK    3  A    between atoms: C_3  and  C_4 
REMARK    4  A    between atoms: C_7  and  O_6 
REMARK    5  A    between atoms: C_9  and  C_10 
REMARK    6  A    between atoms: N_15  and  C_14 
REMARK    7  A    between atoms: N_20  and  C_19 
REMARK       I    between atoms: C_22  and  N_20 
ROOT
ATOM      1  C   LIG d   1      -1.884  79.065 115.573  0.00  0.00     0.161 C 
ATOM      2  C   LIG d   1      -2.389  80.363 115.394  0.00  0.00     0.016 C 
ATOM      3  C   LIG d   1      -2.676  80.918 114.126  0.00  0.00     0.038 C 
ATOM      4  C   LIG d   1      -2.620  80.153 112.952  0.00  0.00     0.028 C 
ATOM      5  C   LIG d   1      -1.634  78.992 113.031  0.00  0.00    -0.047 C 
ATOM      6  C   LIG d   1      -1.922  78.176 114.312  0.00  0.00     0.091 C 
ENDROOT
BRANCH   1   7
ATOM      7  O   LIG d   1      -2.573  78.419 116.662  0.00  0.00    -0.368 OA
BRANCH   7   8
ATOM      8  C   LIG d   1      -4.013  78.320 116.536  0.00  0.00     0.119 C 
BRANCH   8   9
ATOM      9  C   LIG d   1      -4.633  78.955 117.795  0.00  0.00     0.028 C 
ATOM     10  C   LIG d   1      -5.494  80.187 117.469  0.00  0.00     0.006 C 
ENDBRANCH   8   9
BRANCH   8  11
ATOM     11  C   LIG d   1      -4.475  76.859 116.549  0.00  0.00     0.028 C 
ATOM     12  C   LIG d   1      -3.580  75.960 117.416  0.00  0.00     0.006 C 
ENDBRANCH   8  11
ENDBRANCH   7   8
ENDBRANCH   1   7
BRANCH   6  13
ATOM     13  N   LIG d   1      -0.949  77.071 114.511  0.00  0.00    -0.311 N 
ATOM     14  C   LIG d   1      -1.276  75.782 114.432  0.00  0.00     0.210 C 
ATOM     15  C   LIG d   1      -0.125  74.806 114.690  0.00  0.00     0.109 C 
ATOM     16  O   LIG d   1      -2.404  75.356 114.140  0.00  0.00    -0.276 OA
ATOM     17  H   LIG d   1      -0.004  77.328 114.721  0.00  0.00     0.149 HD
ENDBRANCH   6  13
BRANCH   5  18
ATOM     18  N   LIG d   1      -1.779  78.199 111.796  0.00  0.00     0.381 N 
ATOM     19  H   LIG d   1      -1.788  78.808 111.002  0.00  0.00    -0.090 HD
ATOM     20  H   LIG d   1      -2.654  77.707 111.826  0.00  0.00    -0.090 HD
ATOM     21  H   LIG d   1      -1.027  77.550 111.718  0.00  0.00    -0.090 HD
ENDBRANCH   5  18
BRANCH   3  22
ATOM     22  C   LIG d   1      -2.986  82.266 114.019  0.00  0.00     0.382 C 
ATOM     23  O   LIG d   1      -3.987  82.728 114.617  0.00  0.00    -0.241 OA
ATOM     24  O   LIG d   1      -2.302  83.016 113.297  0.00  0.00    -0.241 OA
ENDBRANCH   3  22
TORSDOF 7
ENDMDL
MODEL 3
REMARK VINA RESULT:      -5.5      5.256      8.351
REMARK  7 active torsions:
REMARK  status: ('A' for Active; 'I' for Inactive)
REMARK    1  A    between atoms: C_2  and  C_3 
REMARK    2  A    between atoms: C_3  and  O_6 
REMARK    3  A    between atoms: C_3  and  C_4 
REMARK    4  A    between atoms: C_7  and  O_6 
REMARK    5  A    between atoms: C_9  and  C_10 
REMARK    6  A    between atoms: N_15  and  C_14 
REMARK    7  A    between atoms: N_20  and  C_19 
REMARK       I    between atoms: C_22  and  N_20 
ROOT
ATOM      1  C   LIG d   1      -1.320  79.913 115.454  0.00  0.00     0.161 C 
ATOM      2  C   LIG d   1      -1.562  81.259 115.134  0.00  0.00     0.016 C 
ATOM      3  C   LIG d   1      -1.913  81.700 113.837  0.00  0.00     0.038 C 
ATOM      4  C   LIG d   1      -2.194  80.800 112.799  0.00  0.00     0.028 C 
ATOM      5  C   LIG d   1      -1.473  79.464 112.943  0.00  0.00    -0.047 C 
ATOM      6  C   LIG d   1      -1.731  78.904 114.361  0.00  0.00     0.091 C 
ENDROOT
BRANCH   1   7
ATOM      7  O   LIG d   1      -1.960  79.585 116.704  0.00  0.00    -0.368 OA
BRANCH   7   8
ATOM      8  C   LIG d   1      -2.662  80.667 117.363  0.00  0.00     0.119 C 
BRANCH   8   9
ATOM      9  C   LIG d   1      -2.063  80.815 118.775  0.00  0.00     0.028 C 
ATOM     10  C   LIG d   1      -0.746  81.608 118.774  0.00  0.00     0.006 C 
ENDBRANCH   8   9
BRANCH   8  11
ATOM     11  C   LIG d   1      -4.138  80.321 117.582  0.00  0.00     0.028 C 
ATOM     12  C   LIG d   1      -4.606  80.594 119.021  0.00  0.00     0.006 C 
ENDBRANCH   8  11
ENDBRANCH   7   8
ENDBRANCH   1   7
BRANCH   6  13
ATOM     13  N   LIG d   1      -0.993  77.640 114.615  0.00  0.00    -0.311 N 
ATOM     14  C   LIG d   1      -1.514  76.432 114.408  0.00  0.00     0.210 C 
ATOM     15  C   LIG d   1      -0.589  75.261 114.753  0.00  0.00     0.109 C 
ATOM     16  O   LIG d   1      -2.644  76.220 113.942  0.00  0.00    -0.276 OA
ATOM     17  H   LIG d   1      -0.058  77.720 114.964  0.00  0.00     0.149 HD
ENDBRANCH   6  13
BRANCH   5  18
ATOM     18  N   LIG d   1      -1.962  78.575 111.873  0.00  0.00     0.381 N 
ATOM     19  H   LIG d   1      -1.755  78.975 110.979  0.00  0.00    -0.090 HD
ATOM     20  H   LIG d   1      -2.960  78.486 111.954  0.00  0.00    -0.090 HD
ATOM     21  H   LIG d   1      -1.534  77.679 111.951  0.00  0.00    -0.090 HD
ENDBRANCH   5  18
BRANCH   3  22
ATOM     22  C   LIG d   1      -1.945  83.058 113.558  0.00  0.00     0.382 C 
ATOM     23  O   LIG d   1      -2.348  83.867 114.429  0.00  0.00    -0.241 OA
ATOM     24  O   LIG d   1      -1.619  83.480 112.433  0.00  0.00    -0.241 OA
ENDBRANCH   3  22
TORSDOF 7
ENDMDL
MODEL 4
REMARK VINA RESULT:      -5.3      6.069      9.293
REMARK  7 active torsions:
REMARK  status: ('A' for Active; 'I' for Inactive)
REMARK    1  A    between atoms: C_2  and  C_3 
REMARK    2  A    between atoms: C_3  and  O_6 
REMARK    3  A    between atoms: C_3  and  C_4 
REMARK    4  A    between atoms: C_7  and  O_6 
REMARK    5  A    between atoms: C_9  and  C_10 
REMARK    6  A    between atoms: N_15  and  C_14 
REMARK    7  A    between atoms: N_20  and  C_19 
REMARK       I    between atoms: C_22  and  N_20 
ROOT
ATOM      1  C   LIG d   1      -1.901  81.339 114.253  0.00  0.00     0.161 C 
ATOM      2  C   LIG d   1      -1.805  82.704 113.934  0.00  0.00     0.016 C 
ATOM      3  C   LIG d   1      -1.192  83.187 112.755  0.00  0.00     0.038 C 
ATOM      4  C   LIG d   1      -0.766  82.324 111.735  0.00  0.00     0.028 C 
ATOM      5  C   LIG d   1      -0.386  80.935 112.236  0.00  0.00    -0.047 C 
ATOM      6  C   LIG d   1      -1.541  80.379 113.100  0.00  0.00     0.091 C 
ENDROOT
BRANCH   1   7
ATOM      7  O   LIG d   1      -3.221  81.047 114.755  0.00  0.00    -0.368 OA
BRANCH   7   8
ATOM      8  C   LIG d   1      -3.333  80.873 116.189  0.00  0.00     0.119 C 
BRANCH   8   9
ATOM      9  C   LIG d   1      -1.905  80.881 116.769  0.00  0.00     0.028 C 
ATOM     10  C   LIG d   1      -1.895  81.043 118.298  0.00  0.00     0.006 C 
ENDBRANCH   8   9
BRANCH   8  11
ATOM     11  C   LIG d   1      -3.906  79.497 116.540  0.00  0.00     0.028 C 
ATOM     12  C   LIG d   1      -5.207  79.583 117.354  0.00  0.00     0.006 C 
ENDBRANCH   8  11
ENDBRANCH   7   8
ENDBRANCH   1   7
BRANCH   6  13
ATOM     13  N   LIG d   1      -1.217  79.059 113.699  0.00  0.00    -0.311 N 
ATOM     14  C   LIG d   1      -2.052  78.021 113.683  0.00  0.00     0.210 C 
ATOM     15  C   LIG d   1      -1.528  76.759 114.374  0.00  0.00     0.109 C 
ATOM     16  O   LIG d   1      -3.164  78.017 113.133  0.00  0.00    -0.276 OA
ATOM     17  H   LIG d   1      -0.322  78.965 114.139  0.00  0.00     0.149 HD
ENDBRANCH   6  13
BRANCH   5  18
ATOM     18  N   LIG d   1      -0.093  80.100 111.055  0.00  0.00     0.381 N 
ATOM     19  H   LIG d   1       0.470  80.614 110.408  0.00  0.00    -0.090 HD
ATOM     20  H   LIG d   1      -0.958  79.863 110.602  0.00  0.00    -0.090 HD
ATOM     21  H   LIG d   1       0.382  79.270 111.334  0.00  0.00    -0.090 HD
ENDBRANCH   5  18
BRANCH   3  22
ATOM     22  C   LIG d   1      -0.965  84.547 112.606  0.00  0.00     0.382 C 
ATOM     23  O   LIG d   1      -1.182  85.101 111.501  0.00  0.00    -0.241 OA
ATOM     24  O   LIG d   1      -0.504  85.217 113.549  0.00  0.00    -0.241 OA
ENDBRANCH   3  22
TORSDOF 7
ENDMDL
MODEL 5
REMARK VINA RESULT:      -5.3     14.238     17.777
REMARK  7 active torsions:
REMARK  status: ('A' for Active; 'I' for Inactive)
REMARK    1  A    between atoms: C_2  and  C_3 
REMARK    2  A    between atoms: C_3  and  O_6 
REMARK    3  A    between atoms: C_3  and  C_4 
REMARK    4  A    between atoms: C_7  and  O_6 
REMARK    5  A    between atoms: C_9  and  C_10 
REMARK    6  A    between atoms: N_15  and  C_14 
REMARK    7  A    between atoms: N_20  and  C_19 
REMARK       I    between atoms: C_22  and  N_20 
ROOT
ATOM      1  C   LIG d   1      10.718  78.907 114.410  0.00  0.00     0.161 C 
ATOM      2  C   LIG d   1       9.382  79.067 114.815  0.00  0.00     0.016 C 
ATOM      3  C   LIG d   1       8.598  78.016 115.343  0.00  0.00     0.038 C 
ATOM      4  C   LIG d   1       9.147  76.761 115.645  0.00  0.00     0.028 C 
ATOM      5  C   LIG d   1      10.356  76.406 114.786  0.00  0.00    -0.047 C 
ATOM      6  C   LIG d   1      11.367  77.573 114.836  0.00  0.00     0.091 C 
ENDROOT
BRANCH   1   7
ATOM      7  O   LIG d   1      11.506  80.019 114.877  0.00  0.00    -0.368 OA
BRANCH   7   8
ATOM      8  C   LIG d   1      11.884  80.998 113.877  0.00  0.00     0.119 C 
BRANCH   8   9
ATOM      9  C   LIG d   1      10.790  82.083 113.856  0.00  0.00     0.028 C 
ATOM     10  C   LIG d   1      10.346  82.441 112.428  0.00  0.00     0.006 C 
ENDBRANCH   8   9
BRANCH   8  11
ATOM     11  C   LIG d   1      11.878  80.389 112.472  0.00  0.00     0.028 C 
ATOM     12  C   LIG d   1      13.282  80.305 111.853  0.00  0.00     0.006 C 
ENDBRANCH   8  11
ENDBRANCH   7   8
ENDBRANCH   1   7
BRANCH   6  13
ATOM     13  N   LIG d   1      12.542  77.344 113.955  0.00  0.00    -0.311 N 
ATOM     14  C   LIG d   1      13.803  77.452 114.371  0.00  0.00     0.210 C 
ATOM     15  C   LIG d   1      14.863  77.193 113.296  0.00  0.00     0.109 C 
ATOM     16  O   LIG d   1      14.143  77.706 115.536  0.00  0.00    -0.276 OA
ATOM     17  H   LIG d   1      12.357  77.102 113.001  0.00  0.00     0.149 HD
ENDBRANCH   6  13
BRANCH   5  18
ATOM     18  N   LIG d   1      10.910  75.138 115.299  0.00  0.00     0.381 N 
ATOM     19  H   LIG d   1      10.216  74.659 115.838  0.00  0.00    -0.090 HD
ATOM     20  H   LIG d   1      11.689  75.343 115.899  0.00  0.00    -0.090 HD
ATOM     21  H   LIG d   1      11.207  74.565 114.541  0.00  0.00    -0.090 HD
ENDBRANCH   5  18
BRANCH   3  22
ATOM     22  C   LIG d   1       7.238  78.204 115.537  0.00  0.00     0.382 C 
ATOM     23  O   LIG d   1       6.413  77.641 114.777  0.00  0.00    -0.241 OA
ATOM     24  O   LIG d   1       6.827  78.964 116.433  0.00  0.00    -0.241 OA
ENDBRANCH   3  22
TORSDOF 7
ENDMDL
MODEL 6
REMARK VINA RESULT:      -5.2     14.760     16.952
REMARK  7 active torsions:
REMARK  status: ('A' for Active; 'I' for Inactive)
REMARK    1  A    between atoms: C_2  and  C_3 
REMARK    2  A    between atoms: C_3  and  O_6 
REMARK    3  A    between atoms: C_3  and  C_4 
REMARK    4  A    between atoms: C_7  and  O_6 
REMARK    5  A    between atoms: C_9  and  C_10 
REMARK    6  A    between atoms: N_15  and  C_14 
REMARK    7  A    between atoms: N_20  and  C_19 
REMARK       I    between atoms: C_22  and  N_20 
ROOT
ATOM      1  C   LIG d   1       4.340  89.589 114.653  0.00  0.00     0.161 C 
ATOM      2  C   LIG d   1       3.719  88.839 113.640  0.00  0.00     0.016 C 
ATOM      3  C   LIG d   1       3.883  87.443 113.493  0.00  0.00     0.038 C 
ATOM      4  C   LIG d   1       4.564  86.672 114.447  0.00  0.00     0.028 C 
ATOM      5  C   LIG d   1       5.629  87.454 115.209  0.00  0.00    -0.047 C 
ATOM      6  C   LIG d   1       4.997  88.749 115.768  0.00  0.00     0.091 C 
ENDROOT
BRANCH   1   7
ATOM      7  O   LIG d   1       3.398  90.522 115.218  0.00  0.00    -0.368 OA
BRANCH   7   8
ATOM      8  C   LIG d   1       2.765  90.118 116.457  0.00  0.00     0.119 C 
BRANCH   8   9
ATOM      9  C   LIG d   1       1.366  89.576 116.107  0.00  0.00     0.028 C 
ATOM     10  C   LIG d   1       1.244  88.063 116.357  0.00  0.00     0.006 C 
ENDBRANCH   8   9
BRANCH   8  11
ATOM     11  C   LIG d   1       2.517  91.320 117.373  0.00  0.00     0.028 C 
ATOM     12  C   LIG d   1       3.709  92.289 117.422  0.00  0.00     0.006 C 
ENDBRANCH   8  11
ENDBRANCH   7   8
ENDBRANCH   1   7
BRANCH   6  13
ATOM     13  N   LIG d   1       5.991  89.613 116.456  0.00  0.00    -0.311 N 
ATOM     14  C   LIG d   1       6.217  89.570 117.768  0.00  0.00     0.210 C 
ATOM     15  C   LIG d   1       7.270  90.560 118.276  0.00  0.00     0.109 C 
ATOM     16  O   LIG d   1       5.670  88.782 118.554  0.00  0.00    -0.276 OA
ATOM     17  H   LIG d   1       6.503  90.260 115.889  0.00  0.00     0.149 HD
ENDBRANCH   6  13
BRANCH   5  18
ATOM     18  N   LIG d   1       6.163  86.569 116.262  0.00  0.00     0.381 N 
ATOM     19  H   LIG d   1       6.620  85.784 115.845  0.00  0.00    -0.090 HD
ATOM     20  H   LIG d   1       5.399  86.230 116.819  0.00  0.00    -0.090 HD
ATOM     21  H   LIG d   1       6.805  87.071 116.836  0.00  0.00    -0.090 HD
ENDBRANCH   5  18
BRANCH   3  22
ATOM     22  C   LIG d   1       3.395  86.809 112.360  0.00  0.00     0.382 C 
ATOM     23  O   LIG d   1       3.689  85.609 112.138  0.00  0.00    -0.241 OA
ATOM     24  O   LIG d   1       2.703  87.434 111.535  0.00  0.00    -0.241 OA
ENDBRANCH   3  22
TORSDOF 7
ENDMDL
MODEL 7
REMARK VINA RESULT:      -4.9     11.859     14.833
REMARK  7 active torsions:
REMARK  status: ('A' for Active; 'I' for Inactive)
REMARK    1  A    between atoms: C_2  and  C_3 
REMARK    2  A    between atoms: C_3  and  O_6 
REMARK    3  A    between atoms: C_3  and  C_4 
REMARK    4  A    between atoms: C_7  and  O_6 
REMARK    5  A    between atoms: C_9  and  C_10 
REMARK    6  A    between atoms: N_15  and  C_14 
REMARK    7  A    between atoms: N_20  and  C_19 
REMARK       I    between atoms: C_22  and  N_20 
ROOT
ATOM      1  C   LIG d   1       1.970  86.779 114.838  0.00  0.00     0.161 C 
ATOM      2  C   LIG d   1       2.565  87.982 114.423  0.00  0.00     0.016 C 
ATOM      3  C   LIG d   1       3.835  88.417 114.869  0.00  0.00     0.038 C 
ATOM      4  C   LIG d   1       4.666  87.599 115.648  0.00  0.00     0.028 C 
ATOM      5  C   LIG d   1       3.900  86.594 116.502  0.00  0.00    -0.047 C 
ATOM      6  C   LIG d   1       2.910  85.822 115.601  0.00  0.00     0.091 C 
ENDROOT
BRANCH   1   7
ATOM      7  O   LIG d   1       1.383  86.109 113.705  0.00  0.00    -0.368 OA
BRANCH   7   8
ATOM      8  C   LIG d   1       2.242  85.179 113.000  0.00  0.00     0.119 C 
BRANCH   8   9
ATOM      9  C   LIG d   1       2.520  85.773 111.605  0.00  0.00     0.028 C 
ATOM     10  C   LIG d   1       3.981  86.224 111.440  0.00  0.00     0.006 C 
ENDBRANCH   8   9
BRANCH   8  11
ATOM     11  C   LIG d   1       1.528  83.849 112.740  0.00  0.00     0.028 C 
ATOM     12  C   LIG d   1       0.997  83.729 111.303  0.00  0.00     0.006 C 
ENDBRANCH   8  11
ENDBRANCH   7   8
ENDBRANCH   1   7
BRANCH   6  13
ATOM     13  N   LIG d   1       2.060  84.877 116.372  0.00  0.00    -0.311 N 
ATOM     14  C   LIG d   1       2.356  83.589 116.532  0.00  0.00     0.210 C 
ATOM     15  C   LIG d   1       1.335  82.787 117.345  0.00  0.00     0.109 C 
ATOM     16  O   LIG d   1       3.384  83.041 116.106  0.00  0.00    -0.276 OA
ATOM     17  H   LIG d   1       1.222  85.245 116.779  0.00  0.00     0.149 HD
ENDBRANCH   6  13
BRANCH   5  18
ATOM     18  N   LIG d   1       4.891  85.718 117.155  0.00  0.00     0.381 N 
ATOM     19  H   LIG d   1       4.541  85.413 118.042  0.00  0.00    -0.090 HD
ATOM     20  H   LIG d   1       5.734  86.240 117.312  0.00  0.00    -0.090 HD
ATOM     21  H   LIG d   1       5.082  84.929 116.577  0.00  0.00    -0.090 HD
ENDBRANCH   5  18
BRANCH   3  22
ATOM     22  C   LIG d   1       4.267  89.699 114.567  0.00  0.00     0.382 C 
ATOM     23  O   LIG d   1       4.251  90.103 113.380  0.00  0.00    -0.241 OA
ATOM     24  O   LIG d   1       4.715  90.441 115.462  0.00  0.00    -0.241 OA
ENDBRANCH   3  22
TORSDOF 7
ENDMDL
MODEL 8
REMARK VINA RESULT:      -4.9     19.859     22.600
REMARK  7 active torsions:
REMARK  status: ('A' for Active; 'I' for Inactive)
REMARK    1  A    between atoms: C_2  and  C_3 
REMARK    2  A    between atoms: C_3  and  O_6 
REMARK    3  A    between atoms: C_3  and  C_4 
REMARK    4  A    between atoms: C_7  and  O_6 
REMARK    5  A    between atoms: C_9  and  C_10 
REMARK    6  A    between atoms: N_15  and  C_14 
REMARK    7  A    between atoms: N_20  and  C_19 
REMARK       I    between atoms: C_22  and  N_20 
ROOT
ATOM      1  C   LIG d   1     -25.348  86.098 113.661  0.00  0.00     0.161 C 
ATOM      2  C   LIG d   1     -24.224  86.896 113.937  0.00  0.00     0.016 C 
ATOM      3  C   LIG d   1     -22.920  86.375 114.096  0.00  0.00     0.038 C 
ATOM      4  C   LIG d   1     -22.623  85.028 113.839  0.00  0.00     0.028 C 
ATOM      5  C   LIG d   1     -23.811  84.095 114.052  0.00  0.00    -0.047 C 
ATOM      6  C   LIG d   1     -25.026  84.642 113.268  0.00  0.00     0.091 C 
ENDROOT
BRANCH   1   7
ATOM      7  O   LIG d   1     -26.154  86.725 112.644  0.00  0.00    -0.368 OA
BRANCH   7   8
ATOM      8  C   LIG d   1     -26.674  88.039 112.963  0.00  0.00     0.119 C 
BRANCH   8   9
ATOM      9  C   LIG d   1     -28.207  87.918 113.069  0.00  0.00     0.028 C 
ATOM     10  C   LIG d   1     -28.743  86.649 112.386  0.00  0.00     0.006 C 
ENDBRANCH   8   9
BRANCH   8  11
ATOM     11  C   LIG d   1     -26.424  89.030 111.823  0.00  0.00     0.028 C 
ATOM     12  C   LIG d   1     -27.435  90.187 111.806  0.00  0.00     0.006 C 
ENDBRANCH   8  11
ENDBRANCH   7   8
ENDBRANCH   1   7
BRANCH   6  13
ATOM     13  N   LIG d   1     -26.253  83.834 113.489  0.00  0.00    -0.311 N 
ATOM     14  C   LIG d   1     -26.984  83.324 112.499  0.00  0.00     0.210 C 
ATOM     15  C   LIG d   1     -28.222  82.540 112.947  0.00  0.00     0.109 C 
ATOM     16  O   LIG d   1     -26.707  83.419 111.294  0.00  0.00    -0.276 OA
ATOM     17  H   LIG d   1     -26.534  83.681 114.438  0.00  0.00     0.149 HD
ENDBRANCH   6  13
BRANCH   5  18
ATOM     18  N   LIG d   1     -23.402  82.746 113.617  0.00  0.00     0.381 N 
ATOM     19  H   LIG d   1     -23.805  82.541 112.725  0.00  0.00    -0.090 HD
ATOM     20  H   LIG d   1     -23.744  82.073 114.280  0.00  0.00    -0.090 HD
ATOM     21  H   LIG d   1     -22.408  82.692 113.562  0.00  0.00    -0.090 HD
ENDBRANCH   5  18
BRANCH   3  22
ATOM     22  C   LIG d   1     -21.902  87.197 114.555  0.00  0.00     0.382 C 
ATOM     23  O   LIG d   1     -22.091  87.928 115.557  0.00  0.00    -0.241 OA
ATOM     24  O   LIG d   1     -20.813  87.250 113.954  0.00  0.00    -0.241 OA
ENDBRANCH   3  22
TORSDOF 7
ENDMDL
MODEL 9
REMARK VINA RESULT:      -4.7     16.409     19.401
REMARK  7 active torsions:
REMARK  status: ('A' for Active; 'I' for Inactive)
REMARK    1  A    between atoms: C_2  and  C_3 
REMARK    2  A    between atoms: C_3  and  O_6 
REMARK    3  A    between atoms: C_3  and  C_4 
REMARK    4  A    between atoms: C_7  and  O_6 
REMARK    5  A    between atoms: C_9  and  C_10 
REMARK    6  A    between atoms: N_15  and  C_14 
REMARK    7  A    between atoms: N_20  and  C_19 
REMARK       I    between atoms: C_22  and  N_20 
ROOT
ATOM      1  C   LIG d   1      12.116  78.286 114.253  0.00  0.00     0.161 C 
ATOM      2  C   LIG d   1      11.019  79.134 114.483  0.00  0.00     0.016 C 
ATOM      3  C   LIG d   1      10.874  80.401 113.874  0.00  0.00     0.038 C 
ATOM      4  C   LIG d   1      11.746  80.846 112.869  0.00  0.00     0.028 C 
ATOM      5  C   LIG d   1      13.143  80.244 112.971  0.00  0.00    -0.047 C 
ATOM      6  C   LIG d   1      13.021  78.706 113.076  0.00  0.00     0.091 C 
ENDROOT
BRANCH   1   7
ATOM      7  O   LIG d   1      11.658  76.932 114.074  0.00  0.00    -0.368 OA
BRANCH   7   8
ATOM      8  C   LIG d   1      11.528  76.138 115.279  0.00  0.00     0.119 C 
BRANCH   8   9
ATOM      9  C   LIG d   1      12.666  75.100 115.275  0.00  0.00     0.028 C 
ATOM     10  C   LIG d   1      12.143  73.656 115.202  0.00  0.00     0.006 C 
ENDBRANCH   8   9
BRANCH   8  11
ATOM     11  C   LIG d   1      10.233  75.320 115.271  0.00  0.00     0.028 C 
ATOM     12  C   LIG d   1       8.976  76.196 115.142  0.00  0.00     0.006 C 
ENDBRANCH   8  11
ENDBRANCH   7   8
ENDBRANCH   1   7
BRANCH   6  13
ATOM     13  N   LIG d   1      14.339  78.044 113.263  0.00  0.00    -0.311 N 
ATOM     14  C   LIG d   1      15.134  77.695 112.253  0.00  0.00     0.210 C 
ATOM     15  C   LIG d   1      16.438  77.006 112.666  0.00  0.00     0.109 C 
ATOM     16  O   LIG d   1      14.897  77.919 111.056  0.00  0.00    -0.276 OA
ATOM     17  H   LIG d   1      14.623  77.853 114.204  0.00  0.00     0.149 HD
ENDBRANCH   6  13
BRANCH   5  18
ATOM     18  N   LIG d   1      13.905  80.684 111.787  0.00  0.00     0.381 N 
ATOM     19  H   LIG d   1      13.720  81.650 111.604  0.00  0.00    -0.090 HD
ATOM     20  H   LIG d   1      13.606  80.149 110.990  0.00  0.00    -0.090 HD
ATOM     21  H   LIG d   1      14.880  80.548 111.939  0.00  0.00    -0.090 HD
ENDBRANCH   5  18
BRANCH   3  22
ATOM     22  C   LIG d   1       9.867  81.256 114.298  0.00  0.00     0.382 C 
ATOM     23  O   LIG d   1       9.035  80.869 115.154  0.00  0.00    -0.241 OA
ATOM     24  O   LIG d   1       9.755  82.393 113.804  0.00  0.00    -0.241 OA
ENDBRANCH   3  22
TORSDOF 7
ENDMDL
