MODEL 1
REMARK VINA RESULT:      -5.4      0.000      0.000
REMARK  7 active torsions:
REMARK  status: ('A' for Active; 'I' for Inactive)
REMARK    1  A    between atoms: C_2  and  C_3 
REMARK    2  A    between atoms: C_3  and  O_6 
REMARK    3  A    between atoms: C_3  and  C_4 
REMARK    4  A    between atoms: C_7  and  O_6 
REMARK    5  A    between atoms: C_9  and  C_10 
REMARK    6  A    between atoms: N_15  and  C_14 
REMARK    7  A    between atoms: N_20  and  C_19 
REMARK       I    between atoms: C_22  and  N_20 
ROOT
ATOM      1  C   LIG d   1     -16.807  65.912 113.874  0.00  0.00     0.161 C 
ATOM      2  C   LIG d   1     -16.309  66.839 112.944  0.00  0.00     0.016 C 
ATOM      3  C   LIG d   1     -15.238  67.720 113.220  0.00  0.00     0.038 C 
ATOM      4  C   LIG d   1     -14.489  67.628 114.402  0.00  0.00     0.028 C 
ATOM      5  C   LIG d   1     -15.274  67.048 115.573  0.00  0.00    -0.047 C 
ATOM      6  C   LIG d   1     -15.930  65.721 115.129  0.00  0.00     0.091 C 
ENDROOT
BRANCH   1   7
ATOM      7  O   LIG d   1     -17.037  64.645 113.226  0.00  0.00    -0.368 OA
BRANCH   7   8
ATOM      8  C   LIG d   1     -18.419  64.318 112.939  0.00  0.00     0.119 C 
BRANCH   8   9
ATOM      9  C   LIG d   1     -18.797  63.103 113.808  0.00  0.00     0.028 C 
ATOM     10  C   LIG d   1     -19.733  63.481 114.969  0.00  0.00     0.006 C 
ENDBRANCH   8   9
BRANCH   8  11
ATOM     11  C   LIG d   1     -18.591  63.849 111.491  0.00  0.00     0.028 C 
ATOM     12  C   LIG d   1     -19.956  63.191 111.236  0.00  0.00     0.006 C 
ENDBRANCH   8  11
ENDBRANCH   7   8
ENDBRANCH   1   7
BRANCH   6  13
ATOM     13  N   LIG d   1     -16.786  65.129 116.190  0.00  0.00    -0.311 N 
ATOM     14  C   LIG d   1     -16.372  64.169 117.015  0.00  0.00     0.210 C 
ATOM     15  C   LIG d   1     -17.420  63.686 118.023  0.00  0.00     0.109 C 
ATOM     16  O   LIG d   1     -15.226  63.694 117.030  0.00  0.00    -0.276 OA
ATOM     17  H   LIG d   1     -17.721  65.477 116.269  0.00  0.00     0.149 HD
ENDBRANCH   6  13
BRANCH   5  18
ATOM     18  N   LIG d   1     -14.336  66.880 116.699  0.00  0.00     0.381 N 
ATOM     19  H   LIG d   1     -14.750  66.302 117.403  0.00  0.00    -0.090 HD
ATOM     20  H   LIG d   1     -14.148  67.781 117.103  0.00  0.00    -0.090 HD
ATOM     21  H   LIG d   1     -13.487  66.469 116.378  0.00  0.00    -0.090 HD
ENDBRANCH   5  18
BRANCH   3  22
ATOM     22  C   LIG d   1     -14.933  68.733 112.324  0.00  0.00     0.382 C 
ATOM     23  O   LIG d   1     -15.839  69.494 111.905  0.00  0.00    -0.241 OA
ATOM     24  O   LIG d   1     -13.772  68.869 111.895  0.00  0.00    -0.241 OA
ENDBRANCH   3  22
TORSDOF 7
ENDMDL
MODEL 2
REMARK VINA RESULT:      -5.2      1.997      4.975
REMARK  7 active torsions:
REMARK  status: ('A' for Active; 'I' for Inactive)
REMARK    1  A    between atoms: C_2  and  C_3 
REMARK    2  A    between atoms: C_3  and  O_6 
REMARK    3  A    between atoms: C_3  and  C_4 
REMARK    4  A    between atoms: C_7  and  O_6 
REMARK    5  A    between atoms: C_9  and  C_10 
REMARK    6  A    between atoms: N_15  and  C_14 
REMARK    7  A    between atoms: N_20  and  C_19 
REMARK       I    between atoms: C_22  and  N_20 
ROOT
ATOM      1  C   LIG d   1     -16.214  64.780 114.350  0.00  0.00     0.161 C 
ATOM      2  C   LIG d   1     -17.071  64.744 113.237  0.00  0.00     0.016 C 
ATOM      3  C   LIG d   1     -18.408  64.289 113.299  0.00  0.00     0.038 C 
ATOM      4  C   LIG d   1     -19.030  63.979 114.518  0.00  0.00     0.028 C 
ATOM      5  C   LIG d   1     -18.054  63.519 115.596  0.00  0.00    -0.047 C 
ATOM      6  C   LIG d   1     -16.908  64.550 115.709  0.00  0.00     0.091 C 
ENDROOT
BRANCH   1   7
ATOM      7  O   LIG d   1     -15.483  66.022 114.365  0.00  0.00    -0.368 OA
BRANCH   7   8
ATOM      8  C   LIG d   1     -16.282  67.231 114.392  0.00  0.00     0.119 C 
BRANCH   8   9
ATOM      9  C   LIG d   1     -15.905  68.063 113.151  0.00  0.00     0.028 C 
ATOM     10  C   LIG d   1     -14.418  68.455 113.137  0.00  0.00     0.006 C 
ENDBRANCH   8   9
BRANCH   8  11
ATOM     11  C   LIG d   1     -15.922  68.109 115.594  0.00  0.00     0.028 C 
ATOM     12  C   LIG d   1     -16.981  68.060 116.707  0.00  0.00     0.006 C 
ENDBRANCH   8  11
ENDBRANCH   7   8
ENDBRANCH   1   7
BRANCH   6  13
ATOM     13  N   LIG d   1     -15.866  64.134 116.683  0.00  0.00    -0.311 N 
ATOM     14  C   LIG d   1     -15.901  64.452 117.975  0.00  0.00     0.210 C 
ATOM     15  C   LIG d   1     -14.716  63.940 118.800  0.00  0.00     0.109 C 
ATOM     16  O   LIG d   1     -16.818  65.083 118.524  0.00  0.00    -0.276 OA
ATOM     17  H   LIG d   1     -15.101  63.593 116.329  0.00  0.00     0.149 HD
ENDBRANCH   6  13
BRANCH   5  18
ATOM     18  N   LIG d   1     -18.817  63.362 116.849  0.00  0.00     0.381 N 
ATOM     19  H   LIG d   1     -19.670  62.871 116.668  0.00  0.00    -0.090 HD
ATOM     20  H   LIG d   1     -19.047  64.273 117.206  0.00  0.00    -0.090 HD
ATOM     21  H   LIG d   1     -18.274  62.862 117.518  0.00  0.00    -0.090 HD
ENDBRANCH   5  18
BRANCH   3  22
ATOM     22  C   LIG d   1     -19.125  64.102 112.127  0.00  0.00     0.382 C 
ATOM     23  O   LIG d   1     -18.523  63.835 111.060  0.00  0.00    -0.241 OA
ATOM     24  O   LIG d   1     -20.363  64.242 112.115  0.00  0.00    -0.241 OA
ENDBRANCH   3  22
TORSDOF 7
ENDMDL
MODEL 3
REMARK VINA RESULT:      -5.2     21.528     25.259
REMARK  7 active torsions:
REMARK  status: ('A' for Active; 'I' for Inactive)
REMARK    1  A    between atoms: C_2  and  C_3 
REMARK    2  A    between atoms: C_3  and  O_6 
REMARK    3  A    between atoms: C_3  and  C_4 
REMARK    4  A    between atoms: C_7  and  O_6 
REMARK    5  A    between atoms: C_9  and  C_10 
REMARK    6  A    between atoms: N_15  and  C_14 
REMARK    7  A    between atoms: N_20  and  C_19 
REMARK       I    between atoms: C_22  and  N_20 
ROOT
ATOM      1  C   LIG d   1      -0.364  84.241 113.140  0.00  0.00     0.161 C 
ATOM      2  C   LIG d   1      -1.470  83.421 113.421  0.00  0.00     0.016 C 
ATOM      3  C   LIG d   1      -1.589  82.089 112.962  0.00  0.00     0.038 C 
ATOM      4  C   LIG d   1      -0.533  81.432 112.313  0.00  0.00     0.028 C 
ATOM      5  C   LIG d   1       0.403  82.378 111.567  0.00  0.00    -0.047 C 
ATOM      6  C   LIG d   1       0.846  83.505 112.528  0.00  0.00     0.091 C 
ENDROOT
BRANCH   1   7
ATOM      7  O   LIG d   1       0.031  84.953 114.329  0.00  0.00    -0.368 OA
BRANCH   7   8
ATOM      8  C   LIG d   1       0.977  84.276 115.192  0.00  0.00     0.119 C 
BRANCH   8   9
ATOM      9  C   LIG d   1       0.239  83.916 116.496  0.00  0.00     0.028 C 
ATOM     10  C   LIG d   1       1.010  84.362 117.749  0.00  0.00     0.006 C 
ENDBRANCH   8   9
BRANCH   8  11
ATOM     11  C   LIG d   1       2.114  85.212 115.615  0.00  0.00     0.028 C 
ATOM     12  C   LIG d   1       2.100  86.547 114.854  0.00  0.00     0.006 C 
ENDBRANCH   8  11
ENDBRANCH   7   8
ENDBRANCH   1   7
BRANCH   6  13
ATOM     13  N   LIG d   1       1.697  84.521 111.855  0.00  0.00    -0.311 N 
ATOM     14  C   LIG d   1       3.028  84.482 111.857  0.00  0.00     0.210 C 
ATOM     15  C   LIG d   1       3.711  85.638 111.121  0.00  0.00     0.109 C 
ATOM     16  O   LIG d   1       3.707  83.581 112.373  0.00  0.00    -0.276 OA
ATOM     17  H   LIG d   1       1.227  85.271 111.385  0.00  0.00     0.149 HD
ENDBRANCH   6  13
BRANCH   5  18
ATOM     18  N   LIG d   1       1.531  81.578 111.055  0.00  0.00     0.381 N 
ATOM     19  H   LIG d   1       2.201  82.178 110.618  0.00  0.00    -0.090 HD
ATOM     20  H   LIG d   1       1.186  80.934 110.365  0.00  0.00    -0.090 HD
ATOM     21  H   LIG d   1       1.960  81.077 111.802  0.00  0.00    -0.090 HD
ENDBRANCH   5  18
BRANCH   3  22
ATOM     22  C   LIG d   1      -2.789  81.413 113.116  0.00  0.00     0.382 C 
ATOM     23  O   LIG d   1      -3.854  81.921 112.688  0.00  0.00    -0.241 OA
ATOM     24  O   LIG d   1      -2.828  80.323 113.717  0.00  0.00    -0.241 OA
ENDBRANCH   3  22
TORSDOF 7
ENDMDL
MODEL 4
REMARK VINA RESULT:      -5.1     26.623     29.065
REMARK  7 active torsions:
REMARK  status: ('A' for Active; 'I' for Inactive)
REMARK    1  A    between atoms: C_2  and  C_3 
REMARK    2  A    between atoms: C_3  and  O_6 
REMARK    3  A    between atoms: C_3  and  C_4 
REMARK    4  A    between atoms: C_7  and  O_6 
REMARK    5  A    between atoms: C_9  and  C_10 
REMARK    6  A    between atoms: N_15  and  C_14 
REMARK    7  A    between atoms: N_20  and  C_19 
REMARK       I    between atoms: C_22  and  N_20 
ROOT
ATOM      1  C   LIG d   1       2.694  86.616 114.450  0.00  0.00     0.161 C 
ATOM      2  C   LIG d   1       2.927  87.979 114.200  0.00  0.00     0.016 C 
ATOM      3  C   LIG d   1       3.964  88.717 114.816  0.00  0.00     0.038 C 
ATOM      4  C   LIG d   1       4.938  88.100 115.615  0.00  0.00     0.028 C 
ATOM      5  C   LIG d   1       4.447  86.828 116.297  0.00  0.00    -0.047 C 
ATOM      6  C   LIG d   1       3.814  85.901 115.233  0.00  0.00     0.091 C 
ENDROOT
BRANCH   1   7
ATOM      7  O   LIG d   1       2.433  85.930 113.209  0.00  0.00    -0.368 OA
BRANCH   7   8
ATOM      8  C   LIG d   1       2.801  86.638 112.000  0.00  0.00     0.119 C 
BRANCH   8   9
ATOM      9  C   LIG d   1       1.556  86.683 111.093  0.00  0.00     0.028 C 
ATOM     10  C   LIG d   1       0.384  85.866 111.664  0.00  0.00     0.006 C 
ENDBRANCH   8   9
BRANCH   8  11
ATOM     11  C   LIG d   1       3.856  85.866 111.202  0.00  0.00     0.028 C 
ATOM     12  C   LIG d   1       3.861  84.362 111.519  0.00  0.00     0.006 C 
ENDBRANCH   8  11
ENDBRANCH   7   8
ENDBRANCH   1   7
BRANCH   6  13
ATOM     13  N   LIG d   1       3.232  84.670 115.828  0.00  0.00    -0.311 N 
ATOM     14  C   LIG d   1       3.934  83.560 116.048  0.00  0.00     0.210 C 
ATOM     15  C   LIG d   1       3.136  82.399 116.650  0.00  0.00     0.109 C 
ATOM     16  O   LIG d   1       5.149  83.436 115.831  0.00  0.00    -0.276 OA
ATOM     17  H   LIG d   1       2.259  84.693 116.063  0.00  0.00     0.149 HD
ENDBRANCH   6  13
BRANCH   5  18
ATOM     18  N   LIG d   1       5.600  86.216 116.984  0.00  0.00     0.381 N 
ATOM     19  H   LIG d   1       5.922  86.824 117.711  0.00  0.00    -0.090 HD
ATOM     20  H   LIG d   1       6.345  86.093 116.322  0.00  0.00    -0.090 HD
ATOM     21  H   LIG d   1       5.339  85.335 117.370  0.00  0.00    -0.090 HD
ENDBRANCH   5  18
BRANCH   3  22
ATOM     22  C   LIG d   1       4.010  90.094 114.667  0.00  0.00     0.382 C 
ATOM     23  O   LIG d   1       4.024  90.835 115.680  0.00  0.00    -0.241 OA
ATOM     24  O   LIG d   1       3.992  90.608 113.532  0.00  0.00    -0.241 OA
ENDBRANCH   3  22
TORSDOF 7
ENDMDL
MODEL 5
REMARK VINA RESULT:      -5.0     27.046     30.202
REMARK  7 active torsions:
REMARK  status: ('A' for Active; 'I' for Inactive)
REMARK    1  A    between atoms: C_2  and  C_3 
REMARK    2  A    between atoms: C_3  and  O_6 
REMARK    3  A    between atoms: C_3  and  C_4 
REMARK    4  A    between atoms: C_7  and  O_6 
REMARK    5  A    between atoms: C_9  and  C_10 
REMARK    6  A    between atoms: N_15  and  C_14 
REMARK    7  A    between atoms: N_20  and  C_19 
REMARK       I    between atoms: C_22  and  N_20 
ROOT
ATOM      1  C   LIG d   1       3.474  87.977 115.401  0.00  0.00     0.161 C 
ATOM      2  C   LIG d   1       2.802  87.388 114.317  0.00  0.00     0.016 C 
ATOM      3  C   LIG d   1       3.262  87.463 112.982  0.00  0.00     0.038 C 
ATOM      4  C   LIG d   1       4.514  88.008 112.659  0.00  0.00     0.028 C 
ATOM      5  C   LIG d   1       4.991  89.061 113.654  0.00  0.00    -0.047 C 
ATOM      6  C   LIG d   1       4.898  88.480 115.083  0.00  0.00     0.091 C 
ENDROOT
BRANCH   1   7
ATOM      7  O   LIG d   1       3.503  87.061 116.514  0.00  0.00    -0.368 OA
BRANCH   7   8
ATOM      8  C   LIG d   1       3.079  85.704 116.234  0.00  0.00     0.119 C 
BRANCH   8   9
ATOM      9  C   LIG d   1       2.196  85.243 117.410  0.00  0.00     0.028 C 
ATOM     10  C   LIG d   1       1.069  84.298 116.962  0.00  0.00     0.006 C 
ENDBRANCH   8   9
BRANCH   8  11
ATOM     11  C   LIG d   1       4.269  84.741 116.219  0.00  0.00     0.028 C 
ATOM     12  C   LIG d   1       5.040  84.724 117.548  0.00  0.00     0.006 C 
ENDBRANCH   8  11
ENDBRANCH   7   8
ENDBRANCH   1   7
BRANCH   6  13
ATOM     13  N   LIG d   1       5.266  89.474 116.125  0.00  0.00    -0.311 N 
ATOM     14  C   LIG d   1       4.644  90.642 116.276  0.00  0.00     0.210 C 
ATOM     15  C   LIG d   1       5.196  91.528 117.398  0.00  0.00     0.109 C 
ATOM     16  O   LIG d   1       3.668  91.015 115.609  0.00  0.00    -0.276 OA
ATOM     17  H   LIG d   1       6.028  89.239 116.731  0.00  0.00     0.149 HD
ENDBRANCH   6  13
BRANCH   5  18
ATOM     18  N   LIG d   1       6.364  89.443 113.274  0.00  0.00     0.381 N 
ATOM     19  H   LIG d   1       6.805  89.923 114.034  0.00  0.00    -0.090 HD
ATOM     20  H   LIG d   1       6.322  90.069 112.489  0.00  0.00    -0.090 HD
ATOM     21  H   LIG d   1       6.890  88.632 113.034  0.00  0.00    -0.090 HD
ENDBRANCH   5  18
BRANCH   3  22
ATOM     22  C   LIG d   1       2.448  87.025 111.949  0.00  0.00     0.382 C 
ATOM     23  O   LIG d   1       2.433  85.811 111.634  0.00  0.00    -0.241 OA
ATOM     24  O   LIG d   1       1.761  87.836 111.299  0.00  0.00    -0.241 OA
ENDBRANCH   3  22
TORSDOF 7
ENDMDL
MODEL 6
REMARK VINA RESULT:      -5.0     15.143     17.988
REMARK  7 active torsions:
REMARK  status: ('A' for Active; 'I' for Inactive)
REMARK    1  A    between atoms: C_2  and  C_3 
REMARK    2  A    between atoms: C_3  and  O_6 
REMARK    3  A    between atoms: C_3  and  C_4 
REMARK    4  A    between atoms: C_7  and  O_6 
REMARK    5  A    between atoms: C_9  and  C_10 
REMARK    6  A    between atoms: N_15  and  C_14 
REMARK    7  A    between atoms: N_20  and  C_19 
REMARK       I    between atoms: C_22  and  N_20 
ROOT
ATOM      1  C   LIG d   1      -2.866  75.776 115.552  0.00  0.00     0.161 C 
ATOM      2  C   LIG d   1      -2.776  74.919 116.661  0.00  0.00     0.016 C 
ATOM      3  C   LIG d   1      -1.831  75.087 117.700  0.00  0.00     0.038 C 
ATOM      4  C   LIG d   1      -1.007  76.220 117.776  0.00  0.00     0.028 C 
ATOM      5  C   LIG d   1      -0.714  76.848 116.417  0.00  0.00    -0.047 C 
ATOM      6  C   LIG d   1      -2.050  77.079 115.674  0.00  0.00     0.091 C 
ENDROOT
BRANCH   1   7
ATOM      7  O   LIG d   1      -4.249  76.075 115.277  0.00  0.00    -0.368 OA
BRANCH   7   8
ATOM      8  C   LIG d   1      -5.219  75.123 115.780  0.00  0.00     0.119 C 
BRANCH   8   9
ATOM      9  C   LIG d   1      -5.907  74.476 114.562  0.00  0.00     0.028 C 
ATOM     10  C   LIG d   1      -5.432  75.081 113.230  0.00  0.00     0.006 C 
ENDBRANCH   8   9
BRANCH   8  11
ATOM     11  C   LIG d   1      -6.340  75.824 116.553  0.00  0.00     0.028 C 
ATOM     12  C   LIG d   1      -5.820  76.634 117.752  0.00  0.00     0.006 C 
ENDBRANCH   8  11
ENDBRANCH   7   8
ENDBRANCH   1   7
BRANCH   6  13
ATOM     13  N   LIG d   1      -1.849  77.614 114.301  0.00  0.00    -0.311 N 
ATOM     14  C   LIG d   1      -2.400  78.747 113.868  0.00  0.00     0.210 C 
ATOM     15  C   LIG d   1      -2.080  79.106 112.414  0.00  0.00     0.109 C 
ATOM     16  O   LIG d   1      -3.096  79.505 114.560  0.00  0.00    -0.276 OA
ATOM     17  H   LIG d   1      -1.272  77.078 113.683  0.00  0.00     0.149 HD
ENDBRANCH   6  13
BRANCH   5  18
ATOM     18  N   LIG d   1       0.038  78.094 116.655  0.00  0.00     0.381 N 
ATOM     19  H   LIG d   1      -0.245  78.792 115.997  0.00  0.00    -0.090 HD
ATOM     20  H   LIG d   1       1.017  77.913 116.521  0.00  0.00    -0.090 HD
ATOM     21  H   LIG d   1      -0.123  78.418 117.584  0.00  0.00    -0.090 HD
ENDBRANCH   5  18
BRANCH   3  22
ATOM     22  C   LIG d   1      -1.677  74.095 118.656  0.00  0.00     0.382 C 
ATOM     23  O   LIG d   1      -0.580  73.962 119.250  0.00  0.00    -0.241 OA
ATOM     24  O   LIG d   1      -2.607  73.304 118.901  0.00  0.00    -0.241 OA
ENDBRANCH   3  22
TORSDOF 7
ENDMDL
MODEL 7
REMARK VINA RESULT:      -4.9     26.908     29.803
REMARK  7 active torsions:
REMARK  status: ('A' for Active; 'I' for Inactive)
REMARK    1  A    between atoms: C_2  and  C_3 
REMARK    2  A    between atoms: C_3  and  O_6 
REMARK    3  A    between atoms: C_3  and  C_4 
REMARK    4  A    between atoms: C_7  and  O_6 
REMARK    5  A    between atoms: C_9  and  C_10 
REMARK    6  A    between atoms: N_15  and  C_14 
REMARK    7  A    between atoms: N_20  and  C_19 
REMARK       I    between atoms: C_22  and  N_20 
ROOT
ATOM      1  C   LIG d   1       3.266  87.338 115.927  0.00  0.00     0.161 C 
ATOM      2  C   LIG d   1       3.335  88.129 117.085  0.00  0.00     0.016 C 
ATOM      3  C   LIG d   1       3.675  89.502 117.072  0.00  0.00     0.038 C 
ATOM      4  C   LIG d   1       3.823  90.217 115.874  0.00  0.00     0.028 C 
ATOM      5  C   LIG d   1       4.258  89.348 114.699  0.00  0.00    -0.047 C 
ATOM      6  C   LIG d   1       3.315  88.127 114.601  0.00  0.00     0.091 C 
ENDROOT
BRANCH   1   7
ATOM      7  O   LIG d   1       2.089  86.507 115.972  0.00  0.00    -0.368 OA
BRANCH   7   8
ATOM      8  C   LIG d   1       2.315  85.096 116.209  0.00  0.00     0.119 C 
BRANCH   8   9
ATOM      9  C   LIG d   1       1.916  84.341 114.926  0.00  0.00     0.028 C 
ATOM     10  C   LIG d   1       0.745  85.013 114.190  0.00  0.00     0.006 C 
ENDBRANCH   8   9
BRANCH   8  11
ATOM     11  C   LIG d   1       1.384  84.559 117.301  0.00  0.00     0.028 C 
ATOM     12  C   LIG d   1       1.794  85.014 118.710  0.00  0.00     0.006 C 
ENDBRANCH   8  11
ENDBRANCH   7   8
ENDBRANCH   1   7
BRANCH   6  13
ATOM     13  N   LIG d   1       3.722  87.181 113.530  0.00  0.00    -0.311 N 
ATOM     14  C   LIG d   1       3.206  87.199 112.302  0.00  0.00     0.210 C 
ATOM     15  C   LIG d   1       3.750  86.124 111.356  0.00  0.00     0.109 C 
ATOM     16  O   LIG d   1       2.373  88.023 111.896  0.00  0.00    -0.276 OA
ATOM     17  H   LIG d   1       4.416  86.498 113.763  0.00  0.00     0.149 HD
ENDBRANCH   6  13
BRANCH   5  18
ATOM     18  N   LIG d   1       4.239  90.192 113.489  0.00  0.00     0.381 N 
ATOM     19  H   LIG d   1       4.987  90.855 113.527  0.00  0.00    -0.090 HD
ATOM     20  H   LIG d   1       3.371  90.697 113.459  0.00  0.00    -0.090 HD
ATOM     21  H   LIG d   1       4.330  89.624 112.676  0.00  0.00    -0.090 HD
ENDBRANCH   5  18
BRANCH   3  22
ATOM     22  C   LIG d   1       3.911  90.163 118.267  0.00  0.00     0.382 C 
ATOM     23  O   LIG d   1       4.767  91.079 118.319  0.00  0.00    -0.241 OA
ATOM     24  O   LIG d   1       3.309  89.826 119.305  0.00  0.00    -0.241 OA
ENDBRANCH   3  22
TORSDOF 7
ENDMDL
MODEL 8
REMARK VINA RESULT:      -4.8     20.099     23.507
REMARK  7 active torsions:
REMARK  status: ('A' for Active; 'I' for Inactive)
REMARK    1  A    between atoms: C_2  and  C_3 
REMARK    2  A    between atoms: C_3  and  O_6 
REMARK    3  A    between atoms: C_3  and  C_4 
REMARK    4  A    between atoms: C_7  and  O_6 
REMARK    5  A    between atoms: C_9  and  C_10 
REMARK    6  A    between atoms: N_15  and  C_14 
REMARK    7  A    between atoms: N_20  and  C_19 
REMARK       I    between atoms: C_22  and  N_20 
ROOT
ATOM      1  C   LIG d   1       0.939  81.030 114.168  0.00  0.00     0.161 C 
ATOM      2  C   LIG d   1       1.781  81.936 113.502  0.00  0.00     0.016 C 
ATOM      3  C   LIG d   1       1.653  82.253 112.131  0.00  0.00     0.038 C 
ATOM      4  C   LIG d   1       0.573  81.796 111.361  0.00  0.00     0.028 C 
ATOM      5  C   LIG d   1      -0.013  80.480 111.861  0.00  0.00    -0.047 C 
ATOM      6  C   LIG d   1      -0.314  80.607 113.372  0.00  0.00     0.091 C 
ENDROOT
BRANCH   1   7
ATOM      7  O   LIG d   1       0.559  81.567 115.451  0.00  0.00    -0.368 OA
BRANCH   7   8
ATOM      8  C   LIG d   1       0.504  83.012 115.546  0.00  0.00     0.119 C 
BRANCH   8   9
ATOM      9  C   LIG d   1       0.909  83.397 116.982  0.00  0.00     0.028 C 
ATOM     10  C   LIG d   1      -0.308  83.582 117.905  0.00  0.00     0.006 C 
ENDBRANCH   8   9
BRANCH   8  11
ATOM     11  C   LIG d   1      -0.928  83.527 115.376  0.00  0.00     0.028 C 
ATOM     12  C   LIG d   1      -1.124  84.323 114.076  0.00  0.00     0.006 C 
ENDBRANCH   8  11
ENDBRANCH   7   8
ENDBRANCH   1   7
BRANCH   6  13
ATOM     13  N   LIG d   1      -0.811  79.335 113.960  0.00  0.00    -0.311 N 
ATOM     14  C   LIG d   1      -2.104  79.057 114.118  0.00  0.00     0.210 C 
ATOM     15  C   LIG d   1      -2.400  77.699 114.762  0.00  0.00     0.109 C 
ATOM     16  O   LIG d   1      -3.035  79.793 113.756  0.00  0.00    -0.276 OA
ATOM     17  H   LIG d   1      -0.125  78.668 114.252  0.00  0.00     0.149 HD
ENDBRANCH   6  13
BRANCH   5  18
ATOM     18  N   LIG d   1      -1.214  80.192 111.055  0.00  0.00     0.381 N 
ATOM     19  H   LIG d   1      -1.971  79.931 111.655  0.00  0.00    -0.090 HD
ATOM     20  H   LIG d   1      -1.017  79.420 110.443  0.00  0.00    -0.090 HD
ATOM     21  H   LIG d   1      -1.466  80.994 110.520  0.00  0.00    -0.090 HD
ENDBRANCH   5  18
BRANCH   3  22
ATOM     22  C   LIG d   1       2.637  83.004 111.504  0.00  0.00     0.382 C 
ATOM     23  O   LIG d   1       2.364  84.143 111.055  0.00  0.00    -0.241 OA
ATOM     24  O   LIG d   1       3.781  82.538 111.344  0.00  0.00    -0.241 OA
ENDBRANCH   3  22
TORSDOF 7
ENDMDL
MODEL 9
REMARK VINA RESULT:      -4.7     25.314     27.800
REMARK  7 active torsions:
REMARK  status: ('A' for Active; 'I' for Inactive)
REMARK    1  A    between atoms: C_2  and  C_3 
REMARK    2  A    between atoms: C_3  and  O_6 
REMARK    3  A    between atoms: C_3  and  C_4 
REMARK    4  A    between atoms: C_7  and  O_6 
REMARK    5  A    between atoms: C_9  and  C_10 
REMARK    6  A    between atoms: N_15  and  C_14 
REMARK    7  A    between atoms: N_20  and  C_19 
REMARK       I    between atoms: C_22  and  N_20 
ROOT
ATOM      1  C   LIG d   1       1.882  86.515 114.373  0.00  0.00     0.161 C 
ATOM      2  C   LIG d   1       0.747  85.907 113.811  0.00  0.00     0.016 C 
ATOM      3  C   LIG d   1       0.686  85.462 112.471  0.00  0.00     0.038 C 
ATOM      4  C   LIG d   1       1.815  85.457 111.639  0.00  0.00     0.028 C 
ATOM      5  C   LIG d   1       2.841  86.524 112.005  0.00  0.00    -0.047 C 
ATOM      6  C   LIG d   1       3.160  86.418 113.514  0.00  0.00     0.091 C 
ENDROOT
BRANCH   1   7
ATOM      7  O   LIG d   1       2.121  85.980 115.690  0.00  0.00    -0.368 OA
BRANCH   7   8
ATOM      8  C   LIG d   1       1.663  84.625 115.920  0.00  0.00     0.119 C 
BRANCH   8   9
ATOM      9  C   LIG d   1       1.283  84.512 117.409  0.00  0.00     0.028 C 
ATOM     10  C   LIG d   1      -0.013  83.712 117.625  0.00  0.00     0.006 C 
ENDBRANCH   8   9
BRANCH   8  11
ATOM     11  C   LIG d   1       2.792  83.612 115.712  0.00  0.00     0.028 C 
ATOM     12  C   LIG d   1       2.548  82.686 114.510  0.00  0.00     0.006 C 
ENDBRANCH   8  11
ENDBRANCH   7   8
ENDBRANCH   1   7
BRANCH   6  13
ATOM     13  N   LIG d   1       4.092  87.480 113.973  0.00  0.00    -0.311 N 
ATOM     14  C   LIG d   1       3.951  88.766 113.658  0.00  0.00     0.210 C 
ATOM     15  C   LIG d   1       5.035  89.692 114.218  0.00  0.00     0.109 C 
ATOM     16  O   LIG d   1       3.013  89.233 112.994  0.00  0.00    -0.276 OA
ATOM     17  H   LIG d   1       4.864  87.194 114.543  0.00  0.00     0.149 HD
ENDBRANCH   6  13
BRANCH   5  18
ATOM     18  N   LIG d   1       4.025  86.318 111.149  0.00  0.00     0.381 N 
ATOM     19  H   LIG d   1       4.396  85.401 111.299  0.00  0.00    -0.090 HD
ATOM     20  H   LIG d   1       4.729  86.988 111.400  0.00  0.00    -0.090 HD
ATOM     21  H   LIG d   1       3.776  86.430 110.190  0.00  0.00    -0.090 HD
ENDBRANCH   5  18
BRANCH   3  22
ATOM     22  C   LIG d   1      -0.526  85.051 111.937  0.00  0.00     0.382 C 
ATOM     23  O   LIG d   1      -1.383  85.903 111.597  0.00  0.00    -0.241 OA
ATOM     24  O   LIG d   1      -0.793  83.839 111.834  0.00  0.00    -0.241 OA
ENDBRANCH   3  22
TORSDOF 7
ENDMDL
