MODEL 1
REMARK VINA RESULT:      -5.3      0.000      0.000
REMARK  7 active torsions:
REMARK  status: ('A' for Active; 'I' for Inactive)
REMARK    1  A    between atoms: C_2  and  C_3 
REMARK    2  A    between atoms: C_3  and  O_6 
REMARK    3  A    between atoms: C_3  and  C_4 
REMARK    4  A    between atoms: C_7  and  O_6 
REMARK    5  A    between atoms: C_9  and  C_10 
REMARK    6  A    between atoms: N_15  and  C_14 
REMARK    7  A    between atoms: N_20  and  C_19 
REMARK       I    between atoms: C_22  and  N_20 
ROOT
ATOM      1  C   LIG d   1      -5.182  91.106 116.492  0.00  0.00     0.161 C 
ATOM      2  C   LIG d   1      -4.144  90.176 116.675  0.00  0.00     0.016 C 
ATOM      3  C   LIG d   1      -3.132  90.321 117.650  0.00  0.00     0.038 C 
ATOM      4  C   LIG d   1      -3.174  91.336 118.617  0.00  0.00     0.028 C 
ATOM      5  C   LIG d   1      -3.923  92.582 118.155  0.00  0.00    -0.047 C 
ATOM      6  C   LIG d   1      -5.307  92.162 117.610  0.00  0.00     0.091 C 
ENDROOT
BRANCH   1   7
ATOM      7  O   LIG d   1      -6.433  90.413 116.315  0.00  0.00    -0.368 OA
BRANCH   7   8
ATOM      8  C   LIG d   1      -6.779  90.061 114.953  0.00  0.00     0.119 C 
BRANCH   8   9
ATOM      9  C   LIG d   1      -6.456  91.277 114.063  0.00  0.00     0.028 C 
ATOM     10  C   LIG d   1      -7.605  92.298 114.026  0.00  0.00     0.006 C 
ENDBRANCH   8   9
BRANCH   8  11
ATOM     11  C   LIG d   1      -8.286  89.836 114.800  0.00  0.00     0.028 C 
ATOM     12  C   LIG d   1      -8.880  88.988 115.936  0.00  0.00     0.006 C 
ENDBRANCH   8  11
ENDBRANCH   7   8
ENDBRANCH   1   7
BRANCH   6  13
ATOM     13  N   LIG d   1      -6.072  93.311 117.060  0.00  0.00    -0.311 N 
ATOM     14  C   LIG d   1      -6.945  94.020 117.773  0.00  0.00     0.210 C 
ATOM     15  C   LIG d   1      -7.639  95.150 117.007  0.00  0.00     0.109 C 
ATOM     16  O   LIG d   1      -7.186  93.841 118.976  0.00  0.00    -0.276 OA
ATOM     17  H   LIG d   1      -5.914  93.546 116.099  0.00  0.00     0.149 HD
ENDBRANCH   6  13
BRANCH   5  18
ATOM     18  N   LIG d   1      -4.009  93.502 119.305  0.00  0.00     0.381 N 
ATOM     19  H   LIG d   1      -4.511  94.327 119.042  0.00  0.00    -0.090 HD
ATOM     20  H   LIG d   1      -3.080  93.772 119.576  0.00  0.00    -0.090 HD
ATOM     21  H   LIG d   1      -4.468  93.054 120.067  0.00  0.00    -0.090 HD
ENDBRANCH   5  18
BRANCH   3  22
ATOM     22  C   LIG d   1      -2.040  89.466 117.640  0.00  0.00     0.382 C 
ATOM     23  O   LIG d   1      -2.090  88.377 118.262  0.00  0.00    -0.241 OA
ATOM     24  O   LIG d   1      -0.990  89.790 117.054  0.00  0.00    -0.241 OA
ENDBRANCH   3  22
TORSDOF 7
ENDMDL
MODEL 2
REMARK VINA RESULT:      -5.2     13.886     16.126
REMARK  7 active torsions:
REMARK  status: ('A' for Active; 'I' for Inactive)
REMARK    1  A    between atoms: C_2  and  C_3 
REMARK    2  A    between atoms: C_3  and  O_6 
REMARK    3  A    between atoms: C_3  and  C_4 
REMARK    4  A    between atoms: C_7  and  O_6 
REMARK    5  A    between atoms: C_9  and  C_10 
REMARK    6  A    between atoms: N_15  and  C_14 
REMARK    7  A    between atoms: N_20  and  C_19 
REMARK       I    between atoms: C_22  and  N_20 
ROOT
ATOM      1  C   LIG d   1      -2.573  76.807 116.705  0.00  0.00     0.161 C 
ATOM      2  C   LIG d   1      -2.949  77.665 115.657  0.00  0.00     0.016 C 
ATOM      3  C   LIG d   1      -2.177  77.850 114.487  0.00  0.00     0.038 C 
ATOM      4  C   LIG d   1      -1.044  77.069 114.216  0.00  0.00     0.028 C 
ATOM      5  C   LIG d   1      -0.349  76.552 115.472  0.00  0.00    -0.047 C 
ATOM      6  C   LIG d   1      -1.396  75.864 116.377  0.00  0.00     0.091 C 
ENDROOT
BRANCH   1   7
ATOM      7  O   LIG d   1      -3.715  76.049 117.149  0.00  0.00    -0.368 OA
BRANCH   7   8
ATOM      8  C   LIG d   1      -4.895  76.125 116.312  0.00  0.00     0.119 C 
BRANCH   8   9
ATOM      9  C   LIG d   1      -6.104  76.362 117.238  0.00  0.00     0.028 C 
ATOM     10  C   LIG d   1      -7.444  76.080 116.537  0.00  0.00     0.006 C 
ENDBRANCH   8   9
BRANCH   8  11
ATOM     11  C   LIG d   1      -5.173  74.789 115.616  0.00  0.00     0.028 C 
ATOM     12  C   LIG d   1      -4.789  74.801 114.128  0.00  0.00     0.006 C 
ENDBRANCH   8  11
ENDBRANCH   7   8
ENDBRANCH   1   7
BRANCH   6  13
ATOM     13  N   LIG d   1      -0.817  75.404 117.666  0.00  0.00    -0.311 N 
ATOM     14  C   LIG d   1      -0.285  74.195 117.840  0.00  0.00     0.210 C 
ATOM     15  C   LIG d   1       0.238  73.917 119.253  0.00  0.00     0.109 C 
ATOM     16  O   LIG d   1      -0.168  73.338 116.951  0.00  0.00    -0.276 OA
ATOM     17  H   LIG d   1      -0.842  76.047 118.433  0.00  0.00     0.149 HD
ENDBRANCH   6  13
BRANCH   5  18
ATOM     18  N   LIG d   1       0.730  75.643 115.042  0.00  0.00     0.381 N 
ATOM     19  H   LIG d   1       1.525  75.754 115.639  0.00  0.00    -0.090 HD
ATOM     20  H   LIG d   1       1.003  75.883 114.105  0.00  0.00    -0.090 HD
ATOM     21  H   LIG d   1       0.413  74.699 115.072  0.00  0.00    -0.090 HD
ENDBRANCH   5  18
BRANCH   3  22
ATOM     22  C   LIG d   1      -2.515  78.853 113.592  0.00  0.00     0.382 C 
ATOM     23  O   LIG d   1      -3.234  78.590 112.598  0.00  0.00    -0.241 OA
ATOM     24  O   LIG d   1      -2.074  80.008 113.742  0.00  0.00    -0.241 OA
ENDBRANCH   3  22
TORSDOF 7
ENDMDL
MODEL 3
REMARK VINA RESULT:      -5.0     14.818     16.243
REMARK  7 active torsions:
REMARK  status: ('A' for Active; 'I' for Inactive)
REMARK    1  A    between atoms: C_2  and  C_3 
REMARK    2  A    between atoms: C_3  and  O_6 
REMARK    3  A    between atoms: C_3  and  C_4 
REMARK    4  A    between atoms: C_7  and  O_6 
REMARK    5  A    between atoms: C_9  and  C_10 
REMARK    6  A    between atoms: N_15  and  C_14 
REMARK    7  A    between atoms: N_20  and  C_19 
REMARK       I    between atoms: C_22  and  N_20 
ROOT
ATOM      1  C   LIG d   1      -2.437  75.611 116.013  0.00  0.00     0.161 C 
ATOM      2  C   LIG d   1      -1.751  74.694 116.827  0.00  0.00     0.016 C 
ATOM      3  C   LIG d   1      -0.464  74.937 117.359  0.00  0.00     0.038 C 
ATOM      4  C   LIG d   1       0.165  76.185 117.237  0.00  0.00     0.028 C 
ATOM      5  C   LIG d   1      -0.269  76.964 116.000  0.00  0.00    -0.047 C 
ATOM      6  C   LIG d   1      -1.813  77.022 115.960  0.00  0.00     0.091 C 
ENDROOT
BRANCH   1   7
ATOM      7  O   LIG d   1      -3.817  75.689 116.420  0.00  0.00    -0.368 OA
BRANCH   7   8
ATOM      8  C   LIG d   1      -4.695  74.662 115.896  0.00  0.00     0.119 C 
BRANCH   8   9
ATOM      9  C   LIG d   1      -4.714  74.808 114.362  0.00  0.00     0.028 C 
ATOM     10  C   LIG d   1      -5.557  76.007 113.897  0.00  0.00     0.006 C 
ENDBRANCH   8   9
BRANCH   8  11
ATOM     11  C   LIG d   1      -6.143  74.885 116.342  0.00  0.00     0.028 C 
ATOM     12  C   LIG d   1      -6.812  73.601 116.858  0.00  0.00     0.006 C 
ENDBRANCH   8  11
ENDBRANCH   7   8
ENDBRANCH   1   7
BRANCH   6  13
ATOM     13  N   LIG d   1      -2.324  77.694 114.737  0.00  0.00    -0.311 N 
ATOM     14  C   LIG d   1      -1.987  77.324 113.502  0.00  0.00     0.210 C 
ATOM     15  C   LIG d   1      -2.611  78.164 112.383  0.00  0.00     0.109 C 
ATOM     16  O   LIG d   1      -1.256  76.361 113.227  0.00  0.00    -0.276 OA
ATOM     17  H   LIG d   1      -2.948  78.466 114.867  0.00  0.00     0.149 HD
ENDBRANCH   6  13
BRANCH   5  18
ATOM     18  N   LIG d   1       0.358  78.297 116.070  0.00  0.00     0.381 N 
ATOM     19  H   LIG d   1       1.226  78.290 115.573  0.00  0.00    -0.090 HD
ATOM     20  H   LIG d   1       0.547  78.518 117.032  0.00  0.00    -0.090 HD
ATOM     21  H   LIG d   1      -0.252  78.982 115.678  0.00  0.00    -0.090 HD
ENDBRANCH   5  18
BRANCH   3  22
ATOM     22  C   LIG d   1       0.224  73.912 117.990  0.00  0.00     0.382 C 
ATOM     23  O   LIG d   1       1.406  74.090 118.369  0.00  0.00    -0.241 OA
ATOM     24  O   LIG d   1      -0.308  72.796 118.144  0.00  0.00    -0.241 OA
ENDBRANCH   3  22
TORSDOF 7
ENDMDL
MODEL 4
REMARK VINA RESULT:      -5.0     10.430     12.013
REMARK  7 active torsions:
REMARK  status: ('A' for Active; 'I' for Inactive)
REMARK    1  A    between atoms: C_2  and  C_3 
REMARK    2  A    between atoms: C_3  and  O_6 
REMARK    3  A    between atoms: C_3  and  C_4 
REMARK    4  A    between atoms: C_7  and  O_6 
REMARK    5  A    between atoms: C_9  and  C_10 
REMARK    6  A    between atoms: N_15  and  C_14 
REMARK    7  A    between atoms: N_20  and  C_19 
REMARK       I    between atoms: C_22  and  N_20 
ROOT
ATOM      1  C   LIG d   1       2.754  84.413 113.285  0.00  0.00     0.161 C 
ATOM      2  C   LIG d   1       3.051  85.727 112.884  0.00  0.00     0.016 C 
ATOM      3  C   LIG d   1       3.627  86.691 113.742  0.00  0.00     0.038 C 
ATOM      4  C   LIG d   1       4.087  86.361 115.025  0.00  0.00     0.028 C 
ATOM      5  C   LIG d   1       3.350  85.181 115.648  0.00  0.00    -0.047 C 
ATOM      6  C   LIG d   1       3.351  84.003 114.647  0.00  0.00     0.091 C 
ENDROOT
BRANCH   1   7
ATOM      7  O   LIG d   1       3.160  83.486 112.260  0.00  0.00    -0.368 OA
BRANCH   7   8
ATOM      8  C   LIG d   1       2.097  82.925 111.450  0.00  0.00     0.119 C 
BRANCH   8   9
ATOM      9  C   LIG d   1       0.759  83.383 112.061  0.00  0.00     0.028 C 
ATOM     10  C   LIG d   1      -0.109  84.162 111.059  0.00  0.00     0.006 C 
ENDBRANCH   8   9
BRANCH   8  11
ATOM     11  C   LIG d   1       2.080  81.396 111.533  0.00  0.00     0.028 C 
ATOM     12  C   LIG d   1       0.931  80.860 112.402  0.00  0.00     0.006 C 
ENDBRANCH   8  11
ENDBRANCH   7   8
ENDBRANCH   1   7
BRANCH   6  13
ATOM     13  N   LIG d   1       2.577  82.835 115.144  0.00  0.00    -0.311 N 
ATOM     14  C   LIG d   1       3.142  81.761 115.693  0.00  0.00     0.210 C 
ATOM     15  C   LIG d   1       2.163  80.663 116.120  0.00  0.00     0.109 C 
ATOM     16  O   LIG d   1       4.358  81.627 115.896  0.00  0.00    -0.276 OA
ATOM     17  H   LIG d   1       1.581  82.874 115.047  0.00  0.00     0.149 HD
ENDBRANCH   6  13
BRANCH   5  18
ATOM     18  N   LIG d   1       4.021  84.858 116.922  0.00  0.00     0.381 N 
ATOM     19  H   LIG d   1       4.998  84.712 116.762  0.00  0.00    -0.090 HD
ATOM     20  H   LIG d   1       3.631  84.007 117.288  0.00  0.00    -0.090 HD
ATOM     21  H   LIG d   1       3.890  85.600 117.574  0.00  0.00    -0.090 HD
ENDBRANCH   5  18
BRANCH   3  22
ATOM     22  C   LIG d   1       3.710  88.013 113.332  0.00  0.00     0.382 C 
ATOM     23  O   LIG d   1       2.671  88.712 113.253  0.00  0.00    -0.241 OA
ATOM     24  O   LIG d   1       4.806  88.503 112.998  0.00  0.00    -0.241 OA
ENDBRANCH   3  22
TORSDOF 7
ENDMDL
MODEL 5
REMARK VINA RESULT:      -4.8      8.576     11.318
REMARK  7 active torsions:
REMARK  status: ('A' for Active; 'I' for Inactive)
REMARK    1  A    between atoms: C_2  and  C_3 
REMARK    2  A    between atoms: C_3  and  O_6 
REMARK    3  A    between atoms: C_3  and  C_4 
REMARK    4  A    between atoms: C_7  and  O_6 
REMARK    5  A    between atoms: C_9  and  C_10 
REMARK    6  A    between atoms: N_15  and  C_14 
REMARK    7  A    between atoms: N_20  and  C_19 
REMARK       I    between atoms: C_22  and  N_20 
ROOT
ATOM      1  C   LIG d   1       2.814  85.490 114.636  0.00  0.00     0.161 C 
ATOM      2  C   LIG d   1       3.534  86.693 114.557  0.00  0.00     0.016 C 
ATOM      3  C   LIG d   1       3.507  87.543 113.428  0.00  0.00     0.038 C 
ATOM      4  C   LIG d   1       2.634  87.321 112.353  0.00  0.00     0.028 C 
ATOM      5  C   LIG d   1       2.263  85.853 112.168  0.00  0.00    -0.047 C 
ATOM      6  C   LIG d   1       1.769  85.286 113.519  0.00  0.00     0.091 C 
ENDROOT
BRANCH   1   7
ATOM      7  O   LIG d   1       2.190  85.378 115.931  0.00  0.00    -0.368 OA
BRANCH   7   8
ATOM      8  C   LIG d   1       2.243  86.559 116.768  0.00  0.00     0.119 C 
BRANCH   8   9
ATOM      9  C   LIG d   1       2.639  86.104 118.186  0.00  0.00     0.028 C 
ATOM     10  C   LIG d   1       4.136  86.312 118.472  0.00  0.00     0.006 C 
ENDBRANCH   8   9
BRANCH   8  11
ATOM     11  C   LIG d   1       0.859  87.197 116.919  0.00  0.00     0.028 C 
ATOM     12  C   LIG d   1       0.917  88.729 117.022  0.00  0.00     0.006 C 
ENDBRANCH   8  11
ENDBRANCH   7   8
ENDBRANCH   1   7
BRANCH   6  13
ATOM     13  N   LIG d   1       1.465  83.833 113.446  0.00  0.00    -0.311 N 
ATOM     14  C   LIG d   1       2.205  82.963 112.763  0.00  0.00     0.210 C 
ATOM     15  C   LIG d   1       1.704  81.516 112.803  0.00  0.00     0.109 C 
ATOM     16  O   LIG d   1       3.248  83.245 112.153  0.00  0.00    -0.276 OA
ATOM     17  H   LIG d   1       0.654  83.512 113.938  0.00  0.00     0.149 HD
ENDBRANCH   6  13
BRANCH   5  18
ATOM     18  N   LIG d   1       1.243  85.782 111.104  0.00  0.00     0.381 N 
ATOM     19  H   LIG d   1       0.890  84.849 111.035  0.00  0.00    -0.090 HD
ATOM     20  H   LIG d   1       1.671  86.022 110.227  0.00  0.00    -0.090 HD
ATOM     21  H   LIG d   1       0.498  86.413 111.303  0.00  0.00    -0.090 HD
ENDBRANCH   5  18
BRANCH   3  22
ATOM     22  C   LIG d   1       4.391  88.609 113.349  0.00  0.00     0.382 C 
ATOM     23  O   LIG d   1       4.039  89.745 113.748  0.00  0.00    -0.241 OA
ATOM     24  O   LIG d   1       5.518  88.459 112.842  0.00  0.00    -0.241 OA
ENDBRANCH   3  22
TORSDOF 7
ENDMDL
MODEL 6
REMARK VINA RESULT:      -4.7     19.752     22.761
REMARK  7 active torsions:
REMARK  status: ('A' for Active; 'I' for Inactive)
REMARK    1  A    between atoms: C_2  and  C_3 
REMARK    2  A    between atoms: C_3  and  O_6 
REMARK    3  A    between atoms: C_3  and  C_4 
REMARK    4  A    between atoms: C_7  and  O_6 
REMARK    5  A    between atoms: C_9  and  C_10 
REMARK    6  A    between atoms: N_15  and  C_14 
REMARK    7  A    between atoms: N_20  and  C_19 
REMARK       I    between atoms: C_22  and  N_20 
ROOT
ATOM      1  C   LIG d   1      11.920  78.639 113.776  0.00  0.00     0.161 C 
ATOM      2  C   LIG d   1      10.566  78.890 114.052  0.00  0.00     0.016 C 
ATOM      3  C   LIG d   1       9.683  77.912 114.565  0.00  0.00     0.038 C 
ATOM      4  C   LIG d   1      10.134  76.650 114.980  0.00  0.00     0.028 C 
ATOM      5  C   LIG d   1      11.389  76.185 114.251  0.00  0.00    -0.047 C 
ATOM      6  C   LIG d   1      12.456  77.301 114.327  0.00  0.00     0.091 C 
ENDROOT
BRANCH   1   7
ATOM      7  O   LIG d   1      12.727  79.736 114.250  0.00  0.00    -0.368 OA
BRANCH   7   8
ATOM      8  C   LIG d   1      13.142  79.668 115.637  0.00  0.00     0.119 C 
BRANCH   8   9
ATOM      9  C   LIG d   1      12.530  80.882 116.363  0.00  0.00     0.028 C 
ATOM     10  C   LIG d   1      11.314  80.499 117.224  0.00  0.00     0.006 C 
ENDBRANCH   8   9
BRANCH   8  11
ATOM     11  C   LIG d   1      14.658  79.836 115.773  0.00  0.00     0.028 C 
ATOM     12  C   LIG d   1      15.344  80.162 114.437  0.00  0.00     0.006 C 
ENDBRANCH   8  11
ENDBRANCH   7   8
ENDBRANCH   1   7
BRANCH   6  13
ATOM     13  N   LIG d   1      13.687  76.962 113.566  0.00  0.00    -0.311 N 
ATOM     14  C   LIG d   1      14.784  76.461 114.132  0.00  0.00     0.210 C 
ATOM     15  C   LIG d   1      15.947  76.201 113.169  0.00  0.00     0.109 C 
ATOM     16  O   LIG d   1      14.893  76.176 115.334  0.00  0.00    -0.276 OA
ATOM     17  H   LIG d   1      13.675  77.132 112.579  0.00  0.00     0.149 HD
ENDBRANCH   6  13
BRANCH   5  18
ATOM     18  N   LIG d   1      11.827  74.923 114.877  0.00  0.00     0.381 N 
ATOM     19  H   LIG d   1      11.042  74.461 115.291  0.00  0.00    -0.090 HD
ATOM     20  H   LIG d   1      12.489  75.133 115.603  0.00  0.00    -0.090 HD
ATOM     21  H   LIG d   1      12.248  74.332 114.194  0.00  0.00    -0.090 HD
ENDBRANCH   5  18
BRANCH   3  22
ATOM     22  C   LIG d   1       8.324  78.180 114.628  0.00  0.00     0.382 C 
ATOM     23  O   LIG d   1       7.495  77.293 114.312  0.00  0.00    -0.241 OA
ATOM     24  O   LIG d   1       7.917  79.311 114.955  0.00  0.00    -0.241 OA
ENDBRANCH   3  22
TORSDOF 7
ENDMDL
MODEL 7
REMARK VINA RESULT:      -4.5     19.173     22.172
REMARK  7 active torsions:
REMARK  status: ('A' for Active; 'I' for Inactive)
REMARK    1  A    between atoms: C_2  and  C_3 
REMARK    2  A    between atoms: C_3  and  O_6 
REMARK    3  A    between atoms: C_3  and  C_4 
REMARK    4  A    between atoms: C_7  and  O_6 
REMARK    5  A    between atoms: C_9  and  C_10 
REMARK    6  A    between atoms: N_15  and  C_14 
REMARK    7  A    between atoms: N_20  and  C_19 
REMARK       I    between atoms: C_22  and  N_20 
ROOT
ATOM      1  C   LIG d   1      11.726  78.110 114.672  0.00  0.00     0.161 C 
ATOM      2  C   LIG d   1      10.416  77.603 114.630  0.00  0.00     0.016 C 
ATOM      3  C   LIG d   1       9.300  78.287 115.164  0.00  0.00     0.038 C 
ATOM      4  C   LIG d   1       9.396  79.601 115.646  0.00  0.00     0.028 C 
ATOM      5  C   LIG d   1      10.784  79.954 116.169  0.00  0.00    -0.047 C 
ATOM      6  C   LIG d   1      11.833  79.590 115.094  0.00  0.00     0.091 C 
ENDROOT
BRANCH   1   7
ATOM      7  O   LIG d   1      12.370  77.903 113.399  0.00  0.00    -0.368 OA
BRANCH   7   8
ATOM      8  C   LIG d   1      13.347  76.834 113.346  0.00  0.00     0.119 C 
BRANCH   8   9
ATOM      9  C   LIG d   1      13.767  76.518 114.794  0.00  0.00     0.028 C 
ATOM     10  C   LIG d   1      15.267  76.758 115.035  0.00  0.00     0.006 C 
ENDBRANCH   8   9
BRANCH   8  11
ATOM     11  C   LIG d   1      14.629  77.286 112.640  0.00  0.00     0.028 C 
ATOM     12  C   LIG d   1      14.395  77.680 111.174  0.00  0.00     0.006 C 
ENDBRANCH   8  11
ENDBRANCH   7   8
ENDBRANCH   1   7
BRANCH   6  13
ATOM     13  N   LIG d   1      13.225  79.825 115.557  0.00  0.00    -0.311 N 
ATOM     14  C   LIG d   1      14.171  80.367 114.792  0.00  0.00     0.210 C 
ATOM     15  C   LIG d   1      15.544  80.503 115.458  0.00  0.00     0.109 C 
ATOM     16  O   LIG d   1      13.996  80.777 113.634  0.00  0.00    -0.276 OA
ATOM     17  H   LIG d   1      13.447  79.551 116.494  0.00  0.00     0.149 HD
ENDBRANCH   6  13
BRANCH   5  18
ATOM     18  N   LIG d   1      10.780  81.389 116.511  0.00  0.00     0.381 N 
ATOM     19  H   LIG d   1      11.427  81.878 115.924  0.00  0.00    -0.090 HD
ATOM     20  H   LIG d   1      11.076  81.497 117.465  0.00  0.00    -0.090 HD
ATOM     21  H   LIG d   1       9.865  81.765 116.394  0.00  0.00    -0.090 HD
ENDBRANCH   5  18
BRANCH   3  22
ATOM     22  C   LIG d   1       8.077  77.639 115.257  0.00  0.00     0.382 C 
ATOM     23  O   LIG d   1       7.444  77.343 114.215  0.00  0.00    -0.241 OA
ATOM     24  O   LIG d   1       7.579  77.387 116.370  0.00  0.00    -0.241 OA
ENDBRANCH   3  22
TORSDOF 7
ENDMDL
MODEL 8
REMARK VINA RESULT:      -4.5     12.544     14.336
REMARK  7 active torsions:
REMARK  status: ('A' for Active; 'I' for Inactive)
REMARK    1  A    between atoms: C_2  and  C_3 
REMARK    2  A    between atoms: C_3  and  O_6 
REMARK    3  A    between atoms: C_3  and  C_4 
REMARK    4  A    between atoms: C_7  and  O_6 
REMARK    5  A    between atoms: C_9  and  C_10 
REMARK    6  A    between atoms: N_15  and  C_14 
REMARK    7  A    between atoms: N_20  and  C_19 
REMARK       I    between atoms: C_22  and  N_20 
ROOT
ATOM      1  C   LIG d   1      -1.638  78.415 115.665  0.00  0.00     0.161 C 
ATOM      2  C   LIG d   1      -0.899  77.335 115.154  0.00  0.00     0.016 C 
ATOM      3  C   LIG d   1      -1.353  75.996 115.186  0.00  0.00     0.038 C 
ATOM      4  C   LIG d   1      -2.653  75.664 115.598  0.00  0.00     0.028 C 
ATOM      5  C   LIG d   1      -3.247  76.658 116.590  0.00  0.00    -0.047 C 
ATOM      6  C   LIG d   1      -3.104  78.086 116.016  0.00  0.00     0.091 C 
ENDROOT
BRANCH   1   7
ATOM      7  O   LIG d   1      -1.580  79.524 114.747  0.00  0.00    -0.368 OA
BRANCH   7   8
ATOM      8  C   LIG d   1      -1.225  79.202 113.379  0.00  0.00     0.119 C 
BRANCH   8   9
ATOM      9  C   LIG d   1      -0.204  80.255 112.905  0.00  0.00     0.028 C 
ATOM     10  C   LIG d   1      -0.257  80.480 111.385  0.00  0.00     0.006 C 
ENDBRANCH   8   9
BRANCH   8  11
ATOM     11  C   LIG d   1      -2.427  79.352 112.442  0.00  0.00     0.028 C 
ATOM     12  C   LIG d   1      -2.980  78.001 111.962  0.00  0.00     0.006 C 
ENDBRANCH   8  11
ENDBRANCH   7   8
ENDBRANCH   1   7
BRANCH   6  13
ATOM     13  N   LIG d   1      -3.585  79.127 116.961  0.00  0.00    -0.311 N 
ATOM     14  C   LIG d   1      -4.851  79.537 117.019  0.00  0.00     0.210 C 
ATOM     15  C   LIG d   1      -5.129  80.634 118.052  0.00  0.00     0.109 C 
ATOM     16  O   LIG d   1      -5.776  79.074 116.336  0.00  0.00    -0.276 OA
ATOM     17  H   LIG d   1      -2.906  79.535 117.574  0.00  0.00     0.149 HD
ENDBRANCH   6  13
BRANCH   5  18
ATOM     18  N   LIG d   1      -4.649  76.267 116.827  0.00  0.00     0.381 N 
ATOM     19  H   LIG d   1      -4.775  75.301 116.596  0.00  0.00    -0.090 HD
ATOM     20  H   LIG d   1      -5.244  76.814 116.231  0.00  0.00    -0.090 HD
ATOM     21  H   LIG d   1      -4.889  76.421 117.781  0.00  0.00    -0.090 HD
ENDBRANCH   5  18
BRANCH   3  22
ATOM     22  C   LIG d   1      -0.489  74.969 114.841  0.00  0.00     0.382 C 
ATOM     23  O   LIG d   1      -0.031  74.900 113.675  0.00  0.00    -0.241 OA
ATOM     24  O   LIG d   1      -0.196  74.084 115.668  0.00  0.00    -0.241 OA
ENDBRANCH   3  22
TORSDOF 7
ENDMDL
MODEL 9
REMARK VINA RESULT:      -4.3     19.980     23.605
REMARK  7 active torsions:
REMARK  status: ('A' for Active; 'I' for Inactive)
REMARK    1  A    between atoms: C_2  and  C_3 
REMARK    2  A    between atoms: C_3  and  O_6 
REMARK    3  A    between atoms: C_3  and  C_4 
REMARK    4  A    between atoms: C_7  and  O_6 
REMARK    5  A    between atoms: C_9  and  C_10 
REMARK    6  A    between atoms: N_15  and  C_14 
REMARK    7  A    between atoms: N_20  and  C_19 
REMARK       I    between atoms: C_22  and  N_20 
ROOT
ATOM      1  C   LIG d   1      11.656  76.260 114.817  0.00  0.00     0.161 C 
ATOM      2  C   LIG d   1      10.292  76.582 114.727  0.00  0.00     0.016 C 
ATOM      3  C   LIG d   1       9.815  77.887 114.465  0.00  0.00     0.038 C 
ATOM      4  C   LIG d   1      10.680  78.937 114.123  0.00  0.00     0.028 C 
ATOM      5  C   LIG d   1      12.083  78.777 114.697  0.00  0.00    -0.047 C 
ATOM      6  C   LIG d   1      12.615  77.370 114.338  0.00  0.00     0.091 C 
ENDROOT
BRANCH   1   7
ATOM      7  O   LIG d   1      11.917  75.033 114.109  0.00  0.00    -0.368 OA
BRANCH   7   8
ATOM      8  C   LIG d   1      12.586  73.992 114.863  0.00  0.00     0.119 C 
BRANCH   8   9
ATOM      9  C   LIG d   1      11.806  72.682 114.637  0.00  0.00     0.028 C 
ATOM     10  C   LIG d   1      12.682  71.576 114.024  0.00  0.00     0.006 C 
ENDBRANCH   8   9
BRANCH   8  11
ATOM     11  C   LIG d   1      12.506  74.256 116.370  0.00  0.00     0.028 C 
ATOM     12  C   LIG d   1      13.872  74.154 117.066  0.00  0.00     0.006 C 
ENDBRANCH   8  11
ENDBRANCH   7   8
ENDBRANCH   1   7
BRANCH   6  13
ATOM     13  N   LIG d   1      13.950  77.100 114.933  0.00  0.00    -0.311 N 
ATOM     14  C   LIG d   1      15.023  76.783 114.211  0.00  0.00     0.210 C 
ATOM     15  C   LIG d   1      16.296  76.524 115.024  0.00  0.00     0.109 C 
ATOM     16  O   LIG d   1      15.051  76.723 112.973  0.00  0.00    -0.276 OA
ATOM     17  H   LIG d   1      14.025  77.157 115.930  0.00  0.00     0.149 HD
ENDBRANCH   6  13
BRANCH   5  18
ATOM     18  N   LIG d   1      12.915  79.866 114.151  0.00  0.00     0.381 N 
ATOM     19  H   LIG d   1      12.968  80.615 114.812  0.00  0.00    -0.090 HD
ATOM     20  H   LIG d   1      12.484  80.215 113.313  0.00  0.00    -0.090 HD
ATOM     21  H   LIG d   1      13.830  79.527 113.947  0.00  0.00    -0.090 HD
ENDBRANCH   5  18
BRANCH   3  22
ATOM     22  C   LIG d   1       8.461  78.160 114.582  0.00  0.00     0.382 C 
ATOM     23  O   LIG d   1       7.616  77.273 114.311  0.00  0.00    -0.241 OA
ATOM     24  O   LIG d   1       8.072  79.296 114.913  0.00  0.00    -0.241 OA
ENDBRANCH   3  22
TORSDOF 7
ENDMDL
