MODEL 1
REMARK VINA RESULT:      -5.9      0.000      0.000
REMARK  7 active torsions:
REMARK  status: ('A' for Active; 'I' for Inactive)
REMARK    1  A    between atoms: C_2  and  C_3 
REMARK    2  A    between atoms: C_3  and  O_6 
REMARK    3  A    between atoms: C_3  and  C_4 
REMARK    4  A    between atoms: C_7  and  O_6 
REMARK    5  A    between atoms: C_9  and  C_10 
REMARK    6  A    between atoms: N_15  and  C_14 
REMARK    7  A    between atoms: N_20  and  C_19 
REMARK       I    between atoms: C_22  and  N_20 
ROOT
ATOM      1  C   LIG d   1      -2.963  77.837 114.093  0.00  0.00     0.161 C 
ATOM      2  C   LIG d   1      -3.170  79.040 113.398  0.00  0.00     0.016 C 
ATOM      3  C   LIG d   1      -2.261  80.122 113.427  0.00  0.00     0.038 C 
ATOM      4  C   LIG d   1      -1.002  80.017 114.036  0.00  0.00     0.028 C 
ATOM      5  C   LIG d   1      -0.963  79.003 115.175  0.00  0.00    -0.047 C 
ATOM      6  C   LIG d   1      -1.543  77.662 114.673  0.00  0.00     0.091 C 
ENDROOT
BRANCH   1   7
ATOM      7  O   LIG d   1      -3.300  76.719 113.248  0.00  0.00    -0.368 OA
BRANCH   7   8
ATOM      8  C   LIG d   1      -4.548  76.047 113.549  0.00  0.00     0.119 C 
BRANCH   8   9
ATOM      9  C   LIG d   1      -5.691  77.035 113.247  0.00  0.00     0.028 C 
ATOM     10  C   LIG d   1      -6.139  76.984 111.777  0.00  0.00     0.006 C 
ENDBRANCH   8   9
BRANCH   8  11
ATOM     11  C   LIG d   1      -4.666  75.734 115.043  0.00  0.00     0.028 C 
ATOM     12  C   LIG d   1      -6.104  75.868 115.568  0.00  0.00     0.006 C 
ENDBRANCH   8  11
ENDBRANCH   7   8
ENDBRANCH   1   7
BRANCH   6  13
ATOM     13  N   LIG d   1      -1.620  76.639 115.748  0.00  0.00    -0.311 N 
ATOM     14  C   LIG d   1      -1.157  75.397 115.614  0.00  0.00     0.210 C 
ATOM     15  C   LIG d   1      -1.354  74.498 116.838  0.00  0.00     0.109 C 
ATOM     16  O   LIG d   1      -0.573  74.965 114.609  0.00  0.00    -0.276 OA
ATOM     17  H   LIG d   1      -2.050  76.914 116.609  0.00  0.00     0.149 HD
ENDBRANCH   6  13
BRANCH   5  18
ATOM     18  N   LIG d   1       0.437  78.895 115.627  0.00  0.00     0.381 N 
ATOM     19  H   LIG d   1       0.547  78.079 116.196  0.00  0.00    -0.090 HD
ATOM     20  H   LIG d   1       0.662  79.700 116.184  0.00  0.00    -0.090 HD
ATOM     21  H   LIG d   1       1.047  78.845 114.841  0.00  0.00    -0.090 HD
ENDBRANCH   5  18
BRANCH   3  22
ATOM     22  C   LIG d   1      -2.626  81.341 112.875  0.00  0.00     0.382 C 
ATOM     23  O   LIG d   1      -3.839  81.617 112.711  0.00  0.00    -0.241 OA
ATOM     24  O   LIG d   1      -1.756  82.150 112.499  0.00  0.00    -0.241 OA
ENDBRANCH   3  22
TORSDOF 7
ENDMDL
MODEL 2
REMARK VINA RESULT:      -5.7      2.329      5.224
REMARK  7 active torsions:
REMARK  status: ('A' for Active; 'I' for Inactive)
REMARK    1  A    between atoms: C_2  and  C_3 
REMARK    2  A    between atoms: C_3  and  O_6 
REMARK    3  A    between atoms: C_3  and  C_4 
REMARK    4  A    between atoms: C_7  and  O_6 
REMARK    5  A    between atoms: C_9  and  C_10 
REMARK    6  A    between atoms: N_15  and  C_14 
REMARK    7  A    between atoms: N_20  and  C_19 
REMARK       I    between atoms: C_22  and  N_20 
ROOT
ATOM      1  C   LIG d   1      -1.760  75.491 114.933  0.00  0.00     0.161 C 
ATOM      2  C   LIG d   1      -1.515  74.811 116.138  0.00  0.00     0.016 C 
ATOM      3  C   LIG d   1      -0.741  75.349 117.191  0.00  0.00     0.038 C 
ATOM      4  C   LIG d   1      -0.281  76.674 117.172  0.00  0.00     0.028 C 
ATOM      5  C   LIG d   1      -0.076  77.224 115.765  0.00  0.00    -0.047 C 
ATOM      6  C   LIG d   1      -1.360  76.982 114.939  0.00  0.00     0.091 C 
ENDROOT
BRANCH   1   7
ATOM      7  O   LIG d   1      -3.146  75.346 114.563  0.00  0.00    -0.368 OA
BRANCH   7   8
ATOM      8  C   LIG d   1      -4.097  75.315 115.655  0.00  0.00     0.119 C 
BRANCH   8   9
ATOM      9  C   LIG d   1      -5.328  74.523 115.174  0.00  0.00     0.028 C 
ATOM     10  C   LIG d   1      -5.868  73.565 116.250  0.00  0.00     0.006 C 
ENDBRANCH   8   9
BRANCH   8  11
ATOM     11  C   LIG d   1      -4.619  76.718 115.979  0.00  0.00     0.028 C 
ATOM     12  C   LIG d   1      -4.103  77.249 117.326  0.00  0.00     0.006 C 
ENDBRANCH   8  11
ENDBRANCH   7   8
ENDBRANCH   1   7
BRANCH   6  13
ATOM     13  N   LIG d   1      -1.215  77.414 113.525  0.00  0.00    -0.311 N 
ATOM     14  C   LIG d   1      -2.121  78.152 112.887  0.00  0.00     0.210 C 
ATOM     15  C   LIG d   1      -1.785  78.470 111.426  0.00  0.00     0.109 C 
ATOM     16  O   LIG d   1      -3.157  78.601 113.401  0.00  0.00    -0.276 OA
ATOM     17  H   LIG d   1      -0.389  77.120 113.041  0.00  0.00     0.149 HD
ENDBRANCH   6  13
BRANCH   5  18
ATOM     18  N   LIG d   1       0.270  78.652 115.890  0.00  0.00     0.381 N 
ATOM     19  H   LIG d   1       0.329  78.903 116.857  0.00  0.00    -0.090 HD
ATOM     20  H   LIG d   1      -0.456  79.201 115.466  0.00  0.00    -0.090 HD
ATOM     21  H   LIG d   1       1.140  78.833 115.439  0.00  0.00    -0.090 HD
ENDBRANCH   5  18
BRANCH   3  22
ATOM     22  C   LIG d   1      -0.385  74.544 118.263  0.00  0.00     0.382 C 
ATOM     23  O   LIG d   1       0.086  75.059 119.305  0.00  0.00    -0.241 OA
ATOM     24  O   LIG d   1      -0.488  73.305 118.184  0.00  0.00    -0.241 OA
ENDBRANCH   3  22
TORSDOF 7
ENDMDL
MODEL 3
REMARK VINA RESULT:      -5.6      1.872      2.454
REMARK  7 active torsions:
REMARK  status: ('A' for Active; 'I' for Inactive)
REMARK    1  A    between atoms: C_2  and  C_3 
REMARK    2  A    between atoms: C_3  and  O_6 
REMARK    3  A    between atoms: C_3  and  C_4 
REMARK    4  A    between atoms: C_7  and  O_6 
REMARK    5  A    between atoms: C_9  and  C_10 
REMARK    6  A    between atoms: N_15  and  C_14 
REMARK    7  A    between atoms: N_20  and  C_19 
REMARK       I    between atoms: C_22  and  N_20 
ROOT
ATOM      1  C   LIG d   1      -1.925  78.758 115.355  0.00  0.00     0.161 C 
ATOM      2  C   LIG d   1      -2.426  79.601 114.350  0.00  0.00     0.016 C 
ATOM      3  C   LIG d   1      -1.676  80.648 113.767  0.00  0.00     0.038 C 
ATOM      4  C   LIG d   1      -0.312  80.827 114.045  0.00  0.00     0.028 C 
ATOM      5  C   LIG d   1       0.096  80.320 115.424  0.00  0.00    -0.047 C 
ATOM      6  C   LIG d   1      -0.404  78.867 115.592  0.00  0.00     0.091 C 
ENDROOT
BRANCH   1   7
ATOM      7  O   LIG d   1      -2.291  77.392 115.074  0.00  0.00    -0.368 OA
BRANCH   7   8
ATOM      8  C   LIG d   1      -3.580  76.962 115.578  0.00  0.00     0.119 C 
BRANCH   8   9
ATOM      9  C   LIG d   1      -3.501  76.966 117.117  0.00  0.00     0.028 C 
ATOM     10  C   LIG d   1      -4.655  77.752 117.762  0.00  0.00     0.006 C 
ENDBRANCH   8   9
BRANCH   8  11
ATOM     11  C   LIG d   1      -3.873  75.509 115.190  0.00  0.00     0.028 C 
ATOM     12  C   LIG d   1      -5.355  75.267 114.863  0.00  0.00     0.006 C 
ENDBRANCH   8  11
ENDBRANCH   7   8
ENDBRANCH   1   7
BRANCH   6  13
ATOM     13  N   LIG d   1      -0.120  78.323 116.945  0.00  0.00    -0.311 N 
ATOM     14  C   LIG d   1       0.326  77.086 117.160  0.00  0.00     0.210 C 
ATOM     15  C   LIG d   1       0.535  76.720 118.632  0.00  0.00     0.109 C 
ATOM     16  O   LIG d   1       0.598  76.268 116.268  0.00  0.00    -0.276 OA
ATOM     17  H   LIG d   1      -0.284  78.929 117.725  0.00  0.00     0.149 HD
ENDBRANCH   6  13
BRANCH   5  18
ATOM     18  N   LIG d   1       1.562  80.442 115.527  0.00  0.00     0.381 N 
ATOM     19  H   LIG d   1       1.798  81.248 116.072  0.00  0.00    -0.090 HD
ATOM     20  H   LIG d   1       1.945  80.562 114.606  0.00  0.00    -0.090 HD
ATOM     21  H   LIG d   1       1.944  79.624 115.949  0.00  0.00    -0.090 HD
ENDBRANCH   5  18
BRANCH   3  22
ATOM     22  C   LIG d   1      -2.300  81.555 112.924  0.00  0.00     0.382 C 
ATOM     23  O   LIG d   1      -3.540  81.490 112.741  0.00  0.00    -0.241 OA
ATOM     24  O   LIG d   1      -1.634  82.409 112.310  0.00  0.00    -0.241 OA
ENDBRANCH   3  22
TORSDOF 7
ENDMDL
MODEL 4
REMARK VINA RESULT:      -5.6      4.807      6.174
REMARK  7 active torsions:
REMARK  status: ('A' for Active; 'I' for Inactive)
REMARK    1  A    between atoms: C_2  and  C_3 
REMARK    2  A    between atoms: C_3  and  O_6 
REMARK    3  A    between atoms: C_3  and  C_4 
REMARK    4  A    between atoms: C_7  and  O_6 
REMARK    5  A    between atoms: C_9  and  C_10 
REMARK    6  A    between atoms: N_15  and  C_14 
REMARK    7  A    between atoms: N_20  and  C_19 
REMARK       I    between atoms: C_22  and  N_20 
ROOT
ATOM      1  C   LIG d   1      -6.975  77.682 117.825  0.00  0.00     0.161 C 
ATOM      2  C   LIG d   1      -8.229  78.211 118.173  0.00  0.00     0.016 C 
ATOM      3  C   LIG d   1      -8.454  79.587 118.409  0.00  0.00     0.038 C 
ATOM      4  C   LIG d   1      -7.467  80.553 118.164  0.00  0.00     0.028 C 
ATOM      5  C   LIG d   1      -6.047  80.015 118.299  0.00  0.00    -0.047 C 
ATOM      6  C   LIG d   1      -5.912  78.734 117.445  0.00  0.00     0.091 C 
ENDROOT
BRANCH   1   7
ATOM      7  O   LIG d   1      -7.129  76.719 116.764  0.00  0.00    -0.368 OA
BRANCH   7   8
ATOM      8  C   LIG d   1      -6.697  75.368 117.061  0.00  0.00     0.119 C 
BRANCH   8   9
ATOM      9  C   LIG d   1      -5.905  74.856 115.843  0.00  0.00     0.028 C 
ATOM     10  C   LIG d   1      -5.777  75.919 114.738  0.00  0.00     0.006 C 
ENDBRANCH   8   9
BRANCH   8  11
ATOM     11  C   LIG d   1      -7.891  74.418 117.197  0.00  0.00     0.028 C 
ATOM     12  C   LIG d   1      -7.467  72.954 117.397  0.00  0.00     0.006 C 
ENDBRANCH   8  11
ENDBRANCH   7   8
ENDBRANCH   1   7
BRANCH   6  13
ATOM     13  N   LIG d   1      -4.577  78.096 117.586  0.00  0.00    -0.311 N 
ATOM     14  C   LIG d   1      -3.583  78.275 116.718  0.00  0.00     0.210 C 
ATOM     15  C   LIG d   1      -2.297  77.509 117.041  0.00  0.00     0.109 C 
ATOM     16  O   LIG d   1      -3.634  79.022 115.729  0.00  0.00    -0.276 OA
ATOM     17  H   LIG d   1      -4.439  77.498 118.377  0.00  0.00     0.149 HD
ENDBRANCH   6  13
BRANCH   5  18
ATOM     18  N   LIG d   1      -5.123  81.087 117.883  0.00  0.00     0.381 N 
ATOM     19  H   LIG d   1      -5.546  81.639 117.164  0.00  0.00    -0.090 HD
ATOM     20  H   LIG d   1      -4.288  80.670 117.511  0.00  0.00    -0.090 HD
ATOM     21  H   LIG d   1      -4.895  81.663 118.664  0.00  0.00    -0.090 HD
ENDBRANCH   5  18
BRANCH   3  22
ATOM     22  C   LIG d   1      -9.668  80.004 118.935  0.00  0.00     0.382 C 
ATOM     23  O   LIG d   1     -10.590  79.173 119.120  0.00  0.00    -0.241 OA
ATOM     24  O   LIG d   1      -9.868  81.208 119.185  0.00  0.00    -0.241 OA
ENDBRANCH   3  22
TORSDOF 7
ENDMDL
MODEL 5
REMARK VINA RESULT:      -5.5      3.709      6.432
REMARK  7 active torsions:
REMARK  status: ('A' for Active; 'I' for Inactive)
REMARK    1  A    between atoms: C_2  and  C_3 
REMARK    2  A    between atoms: C_3  and  O_6 
REMARK    3  A    between atoms: C_3  and  C_4 
REMARK    4  A    between atoms: C_7  and  O_6 
REMARK    5  A    between atoms: C_9  and  C_10 
REMARK    6  A    between atoms: N_15  and  C_14 
REMARK    7  A    between atoms: N_20  and  C_19 
REMARK       I    between atoms: C_22  and  N_20 
ROOT
ATOM      1  C   LIG d   1      -6.020  76.616 115.876  0.00  0.00     0.161 C 
ATOM      2  C   LIG d   1      -7.259  75.957 115.953  0.00  0.00     0.016 C 
ATOM      3  C   LIG d   1      -8.225  76.230 116.948  0.00  0.00     0.038 C 
ATOM      4  C   LIG d   1      -8.080  77.295 117.850  0.00  0.00     0.028 C 
ATOM      5  C   LIG d   1      -6.625  77.658 118.129  0.00  0.00    -0.047 C 
ATOM      6  C   LIG d   1      -5.891  77.857 116.783  0.00  0.00     0.091 C 
ENDROOT
BRANCH   1   7
ATOM      7  O   LIG d   1      -5.737  76.965 114.506  0.00  0.00    -0.368 OA
BRANCH   7   8
ATOM      8  C   LIG d   1      -4.616  76.282 113.893  0.00  0.00     0.119 C 
BRANCH   8   9
ATOM      9  C   LIG d   1      -4.117  75.221 114.893  0.00  0.00     0.028 C 
ATOM     10  C   LIG d   1      -2.647  75.435 115.291  0.00  0.00     0.006 C 
ENDBRANCH   8   9
BRANCH   8  11
ATOM     11  C   LIG d   1      -3.432  77.231 113.684  0.00  0.00     0.028 C 
ATOM     12  C   LIG d   1      -3.513  78.000 112.356  0.00  0.00     0.006 C 
ENDBRANCH   8  11
ENDBRANCH   7   8
ENDBRANCH   1   7
BRANCH   6  13
ATOM     13  N   LIG d   1      -4.441  78.132 116.964  0.00  0.00    -0.311 N 
ATOM     14  C   LIG d   1      -3.924  79.359 116.974  0.00  0.00     0.210 C 
ATOM     15  C   LIG d   1      -2.404  79.419 117.154  0.00  0.00     0.109 C 
ATOM     16  O   LIG d   1      -4.584  80.406 116.884  0.00  0.00    -0.276 OA
ATOM     17  H   LIG d   1      -3.837  77.341 117.076  0.00  0.00     0.149 HD
ENDBRANCH   6  13
BRANCH   5  18
ATOM     18  N   LIG d   1      -6.622  78.867 118.973  0.00  0.00     0.381 N 
ATOM     19  H   LIG d   1      -6.110  78.691 119.815  0.00  0.00    -0.090 HD
ATOM     20  H   LIG d   1      -7.569  79.093 119.222  0.00  0.00    -0.090 HD
ATOM     21  H   LIG d   1      -6.210  79.628 118.479  0.00  0.00    -0.090 HD
ENDBRANCH   5  18
BRANCH   3  22
ATOM     22  C   LIG d   1      -9.334  75.408 117.073  0.00  0.00     0.382 C 
ATOM     23  O   LIG d   1     -10.465  75.909 117.283  0.00  0.00    -0.241 OA
ATOM     24  O   LIG d   1      -9.212  74.169 117.022  0.00  0.00    -0.241 OA
ENDBRANCH   3  22
TORSDOF 7
ENDMDL
MODEL 6
REMARK VINA RESULT:      -5.5      7.786     10.467
REMARK  7 active torsions:
REMARK  status: ('A' for Active; 'I' for Inactive)
REMARK    1  A    between atoms: C_2  and  C_3 
REMARK    2  A    between atoms: C_3  and  O_6 
REMARK    3  A    between atoms: C_3  and  C_4 
REMARK    4  A    between atoms: C_7  and  O_6 
REMARK    5  A    between atoms: C_9  and  C_10 
REMARK    6  A    between atoms: N_15  and  C_14 
REMARK    7  A    between atoms: N_20  and  C_19 
REMARK       I    between atoms: C_22  and  N_20 
ROOT
ATOM      1  C   LIG d   1       2.301  86.445 114.469  0.00  0.00     0.161 C 
ATOM      2  C   LIG d   1       2.927  87.654 114.124  0.00  0.00     0.016 C 
ATOM      3  C   LIG d   1       4.109  88.123 114.743  0.00  0.00     0.038 C 
ATOM      4  C   LIG d   1       4.833  87.336 115.651  0.00  0.00     0.028 C 
ATOM      5  C   LIG d   1       3.969  86.328 116.401  0.00  0.00    -0.047 C 
ATOM      6  C   LIG d   1       3.137  85.520 115.379  0.00  0.00     0.091 C 
ENDROOT
BRANCH   1   7
ATOM      7  O   LIG d   1       1.901  85.744 113.275  0.00  0.00    -0.368 OA
BRANCH   7   8
ATOM      8  C   LIG d   1       2.295  86.349 112.019  0.00  0.00     0.119 C 
BRANCH   8   9
ATOM      9  C   LIG d   1       1.097  86.237 111.055  0.00  0.00     0.028 C 
ATOM     10  C   LIG d   1      -0.243  86.098 111.798  0.00  0.00     0.006 C 
ENDBRANCH   8   9
BRANCH   8  11
ATOM     11  C   LIG d   1       3.426  85.561 111.352  0.00  0.00     0.028 C 
ATOM     12  C   LIG d   1       3.582  84.143 111.922  0.00  0.00     0.006 C 
ENDBRANCH   8  11
ENDBRANCH   7   8
ENDBRANCH   1   7
BRANCH   6  13
ATOM     13  N   LIG d   1       2.202  84.569 116.034  0.00  0.00    -0.311 N 
ATOM     14  C   LIG d   1       2.515  83.303 116.304  0.00  0.00     0.210 C 
ATOM     15  C   LIG d   1       1.398  82.488 116.964  0.00  0.00     0.109 C 
ATOM     16  O   LIG d   1       3.621  82.786 116.089  0.00  0.00    -0.276 OA
ATOM     17  H   LIG d   1       1.292  84.913 116.271  0.00  0.00     0.149 HD
ENDBRANCH   6  13
BRANCH   5  18
ATOM     18  N   LIG d   1       4.869  85.483 117.209  0.00  0.00     0.381 N 
ATOM     19  H   LIG d   1       4.332  84.915 117.833  0.00  0.00    -0.090 HD
ATOM     20  H   LIG d   1       5.466  86.077 117.758  0.00  0.00    -0.090 HD
ATOM     21  H   LIG d   1       5.421  84.906 116.613  0.00  0.00    -0.090 HD
ENDBRANCH   5  18
BRANCH   3  22
ATOM     22  C   LIG d   1       4.556  89.410 114.485  0.00  0.00     0.382 C 
ATOM     23  O   LIG d   1       4.864  89.744 113.316  0.00  0.00    -0.241 OA
ATOM     24  O   LIG d   1       4.697  90.228 115.414  0.00  0.00    -0.241 OA
ENDBRANCH   3  22
TORSDOF 7
ENDMDL
MODEL 7
REMARK VINA RESULT:      -5.4      4.789      7.319
REMARK  7 active torsions:
REMARK  status: ('A' for Active; 'I' for Inactive)
REMARK    1  A    between atoms: C_2  and  C_3 
REMARK    2  A    between atoms: C_3  and  O_6 
REMARK    3  A    between atoms: C_3  and  C_4 
REMARK    4  A    between atoms: C_7  and  O_6 
REMARK    5  A    between atoms: C_9  and  C_10 
REMARK    6  A    between atoms: N_15  and  C_14 
REMARK    7  A    between atoms: N_20  and  C_19 
REMARK       I    between atoms: C_22  and  N_20 
ROOT
ATOM      1  C   LIG d   1      -7.111  77.366 117.137  0.00  0.00     0.161 C 
ATOM      2  C   LIG d   1      -8.333  76.700 117.332  0.00  0.00     0.016 C 
ATOM      3  C   LIG d   1      -8.506  75.314 117.118  0.00  0.00     0.038 C 
ATOM      4  C   LIG d   1      -7.425  74.466 116.838  0.00  0.00     0.028 C 
ATOM      5  C   LIG d   1      -6.268  75.170 116.138  0.00  0.00    -0.047 C 
ATOM      6  C   LIG d   1      -5.894  76.438 116.939  0.00  0.00     0.091 C 
ENDROOT
BRANCH   1   7
ATOM      7  O   LIG d   1      -6.873  78.279 118.226  0.00  0.00    -0.368 OA
BRANCH   7   8
ATOM      8  C   LIG d   1      -7.146  79.677 117.957  0.00  0.00     0.119 C 
BRANCH   8   9
ATOM      9  C   LIG d   1      -5.821  80.447 118.121  0.00  0.00     0.028 C 
ATOM     10  C   LIG d   1      -6.041  81.953 118.339  0.00  0.00     0.006 C 
ENDBRANCH   8   9
BRANCH   8  11
ATOM     11  C   LIG d   1      -8.093  80.271 119.004  0.00  0.00     0.028 C 
ATOM     12  C   LIG d   1      -9.562  79.893 118.761  0.00  0.00     0.006 C 
ENDBRANCH   8  11
ENDBRANCH   7   8
ENDBRANCH   1   7
BRANCH   6  13
ATOM     13  N   LIG d   1      -4.826  77.233 116.278  0.00  0.00    -0.311 N 
ATOM     14  C   LIG d   1      -3.711  77.619 116.895  0.00  0.00     0.210 C 
ATOM     15  C   LIG d   1      -2.750  78.447 116.036  0.00  0.00     0.109 C 
ATOM     16  O   LIG d   1      -3.411  77.327 118.062  0.00  0.00    -0.276 OA
ATOM     17  H   LIG d   1      -4.973  77.487 115.321  0.00  0.00     0.149 HD
ENDBRANCH   6  13
BRANCH   5  18
ATOM     18  N   LIG d   1      -5.157  74.206 116.031  0.00  0.00     0.381 N 
ATOM     19  H   LIG d   1      -4.359  74.551 116.525  0.00  0.00    -0.090 HD
ATOM     20  H   LIG d   1      -4.908  74.103 115.063  0.00  0.00    -0.090 HD
ATOM     21  H   LIG d   1      -5.433  73.325 116.406  0.00  0.00    -0.090 HD
ENDBRANCH   5  18
BRANCH   3  22
ATOM     22  C   LIG d   1      -9.781  74.768 117.145  0.00  0.00     0.382 C 
ATOM     23  O   LIG d   1      -9.942  73.541 116.943  0.00  0.00    -0.241 OA
ATOM     24  O   LIG d   1     -10.776  75.496 117.323  0.00  0.00    -0.241 OA
ENDBRANCH   3  22
TORSDOF 7
ENDMDL
MODEL 8
REMARK VINA RESULT:      -5.4      4.958      6.263
REMARK  7 active torsions:
REMARK  status: ('A' for Active; 'I' for Inactive)
REMARK    1  A    between atoms: C_2  and  C_3 
REMARK    2  A    between atoms: C_3  and  O_6 
REMARK    3  A    between atoms: C_3  and  C_4 
REMARK    4  A    between atoms: C_7  and  O_6 
REMARK    5  A    between atoms: C_9  and  C_10 
REMARK    6  A    between atoms: N_15  and  C_14 
REMARK    7  A    between atoms: N_20  and  C_19 
REMARK       I    between atoms: C_22  and  N_20 
ROOT
ATOM      1  C   LIG d   1      -6.710  77.772 118.731  0.00  0.00     0.161 C 
ATOM      2  C   LIG d   1      -8.007  78.312 118.728  0.00  0.00     0.016 C 
ATOM      3  C   LIG d   1      -8.280  79.681 118.504  0.00  0.00     0.038 C 
ATOM      4  C   LIG d   1      -7.277  80.583 118.116  0.00  0.00     0.028 C 
ATOM      5  C   LIG d   1      -5.886  80.188 118.600  0.00  0.00    -0.047 C 
ATOM      6  C   LIG d   1      -5.614  78.720 118.199  0.00  0.00     0.091 C 
ENDROOT
BRANCH   1   7
ATOM      7  O   LIG d   1      -6.696  76.530 118.000  0.00  0.00    -0.368 OA
BRANCH   7   8
ATOM      8  C   LIG d   1      -7.661  76.412 116.926  0.00  0.00     0.119 C 
BRANCH   8   9
ATOM      9  C   LIG d   1      -8.385  75.063 117.100  0.00  0.00     0.028 C 
ATOM     10  C   LIG d   1      -9.905  75.182 116.896  0.00  0.00     0.006 C 
ENDBRANCH   8   9
BRANCH   8  11
ATOM     11  C   LIG d   1      -6.969  76.327 115.562  0.00  0.00     0.028 C 
ATOM     12  C   LIG d   1      -5.812  75.316 115.543  0.00  0.00     0.006 C 
ENDBRANCH   8  11
ENDBRANCH   7   8
ENDBRANCH   1   7
BRANCH   6  13
ATOM     13  N   LIG d   1      -4.308  78.226 118.708  0.00  0.00    -0.311 N 
ATOM     14  C   LIG d   1      -3.353  77.733 117.921  0.00  0.00     0.210 C 
ATOM     15  C   LIG d   1      -2.092  77.262 118.651  0.00  0.00     0.109 C 
ATOM     16  O   LIG d   1      -3.419  77.671 116.684  0.00  0.00    -0.276 OA
ATOM     17  H   LIG d   1      -4.158  78.269 119.697  0.00  0.00     0.149 HD
ENDBRANCH   6  13
BRANCH   5  18
ATOM     18  N   LIG d   1      -4.923  81.136 118.010  0.00  0.00     0.381 N 
ATOM     19  H   LIG d   1      -5.408  81.937 117.658  0.00  0.00    -0.090 HD
ATOM     20  H   LIG d   1      -4.455  80.688 117.242  0.00  0.00    -0.090 HD
ATOM     21  H   LIG d   1      -4.257  81.417 118.696  0.00  0.00    -0.090 HD
ENDBRANCH   5  18
BRANCH   3  22
ATOM     22  C   LIG d   1      -9.561  80.169 118.708  0.00  0.00     0.382 C 
ATOM     23  O   LIG d   1     -10.484  79.387 119.041  0.00  0.00    -0.241 OA
ATOM     24  O   LIG d   1      -9.816  81.374 118.519  0.00  0.00    -0.241 OA
ENDBRANCH   3  22
TORSDOF 7
ENDMDL
MODEL 9
REMARK VINA RESULT:      -5.4      9.566     12.387
REMARK  7 active torsions:
REMARK  status: ('A' for Active; 'I' for Inactive)
REMARK    1  A    between atoms: C_2  and  C_3 
REMARK    2  A    between atoms: C_3  and  O_6 
REMARK    3  A    between atoms: C_3  and  C_4 
REMARK    4  A    between atoms: C_7  and  O_6 
REMARK    5  A    between atoms: C_9  and  C_10 
REMARK    6  A    between atoms: N_15  and  C_14 
REMARK    7  A    between atoms: N_20  and  C_19 
REMARK       I    between atoms: C_22  and  N_20 
ROOT
ATOM      1  C   LIG d   1       3.282  87.081 115.464  0.00  0.00     0.161 C 
ATOM      2  C   LIG d   1       3.560  86.046 114.555  0.00  0.00     0.016 C 
ATOM      3  C   LIG d   1       4.322  86.228 113.378  0.00  0.00     0.038 C 
ATOM      4  C   LIG d   1       4.990  87.431 113.106  0.00  0.00     0.028 C 
ATOM      5  C   LIG d   1       4.325  88.649 113.738  0.00  0.00    -0.047 C 
ATOM      6  C   LIG d   1       4.095  88.373 115.241  0.00  0.00     0.091 C 
ENDROOT
BRANCH   1   7
ATOM      7  O   LIG d   1       3.456  86.606 116.813  0.00  0.00    -0.368 OA
BRANCH   7   8
ATOM      8  C   LIG d   1       2.242  86.373 117.569  0.00  0.00     0.119 C 
BRANCH   8   9
ATOM      9  C   LIG d   1       2.140  87.481 118.634  0.00  0.00     0.028 C 
ATOM     10  C   LIG d   1       0.918  88.390 118.420  0.00  0.00     0.006 C 
ENDBRANCH   8   9
BRANCH   8  11
ATOM     11  C   LIG d   1       2.318  85.061 118.356  0.00  0.00     0.028 C 
ATOM     12  C   LIG d   1       1.540  83.918 117.685  0.00  0.00     0.006 C 
ENDBRANCH   8  11
ENDBRANCH   7   8
ENDBRANCH   1   7
BRANCH   6  13
ATOM     13  N   LIG d   1       3.371  89.482 115.917  0.00  0.00    -0.311 N 
ATOM     14  C   LIG d   1       3.981  90.545 116.438  0.00  0.00     0.210 C 
ATOM     15  C   LIG d   1       3.051  91.561 117.107  0.00  0.00     0.109 C 
ATOM     16  O   LIG d   1       5.202  90.758 116.381  0.00  0.00    -0.276 OA
ATOM     17  H   LIG d   1       2.375  89.405 115.980  0.00  0.00     0.149 HD
ENDBRANCH   6  13
BRANCH   5  18
ATOM     18  N   LIG d   1       5.198  89.812 113.491  0.00  0.00     0.381 N 
ATOM     19  H   LIG d   1       6.132  89.502 113.313  0.00  0.00    -0.090 HD
ATOM     20  H   LIG d   1       5.208  90.391 114.312  0.00  0.00    -0.090 HD
ATOM     21  H   LIG d   1       4.860  90.334 112.712  0.00  0.00    -0.090 HD
ENDBRANCH   5  18
BRANCH   3  22
ATOM     22  C   LIG d   1       4.389  85.210 112.439  0.00  0.00     0.382 C 
ATOM     23  O   LIG d   1       4.952  84.127 112.728  0.00  0.00    -0.241 OA
ATOM     24  O   LIG d   1       3.933  85.378 111.292  0.00  0.00    -0.241 OA
ENDBRANCH   3  22
TORSDOF 7
ENDMDL
