MODEL 1
REMARK VINA RESULT:      -5.5      0.000      0.000
REMARK  7 active torsions:
REMARK  status: ('A' for Active; 'I' for Inactive)
REMARK    1  A    between atoms: C_2  and  C_3 
REMARK    2  A    between atoms: C_3  and  O_6 
REMARK    3  A    between atoms: C_3  and  C_4 
REMARK    4  A    between atoms: C_7  and  O_6 
REMARK    5  A    between atoms: C_9  and  C_10 
REMARK    6  A    between atoms: N_15  and  C_14 
REMARK    7  A    between atoms: N_20  and  C_19 
REMARK       I    between atoms: C_22  and  N_20 
ROOT
ATOM      1  C   LIG d   1      -7.195  74.398 118.426  0.00  0.00     0.161 C 
ATOM      2  C   LIG d   1      -8.460  75.007 118.477  0.00  0.00     0.016 C 
ATOM      3  C   LIG d   1      -8.724  76.297 117.960  0.00  0.00     0.038 C 
ATOM      4  C   LIG d   1      -7.769  77.007 117.216  0.00  0.00     0.028 C 
ATOM      5  C   LIG d   1      -6.332  76.648 117.575  0.00  0.00    -0.047 C 
ATOM      6  C   LIG d   1      -6.170  75.111 117.520  0.00  0.00     0.091 C 
ENDROOT
BRANCH   1   7
ATOM      7  O   LIG d   1      -7.334  73.017 118.035  0.00  0.00    -0.368 OA
BRANCH   7   8
ATOM      8  C   LIG d   1      -7.691  72.779 116.651  0.00  0.00     0.119 C 
BRANCH   8   9
ATOM      9  C   LIG d   1      -9.062  72.075 116.642  0.00  0.00     0.028 C 
ATOM     10  C   LIG d   1      -9.002  70.667 117.259  0.00  0.00     0.006 C 
ENDBRANCH   8   9
BRANCH   8  11
ATOM     11  C   LIG d   1      -6.724  71.795 115.987  0.00  0.00     0.028 C 
ATOM     12  C   LIG d   1      -5.673  71.242 116.963  0.00  0.00     0.006 C 
ENDBRANCH   8  11
ENDBRANCH   7   8
ENDBRANCH   1   7
BRANCH   6  13
ATOM     13  N   LIG d   1      -4.814  74.669 117.940  0.00  0.00    -0.311 N 
ATOM     14  C   LIG d   1      -3.791  74.540 117.097  0.00  0.00     0.210 C 
ATOM     15  C   LIG d   1      -2.487  74.051 117.733  0.00  0.00     0.109 C 
ATOM     16  O   LIG d   1      -3.832  74.814 115.888  0.00  0.00    -0.276 OA
ATOM     17  H   LIG d   1      -4.684  74.455 118.909  0.00  0.00     0.149 HD
ENDBRANCH   6  13
BRANCH   5  18
ATOM     18  N   LIG d   1      -5.446  77.357 116.633  0.00  0.00     0.381 N 
ATOM     19  H   LIG d   1      -5.551  78.345 116.748  0.00  0.00    -0.090 HD
ATOM     20  H   LIG d   1      -5.713  77.119 115.694  0.00  0.00    -0.090 HD
ATOM     21  H   LIG d   1      -4.498  77.095 116.793  0.00  0.00    -0.090 HD
ENDBRANCH   5  18
BRANCH   3  22
ATOM     22  C   LIG d   1      -9.942  76.905 118.219  0.00  0.00     0.382 C 
ATOM     23  O   LIG d   1     -10.990  76.216 118.265  0.00  0.00    -0.241 OA
ATOM     24  O   LIG d   1     -10.014  78.140 118.364  0.00  0.00    -0.241 OA
ENDBRANCH   3  22
TORSDOF 7
ENDMDL
MODEL 2
REMARK VINA RESULT:      -5.0      2.536      4.371
REMARK  7 active torsions:
REMARK  status: ('A' for Active; 'I' for Inactive)
REMARK    1  A    between atoms: C_2  and  C_3 
REMARK    2  A    between atoms: C_3  and  O_6 
REMARK    3  A    between atoms: C_3  and  C_4 
REMARK    4  A    between atoms: C_7  and  O_6 
REMARK    5  A    between atoms: C_9  and  C_10 
REMARK    6  A    between atoms: N_15  and  C_14 
REMARK    7  A    between atoms: N_20  and  C_19 
REMARK       I    between atoms: C_22  and  N_20 
ROOT
ATOM      1  C   LIG d   1      -7.149  76.133 116.993  0.00  0.00     0.161 C 
ATOM      2  C   LIG d   1      -6.900  77.495 117.232  0.00  0.00     0.016 C 
ATOM      3  C   LIG d   1      -7.758  78.321 117.994  0.00  0.00     0.038 C 
ATOM      4  C   LIG d   1      -8.853  77.801 118.700  0.00  0.00     0.028 C 
ATOM      5  C   LIG d   1      -9.428  76.533 118.078  0.00  0.00    -0.047 C 
ATOM      6  C   LIG d   1      -8.281  75.523 117.847  0.00  0.00     0.091 C 
ENDROOT
BRANCH   1   7
ATOM      7  O   LIG d   1      -5.933  75.377 117.158  0.00  0.00    -0.368 OA
BRANCH   7   8
ATOM      8  C   LIG d   1      -4.948  75.515 116.105  0.00  0.00     0.119 C 
BRANCH   8   9
ATOM      9  C   LIG d   1      -5.422  74.661 114.913  0.00  0.00     0.028 C 
ATOM     10  C   LIG d   1      -5.769  75.514 113.681  0.00  0.00     0.006 C 
ENDBRANCH   8   9
BRANCH   8  11
ATOM     11  C   LIG d   1      -3.600  74.919 116.520  0.00  0.00     0.028 C 
ATOM     12  C   LIG d   1      -2.419  75.514 115.738  0.00  0.00     0.006 C 
ENDBRANCH   8  11
ENDBRANCH   7   8
ENDBRANCH   1   7
BRANCH   6  13
ATOM     13  N   LIG d   1      -8.743  74.287 117.164  0.00  0.00    -0.311 N 
ATOM     14  C   LIG d   1      -8.313  73.068 117.484  0.00  0.00     0.210 C 
ATOM     15  C   LIG d   1      -8.902  71.932 116.641  0.00  0.00     0.109 C 
ATOM     16  O   LIG d   1      -7.523  72.816 118.407  0.00  0.00    -0.276 OA
ATOM     17  H   LIG d   1      -9.408  74.396 116.423  0.00  0.00     0.149 HD
ENDBRANCH   6  13
BRANCH   5  18
ATOM     18  N   LIG d   1     -10.471  76.024 118.988  0.00  0.00     0.381 N 
ATOM     19  H   LIG d   1     -10.383  75.032 119.083  0.00  0.00    -0.090 HD
ATOM     20  H   LIG d   1     -11.373  76.224 118.592  0.00  0.00    -0.090 HD
ATOM     21  H   LIG d   1     -10.388  76.460 119.880  0.00  0.00    -0.090 HD
ENDBRANCH   5  18
BRANCH   3  22
ATOM     22  C   LIG d   1      -7.545  79.691 118.023  0.00  0.00     0.382 C 
ATOM     23  O   LIG d   1      -6.905  80.246 117.097  0.00  0.00    -0.241 OA
ATOM     24  O   LIG d   1      -7.947  80.372 118.985  0.00  0.00    -0.241 OA
ENDBRANCH   3  22
TORSDOF 7
ENDMDL
MODEL 3
REMARK VINA RESULT:      -5.0      2.258      4.969
REMARK  7 active torsions:
REMARK  status: ('A' for Active; 'I' for Inactive)
REMARK    1  A    between atoms: C_2  and  C_3 
REMARK    2  A    between atoms: C_3  and  O_6 
REMARK    3  A    between atoms: C_3  and  C_4 
REMARK    4  A    between atoms: C_7  and  O_6 
REMARK    5  A    between atoms: C_9  and  C_10 
REMARK    6  A    between atoms: N_15  and  C_14 
REMARK    7  A    between atoms: N_20  and  C_19 
REMARK       I    between atoms: C_22  and  N_20 
ROOT
ATOM      1  C   LIG d   1      -5.957  75.018 118.054  0.00  0.00     0.161 C 
ATOM      2  C   LIG d   1      -6.015  73.670 117.664  0.00  0.00     0.016 C 
ATOM      3  C   LIG d   1      -7.211  73.024 117.275  0.00  0.00     0.038 C 
ATOM      4  C   LIG d   1      -8.412  73.727 117.104  0.00  0.00     0.028 C 
ATOM      5  C   LIG d   1      -8.510  74.978 117.971  0.00  0.00    -0.047 C 
ATOM      6  C   LIG d   1      -7.237  75.830 117.768  0.00  0.00     0.091 C 
ENDROOT
BRANCH   1   7
ATOM      7  O   LIG d   1      -4.814  75.653 117.448  0.00  0.00    -0.368 OA
BRANCH   7   8
ATOM      8  C   LIG d   1      -4.201  74.943 116.344  0.00  0.00     0.119 C 
BRANCH   8   9
ATOM      9  C   LIG d   1      -2.676  74.981 116.559  0.00  0.00     0.028 C 
ATOM     10  C   LIG d   1      -2.224  74.076 117.717  0.00  0.00     0.006 C 
ENDBRANCH   8   9
BRANCH   8  11
ATOM     11  C   LIG d   1      -4.441  75.665 115.015  0.00  0.00     0.028 C 
ATOM     12  C   LIG d   1      -5.634  75.093 114.233  0.00  0.00     0.006 C 
ENDBRANCH   8  11
ENDBRANCH   7   8
ENDBRANCH   1   7
BRANCH   6  13
ATOM     13  N   LIG d   1      -7.213  77.031 118.643  0.00  0.00    -0.311 N 
ATOM     14  C   LIG d   1      -6.792  78.227 118.236  0.00  0.00     0.210 C 
ATOM     15  C   LIG d   1      -6.831  79.325 119.303  0.00  0.00     0.109 C 
ATOM     16  O   LIG d   1      -6.420  78.491 117.082  0.00  0.00    -0.276 OA
ATOM     17  H   LIG d   1      -7.527  76.914 119.587  0.00  0.00     0.149 HD
ENDBRANCH   6  13
BRANCH   5  18
ATOM     18  N   LIG d   1      -9.747  75.687 117.593  0.00  0.00     0.381 N 
ATOM     19  H   LIG d   1     -10.156  75.250 116.791  0.00  0.00    -0.090 HD
ATOM     20  H   LIG d   1      -9.518  76.635 117.353  0.00  0.00    -0.090 HD
ATOM     21  H   LIG d   1     -10.393  75.675 118.351  0.00  0.00    -0.090 HD
ENDBRANCH   5  18
BRANCH   3  22
ATOM     22  C   LIG d   1      -7.221  71.649 117.091  0.00  0.00     0.382 C 
ATOM     23  O   LIG d   1      -8.279  71.000 117.272  0.00  0.00    -0.241 OA
ATOM     24  O   LIG d   1      -6.174  71.045 116.789  0.00  0.00    -0.241 OA
ENDBRANCH   3  22
TORSDOF 7
ENDMDL
MODEL 4
REMARK VINA RESULT:      -4.8     12.833     15.240
REMARK  7 active torsions:
REMARK  status: ('A' for Active; 'I' for Inactive)
REMARK    1  A    between atoms: C_2  and  C_3 
REMARK    2  A    between atoms: C_3  and  O_6 
REMARK    3  A    between atoms: C_3  and  C_4 
REMARK    4  A    between atoms: C_7  and  O_6 
REMARK    5  A    between atoms: C_9  and  C_10 
REMARK    6  A    between atoms: N_15  and  C_14 
REMARK    7  A    between atoms: N_20  and  C_19 
REMARK       I    between atoms: C_22  and  N_20 
ROOT
ATOM      1  C   LIG d   1       1.622  85.655 113.379  0.00  0.00     0.161 C 
ATOM      2  C   LIG d   1       0.678  84.971 112.596  0.00  0.00     0.016 C 
ATOM      3  C   LIG d   1      -0.402  84.238 113.140  0.00  0.00     0.038 C 
ATOM      4  C   LIG d   1      -0.699  84.265 114.511  0.00  0.00     0.028 C 
ATOM      5  C   LIG d   1       0.519  84.527 115.390  0.00  0.00    -0.047 C 
ATOM      6  C   LIG d   1       1.250  85.787 114.871  0.00  0.00     0.091 C 
ENDROOT
BRANCH   1   7
ATOM      7  O   LIG d   1       1.881  86.953 112.811  0.00  0.00    -0.368 OA
BRANCH   7   8
ATOM      8  C   LIG d   1       3.190  87.140 112.217  0.00  0.00     0.119 C 
BRANCH   8   9
ATOM      9  C   LIG d   1       3.971  85.824 112.395  0.00  0.00     0.028 C 
ATOM     10  C   LIG d   1       4.256  85.125 111.055  0.00  0.00     0.006 C 
ENDBRANCH   8   9
BRANCH   8  11
ATOM     11  C   LIG d   1       3.999  88.197 112.974  0.00  0.00     0.028 C 
ATOM     12  C   LIG d   1       5.497  87.861 113.048  0.00  0.00     0.006 C 
ENDBRANCH   8  11
ENDBRANCH   7   8
ENDBRANCH   1   7
BRANCH   6  13
ATOM     13  N   LIG d   1       2.501  86.066 115.623  0.00  0.00    -0.311 N 
ATOM     14  C   LIG d   1       2.782  87.251 116.165  0.00  0.00     0.210 C 
ATOM     15  C   LIG d   1       4.134  87.330 116.880  0.00  0.00     0.109 C 
ATOM     16  O   LIG d   1       2.025  88.233 116.148  0.00  0.00    -0.276 OA
ATOM     17  H   LIG d   1       3.158  85.316 115.712  0.00  0.00     0.149 HD
ENDBRANCH   6  13
BRANCH   5  18
ATOM     18  N   LIG d   1       0.045  84.666 116.780  0.00  0.00     0.381 N 
ATOM     19  H   LIG d   1       0.790  84.995 117.361  0.00  0.00    -0.090 HD
ATOM     20  H   LIG d   1      -0.243  83.764 117.116  0.00  0.00    -0.090 HD
ATOM     21  H   LIG d   1      -0.721  85.302 116.817  0.00  0.00    -0.090 HD
ENDBRANCH   5  18
BRANCH   3  22
ATOM     22  C   LIG d   1      -1.174  83.436 112.314  0.00  0.00     0.382 C 
ATOM     23  O   LIG d   1      -2.077  82.716 112.805  0.00  0.00    -0.241 OA
ATOM     24  O   LIG d   1      -0.950  83.389 111.090  0.00  0.00    -0.241 OA
ENDBRANCH   3  22
TORSDOF 7
ENDMDL
MODEL 5
REMARK VINA RESULT:      -4.8      1.605      2.027
REMARK  7 active torsions:
REMARK  status: ('A' for Active; 'I' for Inactive)
REMARK    1  A    between atoms: C_2  and  C_3 
REMARK    2  A    between atoms: C_3  and  O_6 
REMARK    3  A    between atoms: C_3  and  C_4 
REMARK    4  A    between atoms: C_7  and  O_6 
REMARK    5  A    between atoms: C_9  and  C_10 
REMARK    6  A    between atoms: N_15  and  C_14 
REMARK    7  A    between atoms: N_20  and  C_19 
REMARK       I    between atoms: C_22  and  N_20 
ROOT
ATOM      1  C   LIG d   1      -6.260  74.814 118.400  0.00  0.00     0.161 C 
ATOM      2  C   LIG d   1      -7.613  75.124 118.184  0.00  0.00     0.016 C 
ATOM      3  C   LIG d   1      -8.094  76.445 118.029  0.00  0.00     0.038 C 
ATOM      4  C   LIG d   1      -7.226  77.542 117.928  0.00  0.00     0.028 C 
ATOM      5  C   LIG d   1      -5.897  77.331 118.646  0.00  0.00    -0.047 C 
ATOM      6  C   LIG d   1      -5.285  75.989 118.183  0.00  0.00     0.091 C 
ENDROOT
BRANCH   1   7
ATOM      7  O   LIG d   1      -5.880  73.689 117.583  0.00  0.00    -0.368 OA
BRANCH   7   8
ATOM      8  C   LIG d   1      -6.610  73.528 116.341  0.00  0.00     0.119 C 
BRANCH   8   9
ATOM      9  C   LIG d   1      -6.812  72.017 116.116  0.00  0.00     0.028 C 
ATOM     10  C   LIG d   1      -8.219  71.546 116.519  0.00  0.00     0.006 C 
ENDBRANCH   8   9
BRANCH   8  11
ATOM     11  C   LIG d   1      -5.786  74.010 115.144  0.00  0.00     0.028 C 
ATOM     12  C   LIG d   1      -6.167  75.428 114.690  0.00  0.00     0.006 C 
ENDBRANCH   8  11
ENDBRANCH   7   8
ENDBRANCH   1   7
BRANCH   6  13
ATOM     13  N   LIG d   1      -4.023  75.664 118.899  0.00  0.00    -0.311 N 
ATOM     14  C   LIG d   1      -2.814  75.942 118.415  0.00  0.00     0.210 C 
ATOM     15  C   LIG d   1      -1.646  75.504 119.305  0.00  0.00     0.109 C 
ATOM     16  O   LIG d   1      -2.598  76.537 117.349  0.00  0.00    -0.276 OA
ATOM     17  H   LIG d   1      -4.107  75.208 119.786  0.00  0.00     0.149 HD
ENDBRANCH   6  13
BRANCH   5  18
ATOM     18  N   LIG d   1      -5.038  78.492 118.345  0.00  0.00     0.381 N 
ATOM     19  H   LIG d   1      -4.085  78.198 118.268  0.00  0.00    -0.090 HD
ATOM     20  H   LIG d   1      -5.105  79.150 119.101  0.00  0.00    -0.090 HD
ATOM     21  H   LIG d   1      -5.331  78.921 117.495  0.00  0.00    -0.090 HD
ENDBRANCH   5  18
BRANCH   3  22
ATOM     22  C   LIG d   1      -9.460  76.682 118.012  0.00  0.00     0.382 C 
ATOM     23  O   LIG d   1      -9.898  77.838 118.226  0.00  0.00    -0.241 OA
ATOM     24  O   LIG d   1     -10.261  75.746 117.830  0.00  0.00    -0.241 OA
ENDBRANCH   3  22
TORSDOF 7
ENDMDL
MODEL 6
REMARK VINA RESULT:      -4.8      9.526     12.609
REMARK  7 active torsions:
REMARK  status: ('A' for Active; 'I' for Inactive)
REMARK    1  A    between atoms: C_2  and  C_3 
REMARK    2  A    between atoms: C_3  and  O_6 
REMARK    3  A    between atoms: C_3  and  C_4 
REMARK    4  A    between atoms: C_7  and  O_6 
REMARK    5  A    between atoms: C_9  and  C_10 
REMARK    6  A    between atoms: N_15  and  C_14 
REMARK    7  A    between atoms: N_20  and  C_19 
REMARK       I    between atoms: C_22  and  N_20 
ROOT
ATOM      1  C   LIG d   1      -0.199  82.941 113.895  0.00  0.00     0.161 C 
ATOM      2  C   LIG d   1       0.957  83.331 113.198  0.00  0.00     0.016 C 
ATOM      3  C   LIG d   1       1.512  82.586 112.133  0.00  0.00     0.038 C 
ATOM      4  C   LIG d   1       0.859  81.469 111.590  0.00  0.00     0.028 C 
ATOM      5  C   LIG d   1      -0.044  80.751 112.587  0.00  0.00    -0.047 C 
ATOM      6  C   LIG d   1      -0.987  81.785 113.244  0.00  0.00     0.091 C 
ENDROOT
BRANCH   1   7
ATOM      7  O   LIG d   1      -1.057  84.082 114.096  0.00  0.00    -0.368 OA
BRANCH   7   8
ATOM      8  C   LIG d   1      -1.083  84.631 115.437  0.00  0.00     0.119 C 
BRANCH   8   9
ATOM      9  C   LIG d   1      -0.121  85.834 115.463  0.00  0.00     0.028 C 
ATOM     10  C   LIG d   1       0.990  85.674 116.515  0.00  0.00     0.006 C 
ENDBRANCH   8   9
BRANCH   8  11
ATOM     11  C   LIG d   1      -0.519  83.638 116.457  0.00  0.00     0.028 C 
ATOM     12  C   LIG d   1      -1.566  83.178 117.483  0.00  0.00     0.006 C 
ENDBRANCH   8  11
ENDBRANCH   7   8
ENDBRANCH   1   7
BRANCH   6  13
ATOM     13  N   LIG d   1      -1.848  81.180 114.294  0.00  0.00    -0.311 N 
ATOM     14  C   LIG d   1      -3.131  81.496 114.462  0.00  0.00     0.210 C 
ATOM     15  C   LIG d   1      -3.829  80.770 115.617  0.00  0.00     0.109 C 
ATOM     16  O   LIG d   1      -3.765  82.284 113.745  0.00  0.00    -0.276 OA
ATOM     17  H   LIG d   1      -1.422  80.508 114.901  0.00  0.00     0.149 HD
ENDBRANCH   6  13
BRANCH   5  18
ATOM     18  N   LIG d   1      -0.766  79.695 111.854  0.00  0.00     0.381 N 
ATOM     19  H   LIG d   1      -0.598  79.788 110.872  0.00  0.00    -0.090 HD
ATOM     20  H   LIG d   1      -1.752  79.801 112.017  0.00  0.00    -0.090 HD
ATOM     21  H   LIG d   1      -0.466  78.797 112.165  0.00  0.00    -0.090 HD
ENDBRANCH   5  18
BRANCH   3  22
ATOM     22  C   LIG d   1       2.755  82.932 111.626  0.00  0.00     0.382 C 
ATOM     23  O   LIG d   1       2.913  84.039 111.056  0.00  0.00    -0.241 OA
ATOM     24  O   LIG d   1       3.710  82.135 111.693  0.00  0.00    -0.241 OA
ENDBRANCH   3  22
TORSDOF 7
ENDMDL
MODEL 7
REMARK VINA RESULT:      -4.7      2.112      5.071
REMARK  7 active torsions:
REMARK  status: ('A' for Active; 'I' for Inactive)
REMARK    1  A    between atoms: C_2  and  C_3 
REMARK    2  A    between atoms: C_3  and  O_6 
REMARK    3  A    between atoms: C_3  and  C_4 
REMARK    4  A    between atoms: C_7  and  O_6 
REMARK    5  A    between atoms: C_9  and  C_10 
REMARK    6  A    between atoms: N_15  and  C_14 
REMARK    7  A    between atoms: N_20  and  C_19 
REMARK       I    between atoms: C_22  and  N_20 
ROOT
ATOM      1  C   LIG d   1      -5.326  74.859 117.208  0.00  0.00     0.161 C 
ATOM      2  C   LIG d   1      -4.137  74.430 116.597  0.00  0.00     0.016 C 
ATOM      3  C   LIG d   1      -2.875  75.014 116.852  0.00  0.00     0.038 C 
ATOM      4  C   LIG d   1      -2.693  75.975 117.857  0.00  0.00     0.028 C 
ATOM      5  C   LIG d   1      -3.946  76.795 118.145  0.00  0.00    -0.047 C 
ATOM      6  C   LIG d   1      -5.131  75.832 118.390  0.00  0.00     0.091 C 
ENDROOT
BRANCH   1   7
ATOM      7  O   LIG d   1      -6.103  73.718 117.622  0.00  0.00    -0.368 OA
BRANCH   7   8
ATOM      8  C   LIG d   1      -7.157  73.302 116.719  0.00  0.00     0.119 C 
BRANCH   8   9
ATOM      9  C   LIG d   1      -8.502  73.664 117.378  0.00  0.00     0.028 C 
ATOM     10  C   LIG d   1      -9.203  74.838 116.675  0.00  0.00     0.006 C 
ENDBRANCH   8   9
BRANCH   8  11
ATOM     11  C   LIG d   1      -7.182  71.780 116.555  0.00  0.00     0.028 C 
ATOM     12  C   LIG d   1      -8.595  71.190 116.684  0.00  0.00     0.006 C 
ENDBRANCH   8  11
ENDBRANCH   7   8
ENDBRANCH   1   7
BRANCH   6  13
ATOM     13  N   LIG d   1      -6.414  76.553 118.596  0.00  0.00    -0.311 N 
ATOM     14  C   LIG d   1      -6.862  77.502 117.776  0.00  0.00     0.210 C 
ATOM     15  C   LIG d   1      -8.198  78.132 118.183  0.00  0.00     0.109 C 
ATOM     16  O   LIG d   1      -6.295  77.860 116.732  0.00  0.00    -0.276 OA
ATOM     17  H   LIG d   1      -6.953  76.303 119.402  0.00  0.00     0.149 HD
ENDBRANCH   6  13
BRANCH   5  18
ATOM     18  N   LIG d   1      -3.656  77.661 119.304  0.00  0.00     0.381 N 
ATOM     19  H   LIG d   1      -2.875  78.252 119.098  0.00  0.00    -0.090 HD
ATOM     20  H   LIG d   1      -3.416  77.082 120.090  0.00  0.00    -0.090 HD
ATOM     21  H   LIG d   1      -4.454  78.216 119.523  0.00  0.00    -0.090 HD
ENDBRANCH   5  18
BRANCH   3  22
ATOM     22  C   LIG d   1      -1.785  74.665 116.069  0.00  0.00     0.382 C 
ATOM     23  O   LIG d   1      -1.690  75.101 114.897  0.00  0.00    -0.241 OA
ATOM     24  O   LIG d   1      -0.918  73.884 116.506  0.00  0.00    -0.241 OA
ENDBRANCH   3  22
TORSDOF 7
ENDMDL
MODEL 8
REMARK VINA RESULT:      -4.6     16.777     19.587
REMARK  7 active torsions:
REMARK  status: ('A' for Active; 'I' for Inactive)
REMARK    1  A    between atoms: C_2  and  C_3 
REMARK    2  A    between atoms: C_3  and  O_6 
REMARK    3  A    between atoms: C_3  and  C_4 
REMARK    4  A    between atoms: C_7  and  O_6 
REMARK    5  A    between atoms: C_9  and  C_10 
REMARK    6  A    between atoms: N_15  and  C_14 
REMARK    7  A    between atoms: N_20  and  C_19 
REMARK       I    between atoms: C_22  and  N_20 
ROOT
ATOM      1  C   LIG d   1      12.041  79.194 114.719  0.00  0.00     0.161 C 
ATOM      2  C   LIG d   1      11.488  80.366 114.177  0.00  0.00     0.016 C 
ATOM      3  C   LIG d   1      11.487  80.659 112.794  0.00  0.00     0.038 C 
ATOM      4  C   LIG d   1      11.908  79.723 111.838  0.00  0.00     0.028 C 
ATOM      5  C   LIG d   1      12.938  78.733 112.371  0.00  0.00    -0.047 C 
ATOM      6  C   LIG d   1      12.404  78.111 113.682  0.00  0.00     0.091 C 
ENDROOT
BRANCH   1   7
ATOM      7  O   LIG d   1      11.155  78.653 115.719  0.00  0.00    -0.368 OA
BRANCH   7   8
ATOM      8  C   LIG d   1       9.753  78.992 115.580  0.00  0.00     0.119 C 
BRANCH   8   9
ATOM      9  C   LIG d   1       9.175  79.163 116.998  0.00  0.00     0.028 C 
ATOM     10  C   LIG d   1       9.671  80.447 117.683  0.00  0.00     0.006 C 
ENDBRANCH   8   9
BRANCH   8  11
ATOM     11  C   LIG d   1       8.960  77.840 114.955  0.00  0.00     0.028 C 
ATOM     12  C   LIG d   1       7.451  77.941 115.224  0.00  0.00     0.006 C 
ENDBRANCH   8  11
ENDBRANCH   7   8
ENDBRANCH   1   7
BRANCH   6  13
ATOM     13  N   LIG d   1      13.387  77.193 114.315  0.00  0.00    -0.311 N 
ATOM     14  C   LIG d   1      13.094  75.948 114.685  0.00  0.00     0.210 C 
ATOM     15  C   LIG d   1      14.248  75.179 115.338  0.00  0.00     0.109 C 
ATOM     16  O   LIG d   1      11.999  75.396 114.506  0.00  0.00    -0.276 OA
ATOM     17  H   LIG d   1      14.310  77.550 114.470  0.00  0.00     0.149 HD
ENDBRANCH   6  13
BRANCH   5  18
ATOM     18  N   LIG d   1      13.185  77.733 111.315  0.00  0.00     0.381 N 
ATOM     19  H   LIG d   1      13.147  78.173 110.417  0.00  0.00    -0.090 HD
ATOM     20  H   LIG d   1      12.464  77.034 111.355  0.00  0.00    -0.090 HD
ATOM     21  H   LIG d   1      14.077  77.310 111.448  0.00  0.00    -0.090 HD
ENDBRANCH   5  18
BRANCH   3  22
ATOM     22  C   LIG d   1      11.099  81.917 112.358  0.00  0.00     0.382 C 
ATOM     23  O   LIG d   1      11.384  82.293 111.195  0.00  0.00    -0.241 OA
ATOM     24  O   LIG d   1      10.506  82.697 113.127  0.00  0.00    -0.241 OA
ENDBRANCH   3  22
TORSDOF 7
ENDMDL
MODEL 9
REMARK VINA RESULT:      -4.5     17.038     18.871
REMARK  7 active torsions:
REMARK  status: ('A' for Active; 'I' for Inactive)
REMARK    1  A    between atoms: C_2  and  C_3 
REMARK    2  A    between atoms: C_3  and  O_6 
REMARK    3  A    between atoms: C_3  and  C_4 
REMARK    4  A    between atoms: C_7  and  O_6 
REMARK    5  A    between atoms: C_9  and  C_10 
REMARK    6  A    between atoms: N_15  and  C_14 
REMARK    7  A    between atoms: N_20  and  C_19 
REMARK       I    between atoms: C_22  and  N_20 
ROOT
ATOM      1  C   LIG d   1      -0.603  57.316 118.874  0.00  0.00     0.161 C 
ATOM      2  C   LIG d   1      -1.971  57.089 118.648  0.00  0.00     0.016 C 
ATOM      3  C   LIG d   1      -2.670  57.593 117.527  0.00  0.00     0.038 C 
ATOM      4  C   LIG d   1      -2.009  58.237 116.470  0.00  0.00     0.028 C 
ATOM      5  C   LIG d   1      -0.718  58.928 116.894  0.00  0.00    -0.047 C 
ATOM      6  C   LIG d   1       0.158  57.921 117.675  0.00  0.00     0.091 C 
ENDROOT
BRANCH   1   7
ATOM      7  O   LIG d   1       0.030  56.095 119.305  0.00  0.00    -0.368 OA
BRANCH   7   8
ATOM      8  C   LIG d   1       0.812  55.396 118.306  0.00  0.00     0.119 C 
BRANCH   8   9
ATOM      9  C   LIG d   1      -0.078  54.287 117.713  0.00  0.00     0.028 C 
ATOM     10  C   LIG d   1      -0.749  53.430 118.800  0.00  0.00     0.006 C 
ENDBRANCH   8   9
BRANCH   8  11
ATOM     11  C   LIG d   1       2.001  54.667 118.939  0.00  0.00     0.028 C 
ATOM     12  C   LIG d   1       3.239  55.565 119.090  0.00  0.00     0.006 C 
ENDBRANCH   8  11
ENDBRANCH   7   8
ENDBRANCH   1   7
BRANCH   6  13
ATOM     13  N   LIG d   1       1.403  58.540 118.200  0.00  0.00    -0.311 N 
ATOM     14  C   LIG d   1       2.511  58.684 117.475  0.00  0.00     0.210 C 
ATOM     15  C   LIG d   1       3.687  59.330 118.215  0.00  0.00     0.109 C 
ATOM     16  O   LIG d   1       2.622  58.369 116.281  0.00  0.00    -0.276 OA
ATOM     17  H   LIG d   1       1.391  58.854 119.151  0.00  0.00     0.149 HD
ENDBRANCH   6  13
BRANCH   5  18
ATOM     18  N   LIG d   1      -0.063  59.438 115.674  0.00  0.00     0.381 N 
ATOM     19  H   LIG d   1       0.383  58.685 115.190  0.00  0.00    -0.090 HD
ATOM     20  H   LIG d   1       0.640  60.105 115.937  0.00  0.00    -0.090 HD
ATOM     21  H   LIG d   1      -0.737  59.871 115.082  0.00  0.00    -0.090 HD
ENDBRANCH   5  18
BRANCH   3  22
ATOM     22  C   LIG d   1      -4.051  57.490 117.475  0.00  0.00     0.382 C 
ATOM     23  O   LIG d   1      -4.743  58.487 117.155  0.00  0.00    -0.241 OA
ATOM     24  O   LIG d   1      -4.618  56.426 117.787  0.00  0.00    -0.241 OA
ENDBRANCH   3  22
TORSDOF 7
ENDMDL
