MODEL 1
REMARK VINA RESULT:      -5.4      0.000      0.000
REMARK  7 active torsions:
REMARK  status: ('A' for Active; 'I' for Inactive)
REMARK    1  A    between atoms: C_2  and  C_3 
REMARK    2  A    between atoms: C_3  and  O_6 
REMARK    3  A    between atoms: C_3  and  C_4 
REMARK    4  A    between atoms: C_7  and  O_6 
REMARK    5  A    between atoms: C_9  and  C_10 
REMARK    6  A    between atoms: N_15  and  C_14 
REMARK    7  A    between atoms: N_20  and  C_19 
REMARK       I    between atoms: C_22  and  N_20 
ROOT
ATOM      1  C   LIG d   1     -15.060  66.397 115.964  0.00  0.00     0.161 C 
ATOM      2  C   LIG d   1     -14.764  67.567 115.244  0.00  0.00     0.016 C 
ATOM      3  C   LIG d   1     -15.018  67.714 113.861  0.00  0.00     0.038 C 
ATOM      4  C   LIG d   1     -15.728  66.750 113.131  0.00  0.00     0.028 C 
ATOM      5  C   LIG d   1     -15.598  65.342 113.700  0.00  0.00    -0.047 C 
ATOM      6  C   LIG d   1     -15.936  65.377 115.208  0.00  0.00     0.091 C 
ENDROOT
BRANCH   1   7
ATOM      7  O   LIG d   1     -15.666  66.740 117.226  0.00  0.00    -0.368 OA
BRANCH   7   8
ATOM      8  C   LIG d   1     -14.810  66.645 118.391  0.00  0.00     0.119 C 
BRANCH   8   9
ATOM      9  C   LIG d   1     -15.293  65.442 119.224  0.00  0.00     0.028 C 
ATOM     10  C   LIG d   1     -14.266  64.298 119.253  0.00  0.00     0.006 C 
ENDBRANCH   8   9
BRANCH   8  11
ATOM     11  C   LIG d   1     -14.975  67.864 119.304  0.00  0.00     0.028 C 
ATOM     12  C   LIG d   1     -16.265  68.650 119.022  0.00  0.00     0.006 C 
ENDBRANCH   8  11
ENDBRANCH   7   8
ENDBRANCH   1   7
BRANCH   6  13
ATOM     13  N   LIG d   1     -15.752  64.054 115.861  0.00  0.00    -0.311 N 
ATOM     14  C   LIG d   1     -16.745  63.374 116.431  0.00  0.00     0.210 C 
ATOM     15  C   LIG d   1     -16.335  62.041 117.065  0.00  0.00     0.109 C 
ATOM     16  O   LIG d   1     -17.932  63.732 116.444  0.00  0.00    -0.276 OA
ATOM     17  H   LIG d   1     -14.826  63.675 115.869  0.00  0.00     0.149 HD
ENDBRANCH   6  13
BRANCH   5  18
ATOM     18  N   LIG d   1     -16.496  64.464 112.926  0.00  0.00     0.381 N 
ATOM     19  H   LIG d   1     -15.983  64.018 112.192  0.00  0.00    -0.090 HD
ATOM     20  H   LIG d   1     -17.220  65.024 112.511  0.00  0.00    -0.090 HD
ATOM     21  H   LIG d   1     -16.899  63.776 113.524  0.00  0.00    -0.090 HD
ENDBRANCH   5  18
BRANCH   3  22
ATOM     22  C   LIG d   1     -14.523  68.820 113.186  0.00  0.00     0.382 C 
ATOM     23  O   LIG d   1     -14.937  69.087 112.032  0.00  0.00    -0.241 OA
ATOM     24  O   LIG d   1     -13.636  69.528 113.699  0.00  0.00    -0.241 OA
ENDBRANCH   3  22
TORSDOF 7
ENDMDL
MODEL 2
REMARK VINA RESULT:      -5.1     26.858     29.253
REMARK  7 active torsions:
REMARK  status: ('A' for Active; 'I' for Inactive)
REMARK    1  A    between atoms: C_2  and  C_3 
REMARK    2  A    between atoms: C_3  and  O_6 
REMARK    3  A    between atoms: C_3  and  C_4 
REMARK    4  A    between atoms: C_7  and  O_6 
REMARK    5  A    between atoms: C_9  and  C_10 
REMARK    6  A    between atoms: N_15  and  C_14 
REMARK    7  A    between atoms: N_20  and  C_19 
REMARK       I    between atoms: C_22  and  N_20 
ROOT
ATOM      1  C   LIG d   1      -5.600  93.630 117.077  0.00  0.00     0.161 C 
ATOM      2  C   LIG d   1      -6.691  92.813 116.738  0.00  0.00     0.016 C 
ATOM      3  C   LIG d   1      -6.566  91.441 116.419  0.00  0.00     0.038 C 
ATOM      4  C   LIG d   1      -5.352  90.753 116.565  0.00  0.00     0.028 C 
ATOM      5  C   LIG d   1      -4.127  91.649 116.416  0.00  0.00    -0.047 C 
ATOM      6  C   LIG d   1      -4.284  92.872 117.349  0.00  0.00     0.091 C 
ENDROOT
BRANCH   1   7
ATOM      7  O   LIG d   1      -5.942  94.460 118.204  0.00  0.00    -0.368 OA
BRANCH   7   8
ATOM      8  C   LIG d   1      -7.038  95.386 118.004  0.00  0.00     0.119 C 
BRANCH   8   9
ATOM      9  C   LIG d   1      -6.444  96.808 117.976  0.00  0.00     0.028 C 
ATOM     10  C   LIG d   1      -5.215  96.948 118.890  0.00  0.00     0.006 C 
ENDBRANCH   8   9
BRANCH   8  11
ATOM     11  C   LIG d   1      -8.003  95.373 119.194  0.00  0.00     0.028 C 
ATOM     12  C   LIG d   1      -8.795  94.061 119.305  0.00  0.00     0.006 C 
ENDBRANCH   8  11
ENDBRANCH   7   8
ENDBRANCH   1   7
BRANCH   6  13
ATOM     13  N   LIG d   1      -3.167  93.843 117.204  0.00  0.00    -0.311 N 
ATOM     14  C   LIG d   1      -2.076  93.824 117.967  0.00  0.00     0.210 C 
ATOM     15  C   LIG d   1      -1.056  94.926 117.664  0.00  0.00     0.109 C 
ATOM     16  O   LIG d   1      -1.840  92.979 118.844  0.00  0.00    -0.276 OA
ATOM     17  H   LIG d   1      -3.262  94.543 116.495  0.00  0.00     0.149 HD
ENDBRANCH   6  13
BRANCH   5  18
ATOM     18  N   LIG d   1      -2.938  90.834 116.727  0.00  0.00     0.381 N 
ATOM     19  H   LIG d   1      -2.108  91.340 116.491  0.00  0.00    -0.090 HD
ATOM     20  H   LIG d   1      -2.964  89.996 116.174  0.00  0.00    -0.090 HD
ATOM     21  H   LIG d   1      -2.928  90.601 117.696  0.00  0.00    -0.090 HD
ENDBRANCH   5  18
BRANCH   3  22
ATOM     22  C   LIG d   1      -7.656  90.752 115.910  0.00  0.00     0.382 C 
ATOM     23  O   LIG d   1      -8.031  90.955 114.730  0.00  0.00    -0.241 OA
ATOM     24  O   LIG d   1      -8.297  89.962 116.629  0.00  0.00    -0.241 OA
ENDBRANCH   3  22
TORSDOF 7
ENDMDL
MODEL 3
REMARK VINA RESULT:      -4.9      2.280      4.323
REMARK  7 active torsions:
REMARK  status: ('A' for Active; 'I' for Inactive)
REMARK    1  A    between atoms: C_2  and  C_3 
REMARK    2  A    between atoms: C_3  and  O_6 
REMARK    3  A    between atoms: C_3  and  C_4 
REMARK    4  A    between atoms: C_7  and  O_6 
REMARK    5  A    between atoms: C_9  and  C_10 
REMARK    6  A    between atoms: N_15  and  C_14 
REMARK    7  A    between atoms: N_20  and  C_19 
REMARK       I    between atoms: C_22  and  N_20 
ROOT
ATOM      1  C   LIG d   1     -16.464  66.317 113.776  0.00  0.00     0.161 C 
ATOM      2  C   LIG d   1     -15.975  67.204 112.803  0.00  0.00     0.016 C 
ATOM      3  C   LIG d   1     -14.920  68.115 113.039  0.00  0.00     0.038 C 
ATOM      4  C   LIG d   1     -14.176  68.096 114.228  0.00  0.00     0.028 C 
ATOM      5  C   LIG d   1     -14.959  67.563 115.424  0.00  0.00    -0.047 C 
ATOM      6  C   LIG d   1     -15.591  66.204 115.044  0.00  0.00     0.091 C 
ENDROOT
BRANCH   1   7
ATOM      7  O   LIG d   1     -16.669  65.016 113.192  0.00  0.00    -0.368 OA
BRANCH   7   8
ATOM      8  C   LIG d   1     -18.048  64.620 112.987  0.00  0.00     0.119 C 
BRANCH   8   9
ATOM      9  C   LIG d   1     -18.939  65.784 113.462  0.00  0.00     0.028 C 
ATOM     10  C   LIG d   1     -19.971  65.343 114.514  0.00  0.00     0.006 C 
ENDBRANCH   8   9
BRANCH   8  11
ATOM     11  C   LIG d   1     -18.425  63.432 113.878  0.00  0.00     0.028 C 
ATOM     12  C   LIG d   1     -17.198  62.683 114.423  0.00  0.00     0.006 C 
ENDBRANCH   8  11
ENDBRANCH   7   8
ENDBRANCH   1   7
BRANCH   6  13
ATOM     13  N   LIG d   1     -16.444  65.653 116.129  0.00  0.00    -0.311 N 
ATOM     14  C   LIG d   1     -16.000  64.794 117.046  0.00  0.00     0.210 C 
ATOM     15  C   LIG d   1     -17.050  64.335 118.063  0.00  0.00     0.109 C 
ATOM     16  O   LIG d   1     -14.830  64.394 117.132  0.00  0.00    -0.276 OA
ATOM     17  H   LIG d   1     -17.400  65.948 116.153  0.00  0.00     0.149 HD
ENDBRANCH   6  13
BRANCH   5  18
ATOM     18  N   LIG d   1     -14.025  67.468 116.561  0.00  0.00     0.381 N 
ATOM     19  H   LIG d   1     -13.907  68.370 116.979  0.00  0.00    -0.090 HD
ATOM     20  H   LIG d   1     -13.131  67.157 116.223  0.00  0.00    -0.090 HD
ATOM     21  H   LIG d   1     -14.375  66.825 117.237  0.00  0.00    -0.090 HD
ENDBRANCH   5  18
BRANCH   3  22
ATOM     22  C   LIG d   1     -14.626  69.087 112.094  0.00  0.00     0.382 C 
ATOM     23  O   LIG d   1     -15.527  69.861 111.690  0.00  0.00    -0.241 OA
ATOM     24  O   LIG d   1     -13.482  69.169 111.608  0.00  0.00    -0.241 OA
ENDBRANCH   3  22
TORSDOF 7
ENDMDL
MODEL 4
REMARK VINA RESULT:      -4.8     26.398     28.763
REMARK  7 active torsions:
REMARK  status: ('A' for Active; 'I' for Inactive)
REMARK    1  A    between atoms: C_2  and  C_3 
REMARK    2  A    between atoms: C_3  and  O_6 
REMARK    3  A    between atoms: C_3  and  C_4 
REMARK    4  A    between atoms: C_7  and  O_6 
REMARK    5  A    between atoms: C_9  and  C_10 
REMARK    6  A    between atoms: N_15  and  C_14 
REMARK    7  A    between atoms: N_20  and  C_19 
REMARK       I    between atoms: C_22  and  N_20 
ROOT
ATOM      1  C   LIG d   1       3.022  87.620 114.977  0.00  0.00     0.161 C 
ATOM      2  C   LIG d   1       2.196  87.111 113.962  0.00  0.00     0.016 C 
ATOM      3  C   LIG d   1       2.584  87.042 112.604  0.00  0.00     0.038 C 
ATOM      4  C   LIG d   1       3.890  87.342 112.190  0.00  0.00     0.028 C 
ATOM      5  C   LIG d   1       4.601  88.338 113.100  0.00  0.00    -0.047 C 
ATOM      6  C   LIG d   1       4.491  87.848 114.562  0.00  0.00     0.091 C 
ENDROOT
BRANCH   1   7
ATOM      7  O   LIG d   1       2.956  86.766 116.136  0.00  0.00    -0.368 OA
BRANCH   7   8
ATOM      8  C   LIG d   1       2.428  87.369 117.343  0.00  0.00     0.119 C 
BRANCH   8   9
ATOM      9  C   LIG d   1       1.545  86.315 118.040  0.00  0.00     0.028 C 
ATOM     10  C   LIG d   1       1.644  84.933 117.372  0.00  0.00     0.006 C 
ENDBRANCH   8   9
BRANCH   8  11
ATOM     11  C   LIG d   1       1.489  88.535 117.019  0.00  0.00     0.028 C 
ATOM     12  C   LIG d   1       0.375  88.711 118.064  0.00  0.00     0.006 C 
ENDBRANCH   8  11
ENDBRANCH   7   8
ENDBRANCH   1   7
BRANCH   6  13
ATOM     13  N   LIG d   1       5.087  88.808 115.528  0.00  0.00    -0.311 N 
ATOM     14  C   LIG d   1       4.717  90.085 115.616  0.00  0.00     0.210 C 
ATOM     15  C   LIG d   1       5.473  90.906 116.665  0.00  0.00     0.109 C 
ATOM     16  O   LIG d   1       3.812  90.606 114.948  0.00  0.00    -0.276 OA
ATOM     17  H   LIG d   1       5.808  88.461 116.130  0.00  0.00     0.149 HD
ENDBRANCH   6  13
BRANCH   5  18
ATOM     18  N   LIG d   1       5.995  88.453 112.632  0.00  0.00     0.381 N 
ATOM     19  H   LIG d   1       6.017  88.462 111.632  0.00  0.00    -0.090 HD
ATOM     20  H   LIG d   1       6.512  87.654 112.952  0.00  0.00    -0.090 HD
ATOM     21  H   LIG d   1       6.406  89.288 112.988  0.00  0.00    -0.090 HD
ENDBRANCH   5  18
BRANCH   3  22
ATOM     22  C   LIG d   1       1.647  86.708 111.638  0.00  0.00     0.382 C 
ATOM     23  O   LIG d   1       0.738  87.520 111.339  0.00  0.00    -0.241 OA
ATOM     24  O   LIG d   1       1.672  85.588 111.094  0.00  0.00    -0.241 OA
ENDBRANCH   3  22
TORSDOF 7
ENDMDL
MODEL 5
REMARK VINA RESULT:      -4.8     26.388     28.696
REMARK  7 active torsions:
REMARK  status: ('A' for Active; 'I' for Inactive)
REMARK    1  A    between atoms: C_2  and  C_3 
REMARK    2  A    between atoms: C_3  and  O_6 
REMARK    3  A    between atoms: C_3  and  C_4 
REMARK    4  A    between atoms: C_7  and  O_6 
REMARK    5  A    between atoms: C_9  and  C_10 
REMARK    6  A    between atoms: N_15  and  C_14 
REMARK    7  A    between atoms: N_20  and  C_19 
REMARK       I    between atoms: C_22  and  N_20 
ROOT
ATOM      1  C   LIG d   1       3.062  87.590 115.033  0.00  0.00     0.161 C 
ATOM      2  C   LIG d   1       2.214  87.084 114.034  0.00  0.00     0.016 C 
ATOM      3  C   LIG d   1       2.556  87.057 112.662  0.00  0.00     0.038 C 
ATOM      4  C   LIG d   1       3.841  87.398 112.212  0.00  0.00     0.028 C 
ATOM      5  C   LIG d   1       4.558  88.389 113.122  0.00  0.00    -0.047 C 
ATOM      6  C   LIG d   1       4.510  87.863 114.574  0.00  0.00     0.091 C 
ENDROOT
BRANCH   1   7
ATOM      7  O   LIG d   1       3.056  86.708 116.172  0.00  0.00    -0.368 OA
BRANCH   7   8
ATOM      8  C   LIG d   1       2.782  85.312 115.896  0.00  0.00     0.119 C 
BRANCH   8   9
ATOM      9  C   LIG d   1       1.966  84.757 117.080  0.00  0.00     0.028 C 
ATOM     10  C   LIG d   1       1.462  85.868 118.017  0.00  0.00     0.006 C 
ENDBRANCH   8   9
BRANCH   8  11
ATOM     11  C   LIG d   1       4.071  84.486 115.870  0.00  0.00     0.028 C 
ATOM     12  C   LIG d   1       5.078  84.919 116.947  0.00  0.00     0.006 C 
ENDBRANCH   8  11
ENDBRANCH   7   8
ENDBRANCH   1   7
BRANCH   6  13
ATOM     13  N   LIG d   1       5.117  88.814 115.542  0.00  0.00    -0.311 N 
ATOM     14  C   LIG d   1       4.747  90.090 115.646  0.00  0.00     0.210 C 
ATOM     15  C   LIG d   1       5.515  90.902 116.694  0.00  0.00     0.109 C 
ATOM     16  O   LIG d   1       3.835  90.617 114.992  0.00  0.00    -0.276 OA
ATOM     17  H   LIG d   1       5.843  88.462 116.134  0.00  0.00     0.149 HD
ENDBRANCH   6  13
BRANCH   5  18
ATOM     18  N   LIG d   1       5.933  88.549 112.610  0.00  0.00     0.381 N 
ATOM     19  H   LIG d   1       6.102  89.510 112.388  0.00  0.00    -0.090 HD
ATOM     20  H   LIG d   1       6.031  88.009 111.768  0.00  0.00    -0.090 HD
ATOM     21  H   LIG d   1       6.589  88.237 113.292  0.00  0.00    -0.090 HD
ENDBRANCH   5  18
BRANCH   3  22
ATOM     22  C   LIG d   1       1.595  86.724 111.721  0.00  0.00     0.382 C 
ATOM     23  O   LIG d   1       1.603  85.586 111.192  0.00  0.00    -0.241 OA
ATOM     24  O   LIG d   1       0.747  87.561 111.360  0.00  0.00    -0.241 OA
ENDBRANCH   3  22
TORSDOF 7
ENDMDL
MODEL 6
REMARK VINA RESULT:      -4.7     19.969     21.842
REMARK  7 active torsions:
REMARK  status: ('A' for Active; 'I' for Inactive)
REMARK    1  A    between atoms: C_2  and  C_3 
REMARK    2  A    between atoms: C_3  and  O_6 
REMARK    3  A    between atoms: C_3  and  C_4 
REMARK    4  A    between atoms: C_7  and  O_6 
REMARK    5  A    between atoms: C_9  and  C_10 
REMARK    6  A    between atoms: N_15  and  C_14 
REMARK    7  A    between atoms: N_20  and  C_19 
REMARK       I    between atoms: C_22  and  N_20 
ROOT
ATOM      1  C   LIG d   1     -25.546  85.356 114.227  0.00  0.00     0.161 C 
ATOM      2  C   LIG d   1     -24.510  86.302 114.156  0.00  0.00     0.016 C 
ATOM      3  C   LIG d   1     -23.255  86.038 113.560  0.00  0.00     0.038 C 
ATOM      4  C   LIG d   1     -23.003  84.852 112.855  0.00  0.00     0.028 C 
ATOM      5  C   LIG d   1     -23.842  83.672 113.336  0.00  0.00    -0.047 C 
ATOM      6  C   LIG d   1     -25.329  84.094 113.366  0.00  0.00     0.091 C 
ENDROOT
BRANCH   1   7
ATOM      7  O   LIG d   1     -26.801  85.980 113.894  0.00  0.00    -0.368 OA
BRANCH   7   8
ATOM      8  C   LIG d   1     -26.989  86.330 112.501  0.00  0.00     0.119 C 
BRANCH   8   9
ATOM      9  C   LIG d   1     -27.413  87.811 112.449  0.00  0.00     0.028 C 
ATOM     10  C   LIG d   1     -26.228  88.752 112.176  0.00  0.00     0.006 C 
ENDBRANCH   8   9
BRANCH   8  11
ATOM     11  C   LIG d   1     -28.155  85.553 111.883  0.00  0.00     0.028 C 
ATOM     12  C   LIG d   1     -29.177  85.080 112.929  0.00  0.00     0.006 C 
ENDBRANCH   8  11
ENDBRANCH   7   8
ENDBRANCH   1   7
BRANCH   6  13
ATOM     13  N   LIG d   1     -26.210  83.025 113.905  0.00  0.00    -0.311 N 
ATOM     14  C   LIG d   1     -26.868  82.160 113.135  0.00  0.00     0.210 C 
ATOM     15  C   LIG d   1     -27.737  81.151 113.893  0.00  0.00     0.109 C 
ATOM     16  O   LIG d   1     -26.789  82.111 111.898  0.00  0.00    -0.276 OA
ATOM     17  H   LIG d   1     -26.307  82.972 114.900  0.00  0.00     0.149 HD
ENDBRANCH   6  13
BRANCH   5  18
ATOM     18  N   LIG d   1     -23.580  82.540 112.428  0.00  0.00     0.381 N 
ATOM     19  H   LIG d   1     -23.962  82.735 111.524  0.00  0.00    -0.090 HD
ATOM     20  H   LIG d   1     -24.034  81.720 112.791  0.00  0.00    -0.090 HD
ATOM     21  H   LIG d   1     -22.599  82.381 112.355  0.00  0.00    -0.090 HD
ENDBRANCH   5  18
BRANCH   3  22
ATOM     22  C   LIG d   1     -22.222  86.953 113.700  0.00  0.00     0.382 C 
ATOM     23  O   LIG d   1     -21.049  86.625 113.399  0.00  0.00    -0.241 OA
ATOM     24  O   LIG d   1     -22.441  88.087 114.166  0.00  0.00    -0.241 OA
ENDBRANCH   3  22
TORSDOF 7
ENDMDL
MODEL 7
REMARK VINA RESULT:      -4.7     12.684     14.786
REMARK  7 active torsions:
REMARK  status: ('A' for Active; 'I' for Inactive)
REMARK    1  A    between atoms: C_2  and  C_3 
REMARK    2  A    between atoms: C_3  and  O_6 
REMARK    3  A    between atoms: C_3  and  C_4 
REMARK    4  A    between atoms: C_7  and  O_6 
REMARK    5  A    between atoms: C_9  and  C_10 
REMARK    6  A    between atoms: N_15  and  C_14 
REMARK    7  A    between atoms: N_20  and  C_19 
REMARK       I    between atoms: C_22  and  N_20 
ROOT
ATOM      1  C   LIG d   1      -6.511  76.072 118.780  0.00  0.00     0.161 C 
ATOM      2  C   LIG d   1      -7.663  76.874 118.818  0.00  0.00     0.016 C 
ATOM      3  C   LIG d   1      -7.682  78.229 118.413  0.00  0.00     0.038 C 
ATOM      4  C   LIG d   1      -6.577  78.835 117.798  0.00  0.00     0.028 C 
ATOM      5  C   LIG d   1      -5.244  78.215 118.203  0.00  0.00    -0.047 C 
ATOM      6  C   LIG d   1      -5.322  76.683 118.009  0.00  0.00     0.091 C 
ENDROOT
BRANCH   1   7
ATOM      7  O   LIG d   1      -6.837  74.772 118.251  0.00  0.00    -0.368 OA
BRANCH   7   8
ATOM      8  C   LIG d   1      -7.193  74.727 116.847  0.00  0.00     0.119 C 
BRANCH   8   9
ATOM      9  C   LIG d   1      -8.609  74.126 116.748  0.00  0.00     0.028 C 
ATOM     10  C   LIG d   1      -9.660  75.166 116.325  0.00  0.00     0.006 C 
ENDBRANCH   8   9
BRANCH   8  11
ATOM     11  C   LIG d   1      -6.288  73.763 116.073  0.00  0.00     0.028 C 
ATOM     12  C   LIG d   1      -5.666  74.405 114.823  0.00  0.00     0.006 C 
ENDBRANCH   8  11
ENDBRANCH   7   8
ENDBRANCH   1   7
BRANCH   6  13
ATOM     13  N   LIG d   1      -4.088  75.990 118.461  0.00  0.00    -0.311 N 
ATOM     14  C   LIG d   1      -3.074  75.695 117.650  0.00  0.00     0.210 C 
ATOM     15  C   LIG d   1      -1.906  74.961 118.315  0.00  0.00     0.109 C 
ATOM     16  O   LIG d   1      -3.017  76.000 116.449  0.00  0.00    -0.276 OA
ATOM     17  H   LIG d   1      -4.037  75.734 119.427  0.00  0.00     0.149 HD
ENDBRANCH   6  13
BRANCH   5  18
ATOM     18  N   LIG d   1      -4.191  78.848 117.386  0.00  0.00     0.381 N 
ATOM     19  H   LIG d   1      -4.073  78.340 116.532  0.00  0.00    -0.090 HD
ATOM     20  H   LIG d   1      -3.324  78.818 117.893  0.00  0.00    -0.090 HD
ATOM     21  H   LIG d   1      -4.436  79.793 117.187  0.00  0.00    -0.090 HD
ENDBRANCH   5  18
BRANCH   3  22
ATOM     22  C   LIG d   1      -8.805  79.004 118.660  0.00  0.00     0.382 C 
ATOM     23  O   LIG d   1      -9.927  78.458 118.791  0.00  0.00    -0.241 OA
ATOM     24  O   LIG d   1      -8.717  80.246 118.710  0.00  0.00    -0.241 OA
ENDBRANCH   3  22
TORSDOF 7
ENDMDL
MODEL 8
REMARK VINA RESULT:      -4.5     17.357     18.946
REMARK  7 active torsions:
REMARK  status: ('A' for Active; 'I' for Inactive)
REMARK    1  A    between atoms: C_2  and  C_3 
REMARK    2  A    between atoms: C_3  and  O_6 
REMARK    3  A    between atoms: C_3  and  C_4 
REMARK    4  A    between atoms: C_7  and  O_6 
REMARK    5  A    between atoms: C_9  and  C_10 
REMARK    6  A    between atoms: N_15  and  C_14 
REMARK    7  A    between atoms: N_20  and  C_19 
REMARK       I    between atoms: C_22  and  N_20 
ROOT
ATOM      1  C   LIG d   1      -0.136  57.675 118.178  0.00  0.00     0.161 C 
ATOM      2  C   LIG d   1      -1.287  57.431 117.411  0.00  0.00     0.016 C 
ATOM      3  C   LIG d   1      -1.436  57.861 116.073  0.00  0.00     0.038 C 
ATOM      4  C   LIG d   1      -0.377  58.438 115.357  0.00  0.00     0.028 C 
ATOM      5  C   LIG d   1       0.633  59.158 116.244  0.00  0.00    -0.047 C 
ATOM      6  C   LIG d   1       1.073  58.205 117.379  0.00  0.00     0.091 C 
ENDROOT
BRANCH   1   7
ATOM      7  O   LIG d   1       0.228  56.486 118.907  0.00  0.00    -0.368 OA
BRANCH   7   8
ATOM      8  C   LIG d   1       1.204  55.623 118.272  0.00  0.00     0.119 C 
BRANCH   8   9
ATOM      9  C   LIG d   1       0.448  54.404 117.709  0.00  0.00     0.028 C 
ATOM     10  C   LIG d   1       0.464  54.362 116.172  0.00  0.00     0.006 C 
ENDBRANCH   8   9
BRANCH   8  11
ATOM     11  C   LIG d   1       2.191  55.052 119.294  0.00  0.00     0.028 C 
ATOM     12  C   LIG d   1       3.658  55.244 118.878  0.00  0.00     0.006 C 
ENDBRANCH   8  11
ENDBRANCH   7   8
ENDBRANCH   1   7
BRANCH   6  13
ATOM     13  N   LIG d   1       1.997  58.859 118.342  0.00  0.00    -0.311 N 
ATOM     14  C   LIG d   1       3.319  58.896 118.181  0.00  0.00     0.210 C 
ATOM     15  C   LIG d   1       4.088  59.603 119.301  0.00  0.00     0.109 C 
ATOM     16  O   LIG d   1       3.924  58.438 117.200  0.00  0.00    -0.276 OA
ATOM     17  H   LIG d   1       1.587  59.284 119.151  0.00  0.00     0.149 HD
ENDBRANCH   6  13
BRANCH   5  18
ATOM     18  N   LIG d   1       1.751  59.591 115.386  0.00  0.00     0.381 N 
ATOM     19  H   LIG d   1       2.060  58.826 114.820  0.00  0.00    -0.090 HD
ATOM     20  H   LIG d   1       2.516  59.880 115.970  0.00  0.00    -0.090 HD
ATOM     21  H   LIG d   1       1.463  60.348 114.806  0.00  0.00    -0.090 HD
ENDBRANCH   5  18
BRANCH   3  22
ATOM     22  C   LIG d   1      -2.670  57.752 115.449  0.00  0.00     0.382 C 
ATOM     23  O   LIG d   1      -2.734  57.432 114.238  0.00  0.00    -0.241 OA
ATOM     24  O   LIG d   1      -3.717  58.011 116.072  0.00  0.00    -0.241 OA
ENDBRANCH   3  22
TORSDOF 7
ENDMDL
MODEL 9
REMARK VINA RESULT:      -4.4      2.611      4.759
REMARK  7 active torsions:
REMARK  status: ('A' for Active; 'I' for Inactive)
REMARK    1  A    between atoms: C_2  and  C_3 
REMARK    2  A    between atoms: C_3  and  O_6 
REMARK    3  A    between atoms: C_3  and  C_4 
REMARK    4  A    between atoms: C_7  and  O_6 
REMARK    5  A    between atoms: C_9  and  C_10 
REMARK    6  A    between atoms: N_15  and  C_14 
REMARK    7  A    between atoms: N_20  and  C_19 
REMARK       I    between atoms: C_22  and  N_20 
ROOT
ATOM      1  C   LIG d   1     -17.132  65.510 114.175  0.00  0.00     0.161 C 
ATOM      2  C   LIG d   1     -16.452  66.493 113.437  0.00  0.00     0.016 C 
ATOM      3  C   LIG d   1     -15.298  67.161 113.909  0.00  0.00     0.038 C 
ATOM      4  C   LIG d   1     -14.654  66.780 115.095  0.00  0.00     0.028 C 
ATOM      5  C   LIG d   1     -15.590  66.138 116.114  0.00  0.00    -0.047 C 
ATOM      6  C   LIG d   1     -16.380  65.003 115.424  0.00  0.00     0.091 C 
ENDROOT
BRANCH   1   7
ATOM      7  O   LIG d   1     -17.478  64.406 113.316  0.00  0.00    -0.368 OA
BRANCH   7   8
ATOM      8  C   LIG d   1     -18.884  64.261 112.998  0.00  0.00     0.119 C 
BRANCH   8   9
ATOM      9  C   LIG d   1     -19.656  65.307 113.827  0.00  0.00     0.028 C 
ATOM     10  C   LIG d   1     -20.764  65.997 113.015  0.00  0.00     0.006 C 
ENDBRANCH   8   9
BRANCH   8  11
ATOM     11  C   LIG d   1     -19.422  62.903 113.457  0.00  0.00     0.028 C 
ATOM     12  C   LIG d   1     -20.409  62.283 112.456  0.00  0.00     0.006 C 
ENDBRANCH   8  11
ENDBRANCH   7   8
ENDBRANCH   1   7
BRANCH   6  13
ATOM     13  N   LIG d   1     -17.380  64.377 116.328  0.00  0.00    -0.311 N 
ATOM     14  C   LIG d   1     -17.412  63.073 116.595  0.00  0.00     0.210 C 
ATOM     15  C   LIG d   1     -18.537  62.633 117.537  0.00  0.00     0.109 C 
ATOM     16  O   LIG d   1     -16.596  62.243 116.166  0.00  0.00    -0.276 OA
ATOM     17  H   LIG d   1     -18.061  64.983 116.743  0.00  0.00     0.149 HD
ENDBRANCH   6  13
BRANCH   5  18
ATOM     18  N   LIG d   1     -14.766  65.666 117.242  0.00  0.00     0.381 N 
ATOM     19  H   LIG d   1     -14.238  64.863 116.963  0.00  0.00    -0.090 HD
ATOM     20  H   LIG d   1     -15.371  65.399 117.998  0.00  0.00    -0.090 HD
ATOM     21  H   LIG d   1     -14.150  66.390 117.540  0.00  0.00    -0.090 HD
ENDBRANCH   5  18
BRANCH   3  22
ATOM     22  C   LIG d   1     -14.800  68.249 113.209  0.00  0.00     0.382 C 
ATOM     23  O   LIG d   1     -14.676  68.189 111.962  0.00  0.00    -0.241 OA
ATOM     24  O   LIG d   1     -14.433  69.274 113.813  0.00  0.00    -0.241 OA
ENDBRANCH   3  22
TORSDOF 7
ENDMDL
