MODEL 1
REMARK VINA RESULT:      -5.8      0.000      0.000
REMARK  7 active torsions:
REMARK  status: ('A' for Active; 'I' for Inactive)
REMARK    1  A    between atoms: C_2  and  C_3 
REMARK    2  A    between atoms: C_3  and  O_6 
REMARK    3  A    between atoms: C_3  and  C_4 
REMARK    4  A    between atoms: C_7  and  O_6 
REMARK    5  A    between atoms: C_9  and  C_10 
REMARK    6  A    between atoms: N_15  and  C_14 
REMARK    7  A    between atoms: N_20  and  C_19 
REMARK       I    between atoms: C_22  and  N_20 
ROOT
ATOM      1  C   LIG d   1      -2.532  77.919 116.194  0.00  0.00     0.161 C 
ATOM      2  C   LIG d   1      -2.886  78.839 115.193  0.00  0.00     0.016 C 
ATOM      3  C   LIG d   1      -2.120  79.048 114.023  0.00  0.00     0.038 C 
ATOM      4  C   LIG d   1      -1.022  78.237 113.701  0.00  0.00     0.028 C 
ATOM      5  C   LIG d   1      -0.335  77.635 114.922  0.00  0.00    -0.047 C 
ATOM      6  C   LIG d   1      -1.398  76.947 115.808  0.00  0.00     0.091 C 
ENDROOT
BRANCH   1   7
ATOM      7  O   LIG d   1      -3.699  77.185 116.617  0.00  0.00    -0.368 OA
BRANCH   7   8
ATOM      8  C   LIG d   1      -4.670  76.882 115.586  0.00  0.00     0.119 C 
BRANCH   8   9
ATOM      9  C   LIG d   1      -6.069  76.975 116.226  0.00  0.00     0.028 C 
ATOM     10  C   LIG d   1      -6.174  78.124 117.243  0.00  0.00     0.006 C 
ENDBRANCH   8   9
BRANCH   8  11
ATOM     11  C   LIG d   1      -4.539  75.434 115.105  0.00  0.00     0.028 C 
ATOM     12  C   LIG d   1      -5.893  74.799 114.752  0.00  0.00     0.006 C 
ENDBRANCH   8  11
ENDBRANCH   7   8
ENDBRANCH   1   7
BRANCH   6  13
ATOM     13  N   LIG d   1      -0.823  76.404 117.066  0.00  0.00    -0.311 N 
ATOM     14  C   LIG d   1      -1.141  75.210 117.563  0.00  0.00     0.210 C 
ATOM     15  C   LIG d   1      -0.448  74.853 118.881  0.00  0.00     0.109 C 
ATOM     16  O   LIG d   1      -1.906  74.399 117.020  0.00  0.00    -0.276 OA
ATOM     17  H   LIG d   1      -0.169  76.983 117.555  0.00  0.00     0.149 HD
ENDBRANCH   6  13
BRANCH   5  18
ATOM     18  N   LIG d   1       0.703  76.706 114.436  0.00  0.00     0.381 N 
ATOM     19  H   LIG d   1       0.274  75.935 113.964  0.00  0.00    -0.090 HD
ATOM     20  H   LIG d   1       1.213  76.348 115.225  0.00  0.00    -0.090 HD
ATOM     21  H   LIG d   1       1.323  77.180 113.818  0.00  0.00    -0.090 HD
ENDBRANCH   5  18
BRANCH   3  22
ATOM     22  C   LIG d   1      -2.429  80.105 113.180  0.00  0.00     0.382 C 
ATOM     23  O   LIG d   1      -1.966  80.132 112.014  0.00  0.00    -0.241 OA
ATOM     24  O   LIG d   1      -3.128  81.053 113.585  0.00  0.00    -0.241 OA
ENDBRANCH   3  22
TORSDOF 7
ENDMDL
MODEL 2
REMARK VINA RESULT:      -5.6      1.724      2.283
REMARK  7 active torsions:
REMARK  status: ('A' for Active; 'I' for Inactive)
REMARK    1  A    between atoms: C_2  and  C_3 
REMARK    2  A    between atoms: C_3  and  O_6 
REMARK    3  A    between atoms: C_3  and  C_4 
REMARK    4  A    between atoms: C_7  and  O_6 
REMARK    5  A    between atoms: C_9  and  C_10 
REMARK    6  A    between atoms: N_15  and  C_14 
REMARK    7  A    between atoms: N_20  and  C_19 
REMARK       I    between atoms: C_22  and  N_20 
ROOT
ATOM      1  C   LIG d   1      -2.649  78.526 115.425  0.00  0.00     0.161 C 
ATOM      2  C   LIG d   1      -2.793  79.609 114.541  0.00  0.00     0.016 C 
ATOM      3  C   LIG d   1      -2.113  79.699 113.305  0.00  0.00     0.038 C 
ATOM      4  C   LIG d   1      -1.355  78.634 112.796  0.00  0.00     0.028 C 
ATOM      5  C   LIG d   1      -0.776  77.731 113.880  0.00  0.00    -0.047 C 
ATOM      6  C   LIG d   1      -1.913  77.305 114.837  0.00  0.00     0.091 C 
ENDROOT
BRANCH   1   7
ATOM      7  O   LIG d   1      -3.940  78.136 115.934  0.00  0.00    -0.368 OA
BRANCH   7   8
ATOM      8  C   LIG d   1      -4.163  78.360 117.348  0.00  0.00     0.119 C 
BRANCH   8   9
ATOM      9  C   LIG d   1      -5.236  79.458 117.479  0.00  0.00     0.028 C 
ATOM     10  C   LIG d   1      -6.634  78.880 117.761  0.00  0.00     0.006 C 
ENDBRANCH   8   9
BRANCH   8  11
ATOM     11  C   LIG d   1      -2.913  78.932 118.024  0.00  0.00     0.028 C 
ATOM     12  C   LIG d   1      -2.386  78.036 119.157  0.00  0.00     0.006 C 
ENDBRANCH   8  11
ENDBRANCH   7   8
ENDBRANCH   1   7
BRANCH   6  13
ATOM     13  N   LIG d   1      -1.418  76.487 115.975  0.00  0.00    -0.311 N 
ATOM     14  C   LIG d   1      -1.872  75.265 116.251  0.00  0.00     0.210 C 
ATOM     15  C   LIG d   1      -1.241  74.604 117.481  0.00  0.00     0.109 C 
ATOM     16  O   LIG d   1      -2.712  74.653 115.576  0.00  0.00    -0.276 OA
ATOM     17  H   LIG d   1      -0.713  76.894 116.557  0.00  0.00     0.149 HD
ENDBRANCH   6  13
BRANCH   5  18
ATOM     18  N   LIG d   1      -0.128  76.589 113.208  0.00  0.00     0.381 N 
ATOM     19  H   LIG d   1      -0.525  76.460 112.299  0.00  0.00    -0.090 HD
ATOM     20  H   LIG d   1      -0.296  75.757 113.746  0.00  0.00    -0.090 HD
ATOM     21  H   LIG d   1       0.852  76.750 113.130  0.00  0.00    -0.090 HD
ENDBRANCH   5  18
BRANCH   3  22
ATOM     22  C   LIG d   1      -2.157  80.881 112.581  0.00  0.00     0.382 C 
ATOM     23  O   LIG d   1      -1.179  81.217 111.870  0.00  0.00    -0.241 OA
ATOM     24  O   LIG d   1      -3.143  81.638 112.666  0.00  0.00    -0.241 OA
ENDBRANCH   3  22
TORSDOF 7
ENDMDL
MODEL 3
REMARK VINA RESULT:      -5.3      1.632      2.055
REMARK  7 active torsions:
REMARK  status: ('A' for Active; 'I' for Inactive)
REMARK    1  A    between atoms: C_2  and  C_3 
REMARK    2  A    between atoms: C_3  and  O_6 
REMARK    3  A    between atoms: C_3  and  C_4 
REMARK    4  A    between atoms: C_7  and  O_6 
REMARK    5  A    between atoms: C_9  and  C_10 
REMARK    6  A    between atoms: N_15  and  C_14 
REMARK    7  A    between atoms: N_20  and  C_19 
REMARK       I    between atoms: C_22  and  N_20 
ROOT
ATOM      1  C   LIG d   1      -3.079  77.662 114.367  0.00  0.00     0.161 C 
ATOM      2  C   LIG d   1      -3.093  78.784 113.522  0.00  0.00     0.016 C 
ATOM      3  C   LIG d   1      -1.933  79.516 113.181  0.00  0.00     0.038 C 
ATOM      4  C   LIG d   1      -0.649  79.083 113.545  0.00  0.00     0.028 C 
ATOM      5  C   LIG d   1      -0.631  78.242 114.817  0.00  0.00    -0.047 C 
ATOM      6  C   LIG d   1      -1.674  77.108 114.683  0.00  0.00     0.091 C 
ENDROOT
BRANCH   1   7
ATOM      7  O   LIG d   1      -3.914  76.624 113.816  0.00  0.00    -0.368 OA
BRANCH   7   8
ATOM      8  C   LIG d   1      -5.111  76.304 114.566  0.00  0.00     0.119 C 
BRANCH   8   9
ATOM      9  C   LIG d   1      -4.930  74.887 115.145  0.00  0.00     0.028 C 
ATOM     10  C   LIG d   1      -6.195  74.025 114.994  0.00  0.00     0.006 C 
ENDBRANCH   8   9
BRANCH   8  11
ATOM     11  C   LIG d   1      -6.335  76.214 113.650  0.00  0.00     0.028 C 
ATOM     12  C   LIG d   1      -6.159  76.998 112.340  0.00  0.00     0.006 C 
ENDBRANCH   8  11
ENDBRANCH   7   8
ENDBRANCH   1   7
BRANCH   6  13
ATOM     13  N   LIG d   1      -1.781  76.288 115.918  0.00  0.00    -0.311 N 
ATOM     14  C   LIG d   1      -1.500  74.987 115.961  0.00  0.00     0.210 C 
ATOM     15  C   LIG d   1      -1.696  74.328 117.330  0.00  0.00     0.109 C 
ATOM     16  O   LIG d   1      -1.077  74.323 115.003  0.00  0.00    -0.276 OA
ATOM     17  H   LIG d   1      -2.088  76.754 116.750  0.00  0.00     0.149 HD
ENDBRANCH   6  13
BRANCH   5  18
ATOM     18  N   LIG d   1       0.744  77.743 115.002  0.00  0.00     0.381 N 
ATOM     19  H   LIG d   1       1.204  77.680 114.116  0.00  0.00    -0.090 HD
ATOM     20  H   LIG d   1       0.705  76.822 115.403  0.00  0.00    -0.090 HD
ATOM     21  H   LIG d   1       1.250  78.354 115.605  0.00  0.00    -0.090 HD
ENDBRANCH   5  18
BRANCH   3  22
ATOM     22  C   LIG d   1      -2.054  80.719 112.502  0.00  0.00     0.382 C 
ATOM     23  O   LIG d   1      -1.126  81.113 111.755  0.00  0.00    -0.241 OA
ATOM     24  O   LIG d   1      -3.060  81.436 112.661  0.00  0.00    -0.241 OA
ENDBRANCH   3  22
TORSDOF 7
ENDMDL
MODEL 4
REMARK VINA RESULT:      -5.0     12.005     14.328
REMARK  7 active torsions:
REMARK  status: ('A' for Active; 'I' for Inactive)
REMARK    1  A    between atoms: C_2  and  C_3 
REMARK    2  A    between atoms: C_3  and  O_6 
REMARK    3  A    between atoms: C_3  and  C_4 
REMARK    4  A    between atoms: C_7  and  O_6 
REMARK    5  A    between atoms: C_9  and  C_10 
REMARK    6  A    between atoms: N_15  and  C_14 
REMARK    7  A    between atoms: N_20  and  C_19 
REMARK       I    between atoms: C_22  and  N_20 
ROOT
ATOM      1  C   LIG d   1      10.509  78.009 114.618  0.00  0.00     0.161 C 
ATOM      2  C   LIG d   1       9.634  76.910 114.642  0.00  0.00     0.016 C 
ATOM      3  C   LIG d   1      10.063  75.570 114.497  0.00  0.00     0.038 C 
ATOM      4  C   LIG d   1      11.423  75.227 114.469  0.00  0.00     0.028 C 
ATOM      5  C   LIG d   1      12.319  76.340 113.936  0.00  0.00    -0.047 C 
ATOM      6  C   LIG d   1      12.006  77.646 114.701  0.00  0.00     0.091 C 
ENDROOT
BRANCH   1   7
ATOM      7  O   LIG d   1      10.159  78.934 115.667  0.00  0.00    -0.368 OA
BRANCH   7   8
ATOM      8  C   LIG d   1       9.707  78.346 116.911  0.00  0.00     0.119 C 
BRANCH   8   9
ATOM      9  C   LIG d   1       8.503  79.172 117.404  0.00  0.00     0.028 C 
ATOM     10  C   LIG d   1       7.228  78.894 116.590  0.00  0.00     0.006 C 
ENDBRANCH   8   9
BRANCH   8  11
ATOM     11  C   LIG d   1      10.767  78.480 118.008  0.00  0.00     0.028 C 
ATOM     12  C   LIG d   1      11.665  79.713 117.821  0.00  0.00     0.006 C 
ENDBRANCH   8  11
ENDBRANCH   7   8
ENDBRANCH   1   7
BRANCH   6  13
ATOM     13  N   LIG d   1      12.779  78.805 114.183  0.00  0.00    -0.311 N 
ATOM     14  C   LIG d   1      13.935  79.208 114.708  0.00  0.00     0.210 C 
ATOM     15  C   LIG d   1      14.557  80.436 114.035  0.00  0.00     0.109 C 
ATOM     16  O   LIG d   1      14.521  78.646 115.645  0.00  0.00    -0.276 OA
ATOM     17  H   LIG d   1      12.392  79.300 113.404  0.00  0.00     0.149 HD
ENDBRANCH   6  13
BRANCH   5  18
ATOM     18  N   LIG d   1      13.718  75.899 114.091  0.00  0.00     0.381 N 
ATOM     19  H   LIG d   1      13.805  75.331 114.910  0.00  0.00    -0.090 HD
ATOM     20  H   LIG d   1      14.303  76.708 114.206  0.00  0.00    -0.090 HD
ATOM     21  H   LIG d   1      14.005  75.384 113.288  0.00  0.00    -0.090 HD
ENDBRANCH   5  18
BRANCH   3  22
ATOM     22  C   LIG d   1       9.126  74.562 114.337  0.00  0.00     0.382 C 
ATOM     23  O   LIG d   1       9.178  73.537 115.060  0.00  0.00    -0.241 OA
ATOM     24  O   LIG d   1       8.255  74.643 113.450  0.00  0.00    -0.241 OA
ENDBRANCH   3  22
TORSDOF 7
ENDMDL
MODEL 5
REMARK VINA RESULT:      -4.9      2.501      4.617
REMARK  7 active torsions:
REMARK  status: ('A' for Active; 'I' for Inactive)
REMARK    1  A    between atoms: C_2  and  C_3 
REMARK    2  A    between atoms: C_3  and  O_6 
REMARK    3  A    between atoms: C_3  and  C_4 
REMARK    4  A    between atoms: C_7  and  O_6 
REMARK    5  A    between atoms: C_9  and  C_10 
REMARK    6  A    between atoms: N_15  and  C_14 
REMARK    7  A    between atoms: N_20  and  C_19 
REMARK       I    between atoms: C_22  and  N_20 
ROOT
ATOM      1  C   LIG d   1      -2.473  78.566 115.673  0.00  0.00     0.161 C 
ATOM      2  C   LIG d   1      -1.156  78.922 116.009  0.00  0.00     0.016 C 
ATOM      3  C   LIG d   1      -0.258  78.049 116.667  0.00  0.00     0.038 C 
ATOM      4  C   LIG d   1      -0.571  76.702 116.899  0.00  0.00     0.028 C 
ATOM      5  C   LIG d   1      -2.067  76.441 117.032  0.00  0.00    -0.047 C 
ATOM      6  C   LIG d   1      -2.795  77.064 115.819  0.00  0.00     0.091 C 
ENDROOT
BRANCH   1   7
ATOM      7  O   LIG d   1      -2.774  79.016 114.337  0.00  0.00    -0.368 OA
BRANCH   7   8
ATOM      8  C   LIG d   1      -1.709  78.882 113.364  0.00  0.00     0.119 C 
BRANCH   8   9
ATOM      9  C   LIG d   1      -1.737  80.138 112.472  0.00  0.00     0.028 C 
ATOM     10  C   LIG d   1      -2.755  81.182 112.960  0.00  0.00     0.006 C 
ENDBRANCH   8   9
BRANCH   8  11
ATOM     11  C   LIG d   1      -1.965  77.706 112.417  0.00  0.00     0.028 C 
ATOM     12  C   LIG d   1      -3.344  77.772 111.743  0.00  0.00     0.006 C 
ENDBRANCH   8  11
ENDBRANCH   7   8
ENDBRANCH   1   7
BRANCH   6  13
ATOM     13  N   LIG d   1      -4.272  76.928 115.913  0.00  0.00    -0.311 N 
ATOM     14  C   LIG d   1      -4.984  76.115 115.134  0.00  0.00     0.210 C 
ATOM     15  C   LIG d   1      -6.495  76.142 115.382  0.00  0.00     0.109 C 
ATOM     16  O   LIG d   1      -4.504  75.351 114.284  0.00  0.00    -0.276 OA
ATOM     17  H   LIG d   1      -4.739  77.489 116.598  0.00  0.00     0.149 HD
ENDBRANCH   6  13
BRANCH   5  18
ATOM     18  N   LIG d   1      -2.259  74.982 117.134  0.00  0.00     0.381 N 
ATOM     19  H   LIG d   1      -2.029  74.549 116.261  0.00  0.00    -0.090 HD
ATOM     20  H   LIG d   1      -3.225  74.794 117.335  0.00  0.00    -0.090 HD
ATOM     21  H   LIG d   1      -1.683  74.612 117.858  0.00  0.00    -0.090 HD
ENDBRANCH   5  18
BRANCH   3  22
ATOM     22  C   LIG d   1       0.953  78.535 117.135  0.00  0.00     0.382 C 
ATOM     23  O   LIG d   1       1.458  79.561 116.620  0.00  0.00    -0.241 OA
ATOM     24  O   LIG d   1       1.569  77.934 118.036  0.00  0.00    -0.241 OA
ENDBRANCH   3  22
TORSDOF 7
ENDMDL
MODEL 6
REMARK VINA RESULT:      -4.8      2.889      4.083
REMARK  7 active torsions:
REMARK  status: ('A' for Active; 'I' for Inactive)
REMARK    1  A    between atoms: C_2  and  C_3 
REMARK    2  A    between atoms: C_3  and  O_6 
REMARK    3  A    between atoms: C_3  and  C_4 
REMARK    4  A    between atoms: C_7  and  O_6 
REMARK    5  A    between atoms: C_9  and  C_10 
REMARK    6  A    between atoms: N_15  and  C_14 
REMARK    7  A    between atoms: N_20  and  C_19 
REMARK       I    between atoms: C_22  and  N_20 
ROOT
ATOM      1  C   LIG d   1      -1.136  77.946 115.815  0.00  0.00     0.161 C 
ATOM      2  C   LIG d   1      -1.995  77.402 114.846  0.00  0.00     0.016 C 
ATOM      3  C   LIG d   1      -2.008  77.821 113.495  0.00  0.00     0.038 C 
ATOM      4  C   LIG d   1      -1.052  78.713 112.986  0.00  0.00     0.028 C 
ATOM      5  C   LIG d   1      -0.490  79.664 114.037  0.00  0.00    -0.047 C 
ATOM      6  C   LIG d   1      -0.010  78.840 115.254  0.00  0.00     0.091 C 
ENDROOT
BRANCH   1   7
ATOM      7  O   LIG d   1      -0.580  76.889 116.623  0.00  0.00    -0.368 OA
BRANCH   7   8
ATOM      8  C   LIG d   1      -1.508  76.199 117.496  0.00  0.00     0.119 C 
BRANCH   8   9
ATOM      9  C   LIG d   1      -1.097  76.511 118.948  0.00  0.00     0.028 C 
ATOM     10  C   LIG d   1       0.422  76.693 119.101  0.00  0.00     0.006 C 
ENDBRANCH   8   9
BRANCH   8  11
ATOM     11  C   LIG d   1      -1.381  74.680 117.355  0.00  0.00     0.028 C 
ATOM     12  C   LIG d   1      -1.701  73.932 118.659  0.00  0.00     0.006 C 
ENDBRANCH   8  11
ENDBRANCH   7   8
ENDBRANCH   1   7
BRANCH   6  13
ATOM     13  N   LIG d   1       0.477  79.700 116.364  0.00  0.00    -0.311 N 
ATOM     14  C   LIG d   1       1.592  79.451 117.049  0.00  0.00     0.210 C 
ATOM     15  C   LIG d   1       1.902  80.452 118.166  0.00  0.00     0.109 C 
ATOM     16  O   LIG d   1       2.371  78.514 116.816  0.00  0.00    -0.276 OA
ATOM     17  H   LIG d   1      -0.078  80.499 116.599  0.00  0.00     0.149 HD
ENDBRANCH   6  13
BRANCH   5  18
ATOM     18  N   LIG d   1       0.591  80.441 113.402  0.00  0.00     0.381 N 
ATOM     19  H   LIG d   1       1.186  79.829 112.880  0.00  0.00    -0.090 HD
ATOM     20  H   LIG d   1       1.141  80.879 114.120  0.00  0.00    -0.090 HD
ATOM     21  H   LIG d   1       0.205  81.134 112.801  0.00  0.00    -0.090 HD
ENDBRANCH   5  18
BRANCH   3  22
ATOM     22  C   LIG d   1      -3.012  77.377 112.648  0.00  0.00     0.382 C 
ATOM     23  O   LIG d   1      -2.817  77.345 111.409  0.00  0.00    -0.241 OA
ATOM     24  O   LIG d   1      -4.124  77.050 113.103  0.00  0.00    -0.241 OA
ENDBRANCH   3  22
TORSDOF 7
ENDMDL
MODEL 7
REMARK VINA RESULT:      -4.7     12.657     13.986
REMARK  7 active torsions:
REMARK  status: ('A' for Active; 'I' for Inactive)
REMARK    1  A    between atoms: C_2  and  C_3 
REMARK    2  A    between atoms: C_3  and  O_6 
REMARK    3  A    between atoms: C_3  and  C_4 
REMARK    4  A    between atoms: C_7  and  O_6 
REMARK    5  A    between atoms: C_9  and  C_10 
REMARK    6  A    between atoms: N_15  and  C_14 
REMARK    7  A    between atoms: N_20  and  C_19 
REMARK       I    between atoms: C_22  and  N_20 
ROOT
ATOM      1  C   LIG d   1      10.325  74.496 114.790  0.00  0.00     0.161 C 
ATOM      2  C   LIG d   1       9.769  75.785 114.725  0.00  0.00     0.016 C 
ATOM      3  C   LIG d   1      10.539  76.956 114.541  0.00  0.00     0.038 C 
ATOM      4  C   LIG d   1      11.912  76.904 114.257  0.00  0.00     0.028 C 
ATOM      5  C   LIG d   1      12.599  75.662 114.814  0.00  0.00    -0.047 C 
ATOM      6  C   LIG d   1      11.808  74.410 114.371  0.00  0.00     0.091 C 
ENDROOT
BRANCH   1   7
ATOM      7  O   LIG d   1       9.530  73.581 114.011  0.00  0.00    -0.368 OA
BRANCH   7   8
ATOM      8  C   LIG d   1       8.786  72.587 114.758  0.00  0.00     0.119 C 
BRANCH   8   9
ATOM      9  C   LIG d   1       9.083  72.814 116.253  0.00  0.00     0.028 C 
ATOM     10  C   LIG d   1       9.708  71.578 116.921  0.00  0.00     0.006 C 
ENDBRANCH   8   9
BRANCH   8  11
ATOM     11  C   LIG d   1       9.287  71.172 114.455  0.00  0.00     0.028 C 
ATOM     12  C   LIG d   1       8.354  70.399 113.510  0.00  0.00     0.006 C 
ENDBRANCH   8  11
ENDBRANCH   7   8
ENDBRANCH   1   7
BRANCH   6  13
ATOM     13  N   LIG d   1      12.365  73.156 114.943  0.00  0.00    -0.311 N 
ATOM     14  C   LIG d   1      12.665  72.085 114.210  0.00  0.00     0.210 C 
ATOM     15  C   LIG d   1      13.208  70.891 115.001  0.00  0.00     0.109 C 
ATOM     16  O   LIG d   1      12.563  72.023 112.976  0.00  0.00    -0.276 OA
ATOM     17  H   LIG d   1      12.508  73.131 115.934  0.00  0.00     0.149 HD
ENDBRANCH   6  13
BRANCH   5  18
ATOM     18  N   LIG d   1      13.992  75.667 114.328  0.00  0.00     0.381 N 
ATOM     19  H   LIG d   1      14.088  76.327 113.582  0.00  0.00    -0.090 HD
ATOM     20  H   LIG d   1      14.216  74.754 113.972  0.00  0.00    -0.090 HD
ATOM     21  H   LIG d   1      14.612  75.903 115.072  0.00  0.00    -0.090 HD
ENDBRANCH   5  18
BRANCH   3  22
ATOM     22  C   LIG d   1       9.942  78.200 114.680  0.00  0.00     0.382 C 
ATOM     23  O   LIG d   1       8.692  78.293 114.726  0.00  0.00    -0.241 OA
ATOM     24  O   LIG d   1      10.636  79.233 114.716  0.00  0.00    -0.241 OA
ENDBRANCH   3  22
TORSDOF 7
ENDMDL
MODEL 8
REMARK VINA RESULT:      -4.7     11.883     13.904
REMARK  7 active torsions:
REMARK  status: ('A' for Active; 'I' for Inactive)
REMARK    1  A    between atoms: C_2  and  C_3 
REMARK    2  A    between atoms: C_3  and  O_6 
REMARK    3  A    between atoms: C_3  and  C_4 
REMARK    4  A    between atoms: C_7  and  O_6 
REMARK    5  A    between atoms: C_9  and  C_10 
REMARK    6  A    between atoms: N_15  and  C_14 
REMARK    7  A    between atoms: N_20  and  C_19 
REMARK       I    between atoms: C_22  and  N_20 
ROOT
ATOM      1  C   LIG d   1      10.499  75.661 115.040  0.00  0.00     0.161 C 
ATOM      2  C   LIG d   1       9.352  76.462 115.167  0.00  0.00     0.016 C 
ATOM      3  C   LIG d   1       9.379  77.874 115.116  0.00  0.00     0.038 C 
ATOM      4  C   LIG d   1      10.543  78.582 114.781  0.00  0.00     0.028 C 
ATOM      5  C   LIG d   1      11.827  77.842 115.143  0.00  0.00    -0.047 C 
ATOM      6  C   LIG d   1      11.761  76.411 114.564  0.00  0.00     0.091 C 
ENDROOT
BRANCH   1   7
ATOM      7  O   LIG d   1      10.222  74.544 114.173  0.00  0.00    -0.368 OA
BRANCH   7   8
ATOM      8  C   LIG d   1      10.301  73.231 114.780  0.00  0.00     0.119 C 
BRANCH   8   9
ATOM      9  C   LIG d   1       8.943  72.537 114.558  0.00  0.00     0.028 C 
ATOM     10  C   LIG d   1       9.098  71.084 114.077  0.00  0.00     0.006 C 
ENDBRANCH   8   9
BRANCH   8  11
ATOM     11  C   LIG d   1      10.463  73.328 116.299  0.00  0.00     0.028 C 
ATOM     12  C   LIG d   1       9.221  72.842 117.064  0.00  0.00     0.006 C 
ENDBRANCH   8  11
ENDBRANCH   7   8
ENDBRANCH   1   7
BRANCH   6  13
ATOM     13  N   LIG d   1      12.941  75.591 114.944  0.00  0.00    -0.311 N 
ATOM     14  C   LIG d   1      14.082  75.585 114.256  0.00  0.00     0.210 C 
ATOM     15  C   LIG d   1      15.165  74.653 114.808  0.00  0.00     0.109 C 
ATOM     16  O   LIG d   1      14.310  76.287 113.259  0.00  0.00    -0.276 OA
ATOM     17  H   LIG d   1      12.854  75.015 115.758  0.00  0.00     0.149 HD
ENDBRANCH   6  13
BRANCH   5  18
ATOM     18  N   LIG d   1      12.958  78.628 114.616  0.00  0.00     0.381 N 
ATOM     19  H   LIG d   1      13.810  78.324 115.043  0.00  0.00    -0.090 HD
ATOM     20  H   LIG d   1      12.817  79.596 114.847  0.00  0.00    -0.090 HD
ATOM     21  H   LIG d   1      13.016  78.521 113.627  0.00  0.00    -0.090 HD
ENDBRANCH   5  18
BRANCH   3  22
ATOM     22  C   LIG d   1       8.240  78.596 115.441  0.00  0.00     0.382 C 
ATOM     23  O   LIG d   1       7.245  78.574 114.677  0.00  0.00    -0.241 OA
ATOM     24  O   LIG d   1       8.212  79.304 116.465  0.00  0.00    -0.241 OA
ENDBRANCH   3  22
TORSDOF 7
ENDMDL
MODEL 9
REMARK VINA RESULT:      -4.5      2.986      5.894
REMARK  7 active torsions:
REMARK  status: ('A' for Active; 'I' for Inactive)
REMARK    1  A    between atoms: C_2  and  C_3 
REMARK    2  A    between atoms: C_3  and  O_6 
REMARK    3  A    between atoms: C_3  and  C_4 
REMARK    4  A    between atoms: C_7  and  O_6 
REMARK    5  A    between atoms: C_9  and  C_10 
REMARK    6  A    between atoms: N_15  and  C_14 
REMARK    7  A    between atoms: N_20  and  C_19 
REMARK       I    between atoms: C_22  and  N_20 
ROOT
ATOM      1  C   LIG d   1      -1.619  78.668 115.373  0.00  0.00     0.161 C 
ATOM      2  C   LIG d   1      -1.631  77.344 115.841  0.00  0.00     0.016 C 
ATOM      3  C   LIG d   1      -1.243  76.236 115.052  0.00  0.00     0.038 C 
ATOM      4  C   LIG d   1      -0.669  76.396 113.782  0.00  0.00     0.028 C 
ATOM      5  C   LIG d   1      -1.106  77.675 113.075  0.00  0.00    -0.047 C 
ATOM      6  C   LIG d   1      -0.891  78.873 114.028  0.00  0.00     0.091 C 
ENDROOT
BRANCH   1   7
ATOM      7  O   LIG d   1      -1.064  79.537 116.380  0.00  0.00    -0.368 OA
BRANCH   7   8
ATOM      8  C   LIG d   1      -0.135  78.924 117.309  0.00  0.00     0.119 C 
BRANCH   8   9
ATOM      9  C   LIG d   1      -0.475  79.447 118.717  0.00  0.00     0.028 C 
ATOM     10  C   LIG d   1       0.323  80.710 119.083  0.00  0.00     0.006 C 
ENDBRANCH   8   9
BRANCH   8  11
ATOM     11  C   LIG d   1       1.302  79.382 117.042  0.00  0.00     0.028 C 
ATOM     12  C   LIG d   1       2.320  78.235 117.137  0.00  0.00     0.006 C 
ENDBRANCH   8  11
ENDBRANCH   7   8
ENDBRANCH   1   7
BRANCH   6  13
ATOM     13  N   LIG d   1      -1.371  80.153 113.447  0.00  0.00    -0.311 N 
ATOM     14  C   LIG d   1      -0.590  80.987 112.763  0.00  0.00     0.210 C 
ATOM     15  C   LIG d   1      -1.280  82.261 112.268  0.00  0.00     0.109 C 
ATOM     16  O   LIG d   1       0.603  80.777 112.493  0.00  0.00    -0.276 OA
ATOM     17  H   LIG d   1      -2.334  80.387 113.592  0.00  0.00     0.149 HD
ENDBRANCH   6  13
BRANCH   5  18
ATOM     18  N   LIG d   1      -0.329  77.782 111.826  0.00  0.00     0.381 N 
ATOM     19  H   LIG d   1       0.534  78.255 112.004  0.00  0.00    -0.090 HD
ATOM     20  H   LIG d   1      -0.855  78.323 111.162  0.00  0.00    -0.090 HD
ATOM     21  H   LIG d   1      -0.149  76.874 111.458  0.00  0.00    -0.090 HD
ENDBRANCH   5  18
BRANCH   3  22
ATOM     22  C   LIG d   1      -1.466  74.949 115.517  0.00  0.00     0.382 C 
ATOM     23  O   LIG d   1      -0.882  73.978 114.978  0.00  0.00    -0.241 OA
ATOM     24  O   LIG d   1      -2.276  74.742 116.440  0.00  0.00    -0.241 OA
ENDBRANCH   3  22
TORSDOF 7
ENDMDL
