MODEL 1
REMARK VINA RESULT:      -5.7      0.000      0.000
REMARK  7 active torsions:
REMARK  status: ('A' for Active; 'I' for Inactive)
REMARK    1  A    between atoms: C_2  and  C_3 
REMARK    2  A    between atoms: C_3  and  O_6 
REMARK    3  A    between atoms: C_3  and  C_4 
REMARK    4  A    between atoms: C_7  and  O_6 
REMARK    5  A    between atoms: C_9  and  C_10 
REMARK    6  A    between atoms: N_15  and  C_14 
REMARK    7  A    between atoms: N_20  and  C_19 
REMARK       I    between atoms: C_22  and  N_20 
ROOT
ATOM      1  C   LIG d   1     -14.844  67.318 115.715  0.00  0.00     0.161 C 
ATOM      2  C   LIG d   1     -14.638  68.242 114.678  0.00  0.00     0.016 C 
ATOM      3  C   LIG d   1     -14.738  67.910 113.307  0.00  0.00     0.038 C 
ATOM      4  C   LIG d   1     -15.202  66.657 112.881  0.00  0.00     0.028 C 
ATOM      5  C   LIG d   1     -14.936  65.539 113.883  0.00  0.00    -0.047 C 
ATOM      6  C   LIG d   1     -15.460  65.974 115.271  0.00  0.00     0.091 C 
ENDROOT
BRANCH   1   7
ATOM      7  O   LIG d   1     -15.644  67.917 116.753  0.00  0.00    -0.368 OA
BRANCH   7   8
ATOM      8  C   LIG d   1     -14.998  68.090 118.038  0.00  0.00     0.119 C 
BRANCH   8   9
ATOM      9  C   LIG d   1     -13.514  67.711 117.864  0.00  0.00     0.028 C 
ATOM     10  C   LIG d   1     -12.611  68.380 118.914  0.00  0.00     0.006 C 
ENDBRANCH   8   9
BRANCH   8  11
ATOM     11  C   LIG d   1     -15.548  67.106 119.075  0.00  0.00     0.028 C 
ATOM     12  C   LIG d   1     -17.046  66.817 118.886  0.00  0.00     0.006 C 
ENDBRANCH   8  11
ENDBRANCH   7   8
ENDBRANCH   1   7
BRANCH   6  13
ATOM     13  N   LIG d   1     -15.164  64.972 116.328  0.00  0.00    -0.311 N 
ATOM     14  C   LIG d   1     -16.008  64.003 116.676  0.00  0.00     0.210 C 
ATOM     15  C   LIG d   1     -15.515  63.090 117.803  0.00  0.00     0.109 C 
ATOM     16  O   LIG d   1     -17.104  63.792 116.136  0.00  0.00    -0.276 OA
ATOM     17  H   LIG d   1     -14.283  65.050 116.797  0.00  0.00     0.149 HD
ENDBRANCH   6  13
BRANCH   5  18
ATOM     18  N   LIG d   1     -15.592  64.319 113.375  0.00  0.00     0.381 N 
ATOM     19  H   LIG d   1     -16.058  63.848 114.124  0.00  0.00    -0.090 HD
ATOM     20  H   LIG d   1     -14.891  63.704 113.003  0.00  0.00    -0.090 HD
ATOM     21  H   LIG d   1     -16.248  64.556 112.663  0.00  0.00    -0.090 HD
ENDBRANCH   5  18
BRANCH   3  22
ATOM     22  C   LIG d   1     -14.333  68.824 112.347  0.00  0.00     0.382 C 
ATOM     23  O   LIG d   1     -15.174  69.584 111.810  0.00  0.00    -0.241 OA
ATOM     24  O   LIG d   1     -13.144  68.868 111.979  0.00  0.00    -0.241 OA
ENDBRANCH   3  22
TORSDOF 7
ENDMDL
MODEL 2
REMARK VINA RESULT:      -5.6     10.938     13.307
REMARK  7 active torsions:
REMARK  status: ('A' for Active; 'I' for Inactive)
REMARK    1  A    between atoms: C_2  and  C_3 
REMARK    2  A    between atoms: C_3  and  O_6 
REMARK    3  A    between atoms: C_3  and  C_4 
REMARK    4  A    between atoms: C_7  and  O_6 
REMARK    5  A    between atoms: C_9  and  C_10 
REMARK    6  A    between atoms: N_15  and  C_14 
REMARK    7  A    between atoms: N_20  and  C_19 
REMARK       I    between atoms: C_22  and  N_20 
ROOT
ATOM      1  C   LIG d   1      -6.659  75.425 116.808  0.00  0.00     0.161 C 
ATOM      2  C   LIG d   1      -7.545  74.343 116.681  0.00  0.00     0.016 C 
ATOM      3  C   LIG d   1      -7.122  73.009 116.479  0.00  0.00     0.038 C 
ATOM      4  C   LIG d   1      -5.769  72.644 116.542  0.00  0.00     0.028 C 
ATOM      5  C   LIG d   1      -4.817  73.774 116.165  0.00  0.00    -0.047 C 
ATOM      6  C   LIG d   1      -5.178  75.030 116.991  0.00  0.00     0.091 C 
ENDROOT
BRANCH   1   7
ATOM      7  O   LIG d   1      -7.086  76.282 117.886  0.00  0.00    -0.368 OA
BRANCH   7   8
ATOM      8  C   LIG d   1      -7.618  77.573 117.501  0.00  0.00     0.119 C 
BRANCH   8   9
ATOM      9  C   LIG d   1      -6.848  78.647 118.294  0.00  0.00     0.028 C 
ATOM     10  C   LIG d   1      -5.858  79.429 117.415  0.00  0.00     0.006 C 
ENDBRANCH   8   9
BRANCH   8  11
ATOM     11  C   LIG d   1      -9.080  77.724 117.930  0.00  0.00     0.028 C 
ATOM     12  C   LIG d   1      -9.450  79.171 118.290  0.00  0.00     0.006 C 
ENDBRANCH   8  11
ENDBRANCH   7   8
ENDBRANCH   1   7
BRANCH   6  13
ATOM     13  N   LIG d   1      -4.350  76.208 116.623  0.00  0.00    -0.311 N 
ATOM     14  C   LIG d   1      -3.234  76.549 117.265  0.00  0.00     0.210 C 
ATOM     15  C   LIG d   1      -2.543  77.810 116.736  0.00  0.00     0.109 C 
ATOM     16  O   LIG d   1      -2.733  75.908 118.201  0.00  0.00    -0.276 OA
ATOM     17  H   LIG d   1      -4.667  76.766 115.854  0.00  0.00     0.149 HD
ENDBRANCH   6  13
BRANCH   5  18
ATOM     18  N   LIG d   1      -3.442  73.299 116.406  0.00  0.00     0.381 N 
ATOM     19  H   LIG d   1      -3.463  72.352 116.727  0.00  0.00    -0.090 HD
ATOM     20  H   LIG d   1      -3.024  73.866 117.123  0.00  0.00    -0.090 HD
ATOM     21  H   LIG d   1      -2.907  73.362 115.568  0.00  0.00    -0.090 HD
ENDBRANCH   5  18
BRANCH   3  22
ATOM     22  C   LIG d   1      -8.054  72.031 116.171  0.00  0.00     0.382 C 
ATOM     23  O   LIG d   1      -7.688  70.969 115.611  0.00  0.00    -0.241 OA
ATOM     24  O   LIG d   1      -9.264  72.215 116.405  0.00  0.00    -0.241 OA
ENDBRANCH   3  22
TORSDOF 7
ENDMDL
MODEL 3
REMARK VINA RESULT:      -5.4     11.250     13.923
REMARK  7 active torsions:
REMARK  status: ('A' for Active; 'I' for Inactive)
REMARK    1  A    between atoms: C_2  and  C_3 
REMARK    2  A    between atoms: C_3  and  O_6 
REMARK    3  A    between atoms: C_3  and  C_4 
REMARK    4  A    between atoms: C_7  and  O_6 
REMARK    5  A    between atoms: C_9  and  C_10 
REMARK    6  A    between atoms: N_15  and  C_14 
REMARK    7  A    between atoms: N_20  and  C_19 
REMARK       I    between atoms: C_22  and  N_20 
ROOT
ATOM      1  C   LIG d   1      -4.803  74.145 116.545  0.00  0.00     0.161 C 
ATOM      2  C   LIG d   1      -5.508  72.947 116.343  0.00  0.00     0.016 C 
ATOM      3  C   LIG d   1      -6.920  72.872 116.309  0.00  0.00     0.038 C 
ATOM      4  C   LIG d   1      -7.724  74.021 116.324  0.00  0.00     0.028 C 
ATOM      5  C   LIG d   1      -7.076  75.205 117.033  0.00  0.00    -0.047 C 
ATOM      6  C   LIG d   1      -5.660  75.424 116.451  0.00  0.00     0.091 C 
ENDROOT
BRANCH   1   7
ATOM      7  O   LIG d   1      -3.692  74.218 115.628  0.00  0.00    -0.368 OA
BRANCH   7   8
ATOM      8  C   LIG d   1      -2.426  73.713 116.119  0.00  0.00     0.119 C 
BRANCH   8   9
ATOM      9  C   LIG d   1      -2.197  74.319 117.517  0.00  0.00     0.028 C 
ATOM     10  C   LIG d   1      -1.192  75.483 117.494  0.00  0.00     0.006 C 
ENDBRANCH   8   9
BRANCH   8  11
ATOM     11  C   LIG d   1      -1.258  74.212 115.264  0.00  0.00     0.028 C 
ATOM     12  C   LIG d   1      -0.393  73.068 114.711  0.00  0.00     0.006 C 
ENDBRANCH   8  11
ENDBRANCH   7   8
ENDBRANCH   1   7
BRANCH   6  13
ATOM     13  N   LIG d   1      -4.924  76.511 117.148  0.00  0.00    -0.311 N 
ATOM     14  C   LIG d   1      -4.214  77.441 116.510  0.00  0.00     0.210 C 
ATOM     15  C   LIG d   1      -3.516  78.458 117.419  0.00  0.00     0.109 C 
ATOM     16  O   LIG d   1      -4.122  77.539 115.277  0.00  0.00    -0.276 OA
ATOM     17  H   LIG d   1      -4.970  76.525 118.148  0.00  0.00     0.149 HD
ENDBRANCH   6  13
BRANCH   5  18
ATOM     18  N   LIG d   1      -7.961  76.371 116.854  0.00  0.00     0.381 N 
ATOM     19  H   LIG d   1      -8.298  76.399 115.912  0.00  0.00    -0.090 HD
ATOM     20  H   LIG d   1      -7.434  77.209 117.025  0.00  0.00    -0.090 HD
ATOM     21  H   LIG d   1      -8.728  76.317 117.487  0.00  0.00    -0.090 HD
ENDBRANCH   5  18
BRANCH   3  22
ATOM     22  C   LIG d   1      -7.542  71.632 116.299  0.00  0.00     0.382 C 
ATOM     23  O   LIG d   1      -6.898  70.605 116.624  0.00  0.00    -0.241 OA
ATOM     24  O   LIG d   1      -8.725  71.522 115.927  0.00  0.00    -0.241 OA
ENDBRANCH   3  22
TORSDOF 7
ENDMDL
MODEL 4
REMARK VINA RESULT:      -5.4     26.357     28.647
REMARK  7 active torsions:
REMARK  status: ('A' for Active; 'I' for Inactive)
REMARK    1  A    between atoms: C_2  and  C_3 
REMARK    2  A    between atoms: C_3  and  O_6 
REMARK    3  A    between atoms: C_3  and  C_4 
REMARK    4  A    between atoms: C_7  and  O_6 
REMARK    5  A    between atoms: C_9  and  C_10 
REMARK    6  A    between atoms: N_15  and  C_14 
REMARK    7  A    between atoms: N_20  and  C_19 
REMARK       I    between atoms: C_22  and  N_20 
ROOT
ATOM      1  C   LIG d   1       3.015  88.304 115.128  0.00  0.00     0.161 C 
ATOM      2  C   LIG d   1       3.156  89.210 116.193  0.00  0.00     0.016 C 
ATOM      3  C   LIG d   1       4.206  90.153 116.278  0.00  0.00     0.038 C 
ATOM      4  C   LIG d   1       5.106  90.358 115.221  0.00  0.00     0.028 C 
ATOM      5  C   LIG d   1       5.306  89.124 114.348  0.00  0.00    -0.047 C 
ATOM      6  C   LIG d   1       3.923  88.588 113.913  0.00  0.00     0.091 C 
ENDROOT
BRANCH   1   7
ATOM      7  O   LIG d   1       1.634  88.244 114.718  0.00  0.00    -0.368 OA
BRANCH   7   8
ATOM      8  C   LIG d   1       0.898  87.067 115.132  0.00  0.00     0.119 C 
BRANCH   8   9
ATOM      9  C   LIG d   1       0.040  87.462 116.350  0.00  0.00     0.028 C 
ATOM     10  C   LIG d   1       0.467  86.726 117.631  0.00  0.00     0.006 C 
ENDBRANCH   8   9
BRANCH   8  11
ATOM     11  C   LIG d   1       1.839  85.970 115.637  0.00  0.00     0.028 C 
ATOM     12  C   LIG d   1       1.898  84.755 114.697  0.00  0.00     0.006 C 
ENDBRANCH   8  11
ENDBRANCH   7   8
ENDBRANCH   1   7
BRANCH   6  13
ATOM     13  N   LIG d   1       4.024  87.333 113.124  0.00  0.00    -0.311 N 
ATOM     14  C   LIG d   1       3.260  87.067 112.066  0.00  0.00     0.210 C 
ATOM     15  C   LIG d   1       3.514  85.707 111.410  0.00  0.00     0.109 C 
ATOM     16  O   LIG d   1       2.417  87.843 111.590  0.00  0.00    -0.276 OA
ATOM     17  H   LIG d   1       4.704  86.660 113.422  0.00  0.00     0.149 HD
ENDBRANCH   6  13
BRANCH   5  18
ATOM     18  N   LIG d   1       6.158  89.517 113.210  0.00  0.00     0.381 N 
ATOM     19  H   LIG d   1       6.849  88.813 113.045  0.00  0.00    -0.090 HD
ATOM     20  H   LIG d   1       6.629  90.375 113.437  0.00  0.00    -0.090 HD
ATOM     21  H   LIG d   1       5.600  89.643 112.394  0.00  0.00    -0.090 HD
ENDBRANCH   5  18
BRANCH   3  22
ATOM     22  C   LIG d   1       4.387  90.876 117.447  0.00  0.00     0.382 C 
ATOM     23  O   LIG d   1       4.587  90.276 118.530  0.00  0.00    -0.241 OA
ATOM     24  O   LIG d   1       4.308  92.119 117.440  0.00  0.00    -0.241 OA
ENDBRANCH   3  22
TORSDOF 7
ENDMDL
MODEL 5
REMARK VINA RESULT:      -5.3     25.204     27.575
REMARK  7 active torsions:
REMARK  status: ('A' for Active; 'I' for Inactive)
REMARK    1  A    between atoms: C_2  and  C_3 
REMARK    2  A    between atoms: C_3  and  O_6 
REMARK    3  A    between atoms: C_3  and  C_4 
REMARK    4  A    between atoms: C_7  and  O_6 
REMARK    5  A    between atoms: C_9  and  C_10 
REMARK    6  A    between atoms: N_15  and  C_14 
REMARK    7  A    between atoms: N_20  and  C_19 
REMARK       I    between atoms: C_22  and  N_20 
ROOT
ATOM      1  C   LIG d   1       1.616  87.306 114.906  0.00  0.00     0.161 C 
ATOM      2  C   LIG d   1       0.433  87.275 115.664  0.00  0.00     0.016 C 
ATOM      3  C   LIG d   1       0.053  88.305 116.555  0.00  0.00     0.038 C 
ATOM      4  C   LIG d   1       0.760  89.513 116.637  0.00  0.00     0.028 C 
ATOM      5  C   LIG d   1       2.234  89.379 116.266  0.00  0.00    -0.047 C 
ATOM      6  C   LIG d   1       2.344  88.666 114.899  0.00  0.00     0.091 C 
ENDROOT
BRANCH   1   7
ATOM      7  O   LIG d   1       1.344  86.876 113.558  0.00  0.00    -0.368 OA
BRANCH   7   8
ATOM      8  C   LIG d   1       1.507  85.460 113.295  0.00  0.00     0.119 C 
BRANCH   8   9
ATOM      9  C   LIG d   1       2.916  85.258 112.705  0.00  0.00     0.028 C 
ATOM     10  C   LIG d   1       3.271  86.324 111.654  0.00  0.00     0.006 C 
ENDBRANCH   8   9
BRANCH   8  11
ATOM     11  C   LIG d   1       0.540  84.980 112.209  0.00  0.00     0.028 C 
ATOM     12  C   LIG d   1      -0.405  86.089 111.720  0.00  0.00     0.006 C 
ENDBRANCH   8  11
ENDBRANCH   7   8
ENDBRANCH   1   7
BRANCH   6  13
ATOM     13  N   LIG d   1       3.755  88.419 114.501  0.00  0.00    -0.311 N 
ATOM     14  C   LIG d   1       4.467  89.267 113.762  0.00  0.00     0.210 C 
ATOM     15  C   LIG d   1       5.895  88.810 113.449  0.00  0.00     0.109 C 
ATOM     16  O   LIG d   1       4.062  90.369 113.362  0.00  0.00    -0.276 OA
ATOM     17  H   LIG d   1       4.172  87.562 114.809  0.00  0.00     0.149 HD
ENDBRANCH   6  13
BRANCH   5  18
ATOM     18  N   LIG d   1       2.817  90.734 116.261  0.00  0.00     0.381 N 
ATOM     19  H   LIG d   1       3.285  90.905 117.128  0.00  0.00    -0.090 HD
ATOM     20  H   LIG d   1       2.077  91.406 116.164  0.00  0.00    -0.090 HD
ATOM     21  H   LIG d   1       3.460  90.825 115.505  0.00  0.00    -0.090 HD
ENDBRANCH   5  18
BRANCH   3  22
ATOM     22  C   LIG d   1      -1.025  88.114 117.406  0.00  0.00     0.382 C 
ATOM     23  O   LIG d   1      -2.168  88.507 117.069  0.00  0.00    -0.241 OA
ATOM     24  O   LIG d   1      -0.861  87.592 118.525  0.00  0.00    -0.241 OA
ENDBRANCH   3  22
TORSDOF 7
ENDMDL
MODEL 6
REMARK VINA RESULT:      -5.2     26.619     28.863
REMARK  7 active torsions:
REMARK  status: ('A' for Active; 'I' for Inactive)
REMARK    1  A    between atoms: C_2  and  C_3 
REMARK    2  A    between atoms: C_3  and  O_6 
REMARK    3  A    between atoms: C_3  and  C_4 
REMARK    4  A    between atoms: C_7  and  O_6 
REMARK    5  A    between atoms: C_9  and  C_10 
REMARK    6  A    between atoms: N_15  and  C_14 
REMARK    7  A    between atoms: N_20  and  C_19 
REMARK       I    between atoms: C_22  and  N_20 
ROOT
ATOM      1  C   LIG d   1       2.726  88.766 115.027  0.00  0.00     0.161 C 
ATOM      2  C   LIG d   1       2.468  87.832 114.009  0.00  0.00     0.016 C 
ATOM      3  C   LIG d   1       3.354  87.589 112.934  0.00  0.00     0.038 C 
ATOM      4  C   LIG d   1       4.635  88.157 112.886  0.00  0.00     0.028 C 
ATOM      5  C   LIG d   1       4.736  89.488 113.624  0.00  0.00    -0.047 C 
ATOM      6  C   LIG d   1       4.168  89.315 115.051  0.00  0.00     0.091 C 
ENDROOT
BRANCH   1   7
ATOM      7  O   LIG d   1       2.384  88.200 116.307  0.00  0.00    -0.368 OA
BRANCH   7   8
ATOM      8  C   LIG d   1       1.207  88.746 116.952  0.00  0.00     0.119 C 
BRANCH   8   9
ATOM      9  C   LIG d   1       0.090  87.689 116.849  0.00  0.00     0.028 C 
ATOM     10  C   LIG d   1      -1.250  88.194 117.409  0.00  0.00     0.006 C 
ENDBRANCH   8   9
BRANCH   8  11
ATOM     11  C   LIG d   1       0.677  89.970 116.199  0.00  0.00     0.028 C 
ATOM     12  C   LIG d   1       0.771  91.263 117.024  0.00  0.00     0.006 C 
ENDBRANCH   8  11
ENDBRANCH   7   8
ENDBRANCH   1   7
BRANCH   6  13
ATOM     13  N   LIG d   1       4.151  90.590 115.813  0.00  0.00    -0.311 N 
ATOM     14  C   LIG d   1       4.599  90.704 117.062  0.00  0.00     0.210 C 
ATOM     15  C   LIG d   1       4.471  92.104 117.670  0.00  0.00     0.109 C 
ATOM     16  O   LIG d   1       5.119  89.786 117.714  0.00  0.00    -0.276 OA
ATOM     17  H   LIG d   1       3.774  91.394 115.349  0.00  0.00     0.149 HD
ENDBRANCH   6  13
BRANCH   5  18
ATOM     18  N   LIG d   1       6.153  89.899 113.611  0.00  0.00     0.381 N 
ATOM     19  H   LIG d   1       6.710  89.179 113.197  0.00  0.00    -0.090 HD
ATOM     20  H   LIG d   1       6.461  90.031 114.558  0.00  0.00    -0.090 HD
ATOM     21  H   LIG d   1       6.257  90.746 113.098  0.00  0.00    -0.090 HD
ENDBRANCH   5  18
BRANCH   3  22
ATOM     22  C   LIG d   1       2.944  86.798 111.872  0.00  0.00     0.382 C 
ATOM     23  O   LIG d   1       3.452  85.663 111.702  0.00  0.00    -0.241 OA
ATOM     24  O   LIG d   1       2.104  87.223 111.055  0.00  0.00    -0.241 OA
ENDBRANCH   3  22
TORSDOF 7
ENDMDL
MODEL 7
REMARK VINA RESULT:      -5.0     26.155     28.436
REMARK  7 active torsions:
REMARK  status: ('A' for Active; 'I' for Inactive)
REMARK    1  A    between atoms: C_2  and  C_3 
REMARK    2  A    between atoms: C_3  and  O_6 
REMARK    3  A    between atoms: C_3  and  C_4 
REMARK    4  A    between atoms: C_7  and  O_6 
REMARK    5  A    between atoms: C_9  and  C_10 
REMARK    6  A    between atoms: N_15  and  C_14 
REMARK    7  A    between atoms: N_20  and  C_19 
REMARK       I    between atoms: C_22  and  N_20 
ROOT
ATOM      1  C   LIG d   1       2.958  88.211 115.121  0.00  0.00     0.161 C 
ATOM      2  C   LIG d   1       2.653  87.423 113.999  0.00  0.00     0.016 C 
ATOM      3  C   LIG d   1       3.435  87.410 112.821  0.00  0.00     0.038 C 
ATOM      4  C   LIG d   1       4.668  88.075 112.742  0.00  0.00     0.028 C 
ATOM      5  C   LIG d   1       4.763  89.285 113.666  0.00  0.00    -0.047 C 
ATOM      6  C   LIG d   1       4.359  88.858 115.095  0.00  0.00     0.091 C 
ENDROOT
BRANCH   1   7
ATOM      7  O   LIG d   1       2.787  87.436 116.324  0.00  0.00    -0.368 OA
BRANCH   7   8
ATOM      8  C   LIG d   1       1.671  86.511 116.332  0.00  0.00     0.119 C 
BRANCH   8   9
ATOM      9  C   LIG d   1       0.677  86.994 117.406  0.00  0.00     0.028 C 
ATOM     10  C   LIG d   1      -0.373  87.965 116.840  0.00  0.00     0.006 C 
ENDBRANCH   8   9
BRANCH   8  11
ATOM     11  C   LIG d   1       2.109  85.115 116.784  0.00  0.00     0.028 C 
ATOM     12  C   LIG d   1       2.128  84.095 115.634  0.00  0.00     0.006 C 
ENDBRANCH   8  11
ENDBRANCH   7   8
ENDBRANCH   1   7
BRANCH   6  13
ATOM     13  N   LIG d   1       4.344  90.001 116.045  0.00  0.00    -0.311 N 
ATOM     14  C   LIG d   1       5.387  90.340 116.801  0.00  0.00     0.210 C 
ATOM     15  C   LIG d   1       5.152  91.538 117.726  0.00  0.00     0.109 C 
ATOM     16  O   LIG d   1       6.494  89.782 116.770  0.00  0.00    -0.276 OA
ATOM     17  H   LIG d   1       3.495  90.528 116.111  0.00  0.00     0.149 HD
ENDBRANCH   6  13
BRANCH   5  18
ATOM     18  N   LIG d   1       6.143  89.800 113.585  0.00  0.00     0.381 N 
ATOM     19  H   LIG d   1       6.306  90.451 114.327  0.00  0.00    -0.090 HD
ATOM     20  H   LIG d   1       6.260  90.282 112.711  0.00  0.00    -0.090 HD
ATOM     21  H   LIG d   1       6.792  89.046 113.646  0.00  0.00    -0.090 HD
ENDBRANCH   5  18
BRANCH   3  22
ATOM     22  C   LIG d   1       2.966  86.757 111.691  0.00  0.00     0.382 C 
ATOM     23  O   LIG d   1       3.547  85.726 111.276  0.00  0.00    -0.241 OA
ATOM     24  O   LIG d   1       1.995  87.212 111.057  0.00  0.00    -0.241 OA
ENDBRANCH   3  22
TORSDOF 7
ENDMDL
MODEL 8
REMARK VINA RESULT:      -4.9      2.215      3.369
REMARK  7 active torsions:
REMARK  status: ('A' for Active; 'I' for Inactive)
REMARK    1  A    between atoms: C_2  and  C_3 
REMARK    2  A    between atoms: C_3  and  O_6 
REMARK    3  A    between atoms: C_3  and  C_4 
REMARK    4  A    between atoms: C_7  and  O_6 
REMARK    5  A    between atoms: C_9  and  C_10 
REMARK    6  A    between atoms: N_15  and  C_14 
REMARK    7  A    between atoms: N_20  and  C_19 
REMARK       I    between atoms: C_22  and  N_20 
ROOT
ATOM      1  C   LIG d   1     -15.507  64.956 116.505  0.00  0.00     0.161 C 
ATOM      2  C   LIG d   1     -14.806  66.174 116.536  0.00  0.00     0.016 C 
ATOM      3  C   LIG d   1     -14.557  66.958 115.386  0.00  0.00     0.038 C 
ATOM      4  C   LIG d   1     -15.126  66.650 114.141  0.00  0.00     0.028 C 
ATOM      5  C   LIG d   1     -15.418  65.164 113.959  0.00  0.00    -0.047 C 
ATOM      6  C   LIG d   1     -16.230  64.660 115.174  0.00  0.00     0.091 C 
ENDROOT
BRANCH   1   7
ATOM      7  O   LIG d   1     -16.437  64.899 117.604  0.00  0.00    -0.368 OA
BRANCH   7   8
ATOM      8  C   LIG d   1     -16.032  64.097 118.740  0.00  0.00     0.119 C 
BRANCH   8   9
ATOM      9  C   LIG d   1     -14.995  63.073 118.238  0.00  0.00     0.028 C 
ATOM     10  C   LIG d   1     -13.733  63.036 119.118  0.00  0.00     0.006 C 
ENDBRANCH   8   9
BRANCH   8  11
ATOM     11  C   LIG d   1     -17.198  63.262 119.277  0.00  0.00     0.028 C 
ATOM     12  C   LIG d   1     -18.350  63.130 118.268  0.00  0.00     0.006 C 
ENDBRANCH   8  11
ENDBRANCH   7   8
ENDBRANCH   1   7
BRANCH   6  13
ATOM     13  N   LIG d   1     -16.486  63.198 115.117  0.00  0.00    -0.311 N 
ATOM     14  C   LIG d   1     -17.598  62.667 114.611  0.00  0.00     0.210 C 
ATOM     15  C   LIG d   1     -17.669  61.138 114.668  0.00  0.00     0.109 C 
ATOM     16  O   LIG d   1     -18.518  63.316 114.090  0.00  0.00    -0.276 OA
ATOM     17  H   LIG d   1     -15.778  62.596 115.490  0.00  0.00     0.149 HD
ENDBRANCH   6  13
BRANCH   5  18
ATOM     18  N   LIG d   1     -16.133  65.004 112.679  0.00  0.00     0.381 N 
ATOM     19  H   LIG d   1     -16.927  65.612 112.656  0.00  0.00    -0.090 HD
ATOM     20  H   LIG d   1     -16.458  64.056 112.605  0.00  0.00    -0.090 HD
ATOM     21  H   LIG d   1     -15.523  65.214 111.920  0.00  0.00    -0.090 HD
ENDBRANCH   5  18
BRANCH   3  22
ATOM     22  C   LIG d   1     -13.697  68.043 115.467  0.00  0.00     0.382 C 
ATOM     23  O   LIG d   1     -12.774  68.049 116.317  0.00  0.00    -0.241 OA
ATOM     24  O   LIG d   1     -13.860  69.034 114.731  0.00  0.00    -0.241 OA
ENDBRANCH   3  22
TORSDOF 7
ENDMDL
MODEL 9
REMARK VINA RESULT:      -4.9     26.937     28.881
REMARK  7 active torsions:
REMARK  status: ('A' for Active; 'I' for Inactive)
REMARK    1  A    between atoms: C_2  and  C_3 
REMARK    2  A    between atoms: C_3  and  O_6 
REMARK    3  A    between atoms: C_3  and  C_4 
REMARK    4  A    between atoms: C_7  and  O_6 
REMARK    5  A    between atoms: C_9  and  C_10 
REMARK    6  A    between atoms: N_15  and  C_14 
REMARK    7  A    between atoms: N_20  and  C_19 
REMARK       I    between atoms: C_22  and  N_20 
ROOT
ATOM      1  C   LIG d   1       2.978  88.274 115.112  0.00  0.00     0.161 C 
ATOM      2  C   LIG d   1       2.668  87.470 114.003  0.00  0.00     0.016 C 
ATOM      3  C   LIG d   1       3.447  87.437 112.823  0.00  0.00     0.038 C 
ATOM      4  C   LIG d   1       4.681  88.098 112.731  0.00  0.00     0.028 C 
ATOM      5  C   LIG d   1       4.782  89.321 113.635  0.00  0.00    -0.047 C 
ATOM      6  C   LIG d   1       4.380  88.917 115.072  0.00  0.00     0.091 C 
ENDROOT
BRANCH   1   7
ATOM      7  O   LIG d   1       2.808  87.517 116.327  0.00  0.00    -0.368 OA
BRANCH   7   8
ATOM      8  C   LIG d   1       3.959  86.759 116.772  0.00  0.00     0.119 C 
BRANCH   8   9
ATOM      9  C   LIG d   1       3.565  85.269 116.758  0.00  0.00     0.028 C 
ATOM     10  C   LIG d   1       4.172  84.513 115.564  0.00  0.00     0.006 C 
ENDBRANCH   8   9
BRANCH   8  11
ATOM     11  C   LIG d   1       4.304  87.073 118.231  0.00  0.00     0.028 C 
ATOM     12  C   LIG d   1       3.322  88.066 118.874  0.00  0.00     0.006 C 
ENDBRANCH   8  11
ENDBRANCH   7   8
ENDBRANCH   1   7
BRANCH   6  13
ATOM     13  N   LIG d   1       4.371  90.074 116.005  0.00  0.00    -0.311 N 
ATOM     14  C   LIG d   1       5.398  90.389 116.793  0.00  0.00     0.210 C 
ATOM     15  C   LIG d   1       5.172  91.608 117.692  0.00  0.00     0.109 C 
ATOM     16  O   LIG d   1       6.485  89.793 116.809  0.00  0.00    -0.276 OA
ATOM     17  H   LIG d   1       3.539  90.630 116.033  0.00  0.00     0.149 HD
ENDBRANCH   6  13
BRANCH   5  18
ATOM     18  N   LIG d   1       6.163  89.831 113.543  0.00  0.00     0.381 N 
ATOM     19  H   LIG d   1       6.330  90.492 114.274  0.00  0.00    -0.090 HD
ATOM     20  H   LIG d   1       6.278  90.299 112.661  0.00  0.00    -0.090 HD
ATOM     21  H   LIG d   1       6.810  89.076 113.613  0.00  0.00    -0.090 HD
ENDBRANCH   5  18
BRANCH   3  22
ATOM     22  C   LIG d   1       2.972  86.769 111.704  0.00  0.00     0.382 C 
ATOM     23  O   LIG d   1       3.538  85.720 111.313  0.00  0.00    -0.241 OA
ATOM     24  O   LIG d   1       2.012  87.226 111.056  0.00  0.00    -0.241 OA
ENDBRANCH   3  22
TORSDOF 7
ENDMDL
