MODEL 1
REMARK VINA RESULT:      -5.9      0.000      0.000
REMARK  7 active torsions:
REMARK  status: ('A' for Active; 'I' for Inactive)
REMARK    1  A    between atoms: C_2  and  C_3 
REMARK    2  A    between atoms: C_3  and  O_6 
REMARK    3  A    between atoms: C_3  and  C_4 
REMARK    4  A    between atoms: C_7  and  O_6 
REMARK    5  A    between atoms: C_9  and  C_10 
REMARK    6  A    between atoms: N_15  and  C_14 
REMARK    7  A    between atoms: N_20  and  C_19 
REMARK       I    between atoms: C_22  and  N_20 
ROOT
ATOM      1  C   LIG d   1      -7.796  74.514 117.681  0.00  0.00     0.161 C 
ATOM      2  C   LIG d   1      -9.011  75.207 117.814  0.00  0.00     0.016 C 
ATOM      3  C   LIG d   1      -9.103  76.617 117.849  0.00  0.00     0.038 C 
ATOM      4  C   LIG d   1      -7.994  77.439 117.599  0.00  0.00     0.028 C 
ATOM      5  C   LIG d   1      -6.664  76.788 117.962  0.00  0.00    -0.047 C 
ATOM      6  C   LIG d   1      -6.589  75.395 117.296  0.00  0.00     0.091 C 
ENDROOT
BRANCH   1   7
ATOM      7  O   LIG d   1      -7.950  73.435 116.739  0.00  0.00    -0.368 OA
BRANCH   7   8
ATOM      8  C   LIG d   1      -7.935  72.097 117.295  0.00  0.00     0.119 C 
BRANCH   8   9
ATOM      9  C   LIG d   1      -6.871  71.289 116.528  0.00  0.00     0.028 C 
ATOM     10  C   LIG d   1      -6.340  72.039 115.295  0.00  0.00     0.006 C 
ENDBRANCH   8   9
BRANCH   8  11
ATOM     11  C   LIG d   1      -9.259  71.371 117.036  0.00  0.00     0.028 C 
ATOM     12  C   LIG d   1      -9.196  69.875 117.381  0.00  0.00     0.006 C 
ENDBRANCH   8  11
ENDBRANCH   7   8
ENDBRANCH   1   7
BRANCH   6  13
ATOM     13  N   LIG d   1      -5.356  74.654 117.668  0.00  0.00    -0.311 N 
ATOM     14  C   LIG d   1      -4.249  74.654 116.927  0.00  0.00     0.210 C 
ATOM     15  C   LIG d   1      -3.098  73.809 117.483  0.00  0.00     0.109 C 
ATOM     16  O   LIG d   1      -4.099  75.300 115.879  0.00  0.00    -0.276 OA
ATOM     17  H   LIG d   1      -5.379  74.128 118.520  0.00  0.00     0.149 HD
ENDBRANCH   6  13
BRANCH   5  18
ATOM     18  N   LIG d   1      -5.588  77.697 117.523  0.00  0.00     0.381 N 
ATOM     19  H   LIG d   1      -5.983  78.560 117.206  0.00  0.00    -0.090 HD
ATOM     20  H   LIG d   1      -5.098  77.273 116.755  0.00  0.00    -0.090 HD
ATOM     21  H   LIG d   1      -4.958  77.868 118.276  0.00  0.00    -0.090 HD
ENDBRANCH   5  18
BRANCH   3  22
ATOM     22  C   LIG d   1     -10.309  77.220 118.175  0.00  0.00     0.382 C 
ATOM     23  O   LIG d   1     -10.332  78.420 118.540  0.00  0.00    -0.241 OA
ATOM     24  O   LIG d   1     -11.369  76.565 118.152  0.00  0.00    -0.241 OA
ENDBRANCH   3  22
TORSDOF 7
ENDMDL
MODEL 2
REMARK VINA RESULT:      -5.4      1.602      2.397
REMARK  7 active torsions:
REMARK  status: ('A' for Active; 'I' for Inactive)
REMARK    1  A    between atoms: C_2  and  C_3 
REMARK    2  A    between atoms: C_3  and  O_6 
REMARK    3  A    between atoms: C_3  and  C_4 
REMARK    4  A    between atoms: C_7  and  O_6 
REMARK    5  A    between atoms: C_9  and  C_10 
REMARK    6  A    between atoms: N_15  and  C_14 
REMARK    7  A    between atoms: N_20  and  C_19 
REMARK       I    between atoms: C_22  and  N_20 
ROOT
ATOM      1  C   LIG d   1      -7.032  74.785 118.334  0.00  0.00     0.161 C 
ATOM      2  C   LIG d   1      -8.407  74.788 118.043  0.00  0.00     0.016 C 
ATOM      3  C   LIG d   1      -9.125  75.955 117.694  0.00  0.00     0.038 C 
ATOM      4  C   LIG d   1      -8.483  77.180 117.464  0.00  0.00     0.028 C 
ATOM      5  C   LIG d   1      -7.177  77.334 118.237  0.00  0.00    -0.047 C 
ATOM      6  C   LIG d   1      -6.293  76.092 117.980  0.00  0.00     0.091 C 
ENDROOT
BRANCH   1   7
ATOM      7  O   LIG d   1      -6.399  73.661 117.691  0.00  0.00    -0.368 OA
BRANCH   7   8
ATOM      8  C   LIG d   1      -6.983  73.234 116.435  0.00  0.00     0.119 C 
BRANCH   8   9
ATOM      9  C   LIG d   1      -7.325  71.738 116.569  0.00  0.00     0.028 C 
ATOM     10  C   LIG d   1      -8.841  71.478 116.542  0.00  0.00     0.006 C 
ENDBRANCH   8   9
BRANCH   8  11
ATOM     11  C   LIG d   1      -5.967  73.317 115.292  0.00  0.00     0.028 C 
ATOM     12  C   LIG d   1      -5.680  74.762 114.853  0.00  0.00     0.006 C 
ENDBRANCH   8  11
ENDBRANCH   7   8
ENDBRANCH   1   7
BRANCH   6  13
ATOM     13  N   LIG d   1      -5.032  76.122 118.766  0.00  0.00    -0.311 N 
ATOM     14  C   LIG d   1      -3.877  76.574 118.280  0.00  0.00     0.210 C 
ATOM     15  C   LIG d   1      -2.693  76.497 119.250  0.00  0.00     0.109 C 
ATOM     16  O   LIG d   1      -3.726  77.059 117.149  0.00  0.00    -0.276 OA
ATOM     17  H   LIG d   1      -5.070  75.776 119.704  0.00  0.00     0.149 HD
ENDBRANCH   6  13
BRANCH   5  18
ATOM     18  N   LIG d   1      -6.546  78.593 117.799  0.00  0.00     0.381 N 
ATOM     19  H   LIG d   1      -5.945  78.418 117.019  0.00  0.00    -0.090 HD
ATOM     20  H   LIG d   1      -5.987  78.956 118.552  0.00  0.00    -0.090 HD
ATOM     21  H   LIG d   1      -7.246  79.256 117.547  0.00  0.00    -0.090 HD
ENDBRANCH   5  18
BRANCH   3  22
ATOM     22  C   LIG d   1     -10.509  75.910 117.611  0.00  0.00     0.382 C 
ATOM     23  O   LIG d   1     -11.195  76.855 118.070  0.00  0.00    -0.241 OA
ATOM     24  O   LIG d   1     -11.081  74.917 117.123  0.00  0.00    -0.241 OA
ENDBRANCH   3  22
TORSDOF 7
ENDMDL
MODEL 3
REMARK VINA RESULT:      -5.2      2.204      4.848
REMARK  7 active torsions:
REMARK  status: ('A' for Active; 'I' for Inactive)
REMARK    1  A    between atoms: C_2  and  C_3 
REMARK    2  A    between atoms: C_3  and  O_6 
REMARK    3  A    between atoms: C_3  and  C_4 
REMARK    4  A    between atoms: C_7  and  O_6 
REMARK    5  A    between atoms: C_9  and  C_10 
REMARK    6  A    between atoms: N_15  and  C_14 
REMARK    7  A    between atoms: N_20  and  C_19 
REMARK       I    between atoms: C_22  and  N_20 
ROOT
ATOM      1  C   LIG d   1      -6.325  74.904 117.437  0.00  0.00     0.161 C 
ATOM      2  C   LIG d   1      -6.693  73.617 117.011  0.00  0.00     0.016 C 
ATOM      3  C   LIG d   1      -8.036  73.183 116.921  0.00  0.00     0.038 C 
ATOM      4  C   LIG d   1      -9.114  74.061 117.107  0.00  0.00     0.028 C 
ATOM      5  C   LIG d   1      -8.789  75.232 118.028  0.00  0.00    -0.047 C 
ATOM      6  C   LIG d   1      -7.490  75.911 117.537  0.00  0.00     0.091 C 
ENDROOT
BRANCH   1   7
ATOM      7  O   LIG d   1      -5.287  75.423 116.581  0.00  0.00    -0.368 OA
BRANCH   7   8
ATOM      8  C   LIG d   1      -4.449  74.439 115.927  0.00  0.00     0.119 C 
BRANCH   8   9
ATOM      9  C   LIG d   1      -3.034  74.565 116.524  0.00  0.00     0.028 C 
ATOM     10  C   LIG d   1      -2.805  73.602 117.701  0.00  0.00     0.006 C 
ENDBRANCH   8   9
BRANCH   8  11
ATOM     11  C   LIG d   1      -4.289  74.746 114.435  0.00  0.00     0.028 C 
ATOM     12  C   LIG d   1      -5.427  75.618 113.881  0.00  0.00     0.006 C 
ENDBRANCH   8  11
ENDBRANCH   7   8
ENDBRANCH   1   7
BRANCH   6  13
ATOM     13  N   LIG d   1      -7.054  77.015 118.431  0.00  0.00    -0.311 N 
ATOM     14  C   LIG d   1      -6.616  78.191 117.985  0.00  0.00     0.210 C 
ATOM     15  C   LIG d   1      -6.198  79.182 119.075  0.00  0.00     0.109 C 
ATOM     16  O   LIG d   1      -6.564  78.519 116.790  0.00  0.00    -0.276 OA
ATOM     17  H   LIG d   1      -7.094  76.846 119.417  0.00  0.00     0.149 HD
ENDBRANCH   6  13
BRANCH   5  18
ATOM     18  N   LIG d   1      -9.952  76.139 118.023  0.00  0.00     0.381 N 
ATOM     19  H   LIG d   1     -10.003  76.621 117.148  0.00  0.00    -0.090 HD
ATOM     20  H   LIG d   1      -9.837  76.820 118.753  0.00  0.00    -0.090 HD
ATOM     21  H   LIG d   1     -10.790  75.620 118.173  0.00  0.00    -0.090 HD
ENDBRANCH   5  18
BRANCH   3  22
ATOM     22  C   LIG d   1      -8.310  71.845 116.680  0.00  0.00     0.382 C 
ATOM     23  O   LIG d   1      -9.250  71.278 117.288  0.00  0.00    -0.241 OA
ATOM     24  O   LIG d   1      -7.601  71.186 115.896  0.00  0.00    -0.241 OA
ENDBRANCH   3  22
TORSDOF 7
ENDMDL
MODEL 4
REMARK VINA RESULT:      -5.0     14.359     16.431
REMARK  7 active torsions:
REMARK  status: ('A' for Active; 'I' for Inactive)
REMARK    1  A    between atoms: C_2  and  C_3 
REMARK    2  A    between atoms: C_3  and  O_6 
REMARK    3  A    between atoms: C_3  and  C_4 
REMARK    4  A    between atoms: C_7  and  O_6 
REMARK    5  A    between atoms: C_9  and  C_10 
REMARK    6  A    between atoms: N_15  and  C_14 
REMARK    7  A    between atoms: N_20  and  C_19 
REMARK       I    between atoms: C_22  and  N_20 
ROOT
ATOM      1  C   LIG d   1       2.271  87.235 115.062  0.00  0.00     0.161 C 
ATOM      2  C   LIG d   1       1.993  88.076 116.153  0.00  0.00     0.016 C 
ATOM      3  C   LIG d   1       2.484  89.397 116.262  0.00  0.00     0.038 C 
ATOM      4  C   LIG d   1       3.167  90.024 115.209  0.00  0.00     0.028 C 
ATOM      5  C   LIG d   1       3.903  89.047 114.298  0.00  0.00    -0.047 C 
ATOM      6  C   LIG d   1       2.922  87.939 113.852  0.00  0.00     0.091 C 
ENDROOT
BRANCH   1   7
ATOM      7  O   LIG d   1       1.071  86.548 114.656  0.00  0.00    -0.368 OA
BRANCH   7   8
ATOM      8  C   LIG d   1       0.924  85.187 115.130  0.00  0.00     0.119 C 
BRANCH   8   9
ATOM      9  C   LIG d   1       1.301  84.249 113.968  0.00  0.00     0.028 C 
ATOM     10  C   LIG d   1       2.639  83.528 114.205  0.00  0.00     0.006 C 
ENDBRANCH   8   9
BRANCH   8  11
ATOM     11  C   LIG d   1      -0.538  84.865 115.455  0.00  0.00     0.028 C 
ATOM     12  C   LIG d   1      -1.527  85.572 114.515  0.00  0.00     0.006 C 
ENDBRANCH   8  11
ENDBRANCH   7   8
ENDBRANCH   1   7
BRANCH   6  13
ATOM     13  N   LIG d   1       3.582  86.895 113.026  0.00  0.00    -0.311 N 
ATOM     14  C   LIG d   1       3.184  86.572 111.797  0.00  0.00     0.210 C 
ATOM     15  C   LIG d   1       3.991  85.455 111.128  0.00  0.00     0.109 C 
ATOM     16  O   LIG d   1       2.260  87.128 111.184  0.00  0.00    -0.276 OA
ATOM     17  H   LIG d   1       4.361  86.416 113.434  0.00  0.00     0.149 HD
ENDBRANCH   6  13
BRANCH   5  18
ATOM     18  N   LIG d   1       4.454  89.820 113.168  0.00  0.00     0.381 N 
ATOM     19  H   LIG d   1       4.854  89.197 112.495  0.00  0.00    -0.090 HD
ATOM     20  H   LIG d   1       5.180  90.423 113.511  0.00  0.00    -0.090 HD
ATOM     21  H   LIG d   1       3.734  90.362 112.743  0.00  0.00    -0.090 HD
ENDBRANCH   5  18
BRANCH   3  22
ATOM     22  C   LIG d   1       2.328  90.092 117.451  0.00  0.00     0.382 C 
ATOM     23  O   LIG d   1       3.160  90.973 117.777  0.00  0.00    -0.241 OA
ATOM     24  O   LIG d   1       1.390  89.819 118.224  0.00  0.00    -0.241 OA
ENDBRANCH   3  22
TORSDOF 7
ENDMDL
MODEL 5
REMARK VINA RESULT:      -4.9      2.773      5.969
REMARK  7 active torsions:
REMARK  status: ('A' for Active; 'I' for Inactive)
REMARK    1  A    between atoms: C_2  and  C_3 
REMARK    2  A    between atoms: C_3  and  O_6 
REMARK    3  A    between atoms: C_3  and  C_4 
REMARK    4  A    between atoms: C_7  and  O_6 
REMARK    5  A    between atoms: C_9  and  C_10 
REMARK    6  A    between atoms: N_15  and  C_14 
REMARK    7  A    between atoms: N_20  and  C_19 
REMARK       I    between atoms: C_22  and  N_20 
ROOT
ATOM      1  C   LIG d   1      -4.289  74.495 116.649  0.00  0.00     0.161 C 
ATOM      2  C   LIG d   1      -3.384  73.725 117.398  0.00  0.00     0.016 C 
ATOM      3  C   LIG d   1      -1.986  73.940 117.389  0.00  0.00     0.038 C 
ATOM      4  C   LIG d   1      -1.410  75.044 116.744  0.00  0.00     0.028 C 
ATOM      5  C   LIG d   1      -2.232  75.554 115.564  0.00  0.00    -0.047 C 
ATOM      6  C   LIG d   1      -3.691  75.774 116.027  0.00  0.00     0.091 C 
ENDROOT
BRANCH   1   7
ATOM      7  O   LIG d   1      -5.437  74.821 117.458  0.00  0.00    -0.368 OA
BRANCH   7   8
ATOM      8  C   LIG d   1      -6.580  73.940 117.326  0.00  0.00     0.119 C 
BRANCH   8   9
ATOM      9  C   LIG d   1      -6.452  73.214 115.973  0.00  0.00     0.028 C 
ATOM     10  C   LIG d   1      -6.904  71.746 116.050  0.00  0.00     0.006 C 
ENDBRANCH   8   9
BRANCH   8  11
ATOM     11  C   LIG d   1      -7.888  74.733 117.238  0.00  0.00     0.028 C 
ATOM     12  C   LIG d   1      -7.666  76.210 116.876  0.00  0.00     0.006 C 
ENDBRANCH   8  11
ENDBRANCH   7   8
ENDBRANCH   1   7
BRANCH   6  13
ATOM     13  N   LIG d   1      -4.582  76.191 114.914  0.00  0.00    -0.311 N 
ATOM     14  C   LIG d   1      -4.736  75.487 113.794  0.00  0.00     0.210 C 
ATOM     15  C   LIG d   1      -5.686  76.107 112.765  0.00  0.00     0.109 C 
ATOM     16  O   LIG d   1      -4.200  74.391 113.568  0.00  0.00    -0.276 OA
ATOM     17  H   LIG d   1      -5.079  77.053 115.026  0.00  0.00     0.149 HD
ENDBRANCH   6  13
BRANCH   5  18
ATOM     18  N   LIG d   1      -1.590  76.787 115.072  0.00  0.00     0.381 N 
ATOM     19  H   LIG d   1      -1.650  76.825 114.074  0.00  0.00    -0.090 HD
ATOM     20  H   LIG d   1      -0.618  76.772 115.329  0.00  0.00    -0.090 HD
ATOM     21  H   LIG d   1      -2.034  77.585 115.470  0.00  0.00    -0.090 HD
ENDBRANCH   5  18
BRANCH   3  22
ATOM     22  C   LIG d   1      -1.145  73.021 117.998  0.00  0.00     0.382 C 
ATOM     23  O   LIG d   1      -1.626  72.111 118.716  0.00  0.00    -0.241 OA
ATOM     24  O   LIG d   1       0.090  73.117 117.875  0.00  0.00    -0.241 OA
ENDBRANCH   3  22
TORSDOF 7
ENDMDL
MODEL 6
REMARK VINA RESULT:      -4.9     11.155     13.741
REMARK  7 active torsions:
REMARK  status: ('A' for Active; 'I' for Inactive)
REMARK    1  A    between atoms: C_2  and  C_3 
REMARK    2  A    between atoms: C_3  and  O_6 
REMARK    3  A    between atoms: C_3  and  C_4 
REMARK    4  A    between atoms: C_7  and  O_6 
REMARK    5  A    between atoms: C_9  and  C_10 
REMARK    6  A    between atoms: N_15  and  C_14 
REMARK    7  A    between atoms: N_20  and  C_19 
REMARK       I    between atoms: C_22  and  N_20 
ROOT
ATOM      1  C   LIG d   1       0.058  84.495 112.968  0.00  0.00     0.161 C 
ATOM      2  C   LIG d   1      -0.977  83.548 113.046  0.00  0.00     0.016 C 
ATOM      3  C   LIG d   1      -0.842  82.210 112.610  0.00  0.00     0.038 C 
ATOM      4  C   LIG d   1       0.393  81.683 112.204  0.00  0.00     0.028 C 
ATOM      5  C   LIG d   1       1.341  82.733 111.634  0.00  0.00    -0.047 C 
ATOM      6  C   LIG d   1       1.446  83.910 112.631  0.00  0.00     0.091 C 
ENDROOT
BRANCH   1   7
ATOM      7  O   LIG d   1       0.119  85.255 114.191  0.00  0.00    -0.368 OA
BRANCH   7   8
ATOM      8  C   LIG d   1       0.799  84.621 115.302  0.00  0.00     0.119 C 
BRANCH   8   9
ATOM      9  C   LIG d   1      -0.239  84.410 116.421  0.00  0.00     0.028 C 
ATOM     10  C   LIG d   1       0.382  84.510 117.825  0.00  0.00     0.006 C 
ENDBRANCH   8   9
BRANCH   8  11
ATOM     11  C   LIG d   1       1.863  85.543 115.904  0.00  0.00     0.028 C 
ATOM     12  C   LIG d   1       1.877  86.938 115.258  0.00  0.00     0.006 C 
ENDBRANCH   8  11
ENDBRANCH   7   8
ENDBRANCH   1   7
BRANCH   6  13
ATOM     13  N   LIG d   1       2.288  85.019 112.112  0.00  0.00    -0.311 N 
ATOM     14  C   LIG d   1       3.574  85.170 112.423  0.00  0.00     0.210 C 
ATOM     15  C   LIG d   1       4.251  86.393 111.796  0.00  0.00     0.109 C 
ATOM     16  O   LIG d   1       4.226  84.390 113.133  0.00  0.00    -0.276 OA
ATOM     17  H   LIG d   1       1.846  85.681 111.504  0.00  0.00     0.149 HD
ENDBRANCH   6  13
BRANCH   5  18
ATOM     18  N   LIG d   1       2.636  82.074 111.380  0.00  0.00     0.381 N 
ATOM     19  H   LIG d   1       2.877  81.490 112.156  0.00  0.00    -0.090 HD
ATOM     20  H   LIG d   1       3.346  82.778 111.282  0.00  0.00    -0.090 HD
ATOM     21  H   LIG d   1       2.583  81.527 110.548  0.00  0.00    -0.090 HD
ENDBRANCH   5  18
BRANCH   3  22
ATOM     22  C   LIG d   1      -1.961  81.394 112.541  0.00  0.00     0.382 C 
ATOM     23  O   LIG d   1      -1.847  80.205 112.156  0.00  0.00    -0.241 OA
ATOM     24  O   LIG d   1      -3.089  81.844 112.816  0.00  0.00    -0.241 OA
ENDBRANCH   3  22
TORSDOF 7
ENDMDL
MODEL 7
REMARK VINA RESULT:      -4.7     15.323     17.687
REMARK  7 active torsions:
REMARK  status: ('A' for Active; 'I' for Inactive)
REMARK    1  A    between atoms: C_2  and  C_3 
REMARK    2  A    between atoms: C_3  and  O_6 
REMARK    3  A    between atoms: C_3  and  C_4 
REMARK    4  A    between atoms: C_7  and  O_6 
REMARK    5  A    between atoms: C_9  and  C_10 
REMARK    6  A    between atoms: N_15  and  C_14 
REMARK    7  A    between atoms: N_20  and  C_19 
REMARK       I    between atoms: C_22  and  N_20 
ROOT
ATOM      1  C   LIG d   1       3.422  88.014 115.514  0.00  0.00     0.161 C 
ATOM      2  C   LIG d   1       2.757  87.395 114.442  0.00  0.00     0.016 C 
ATOM      3  C   LIG d   1       3.257  87.381 113.120  0.00  0.00     0.038 C 
ATOM      4  C   LIG d   1       4.538  87.859 112.807  0.00  0.00     0.028 C 
ATOM      5  C   LIG d   1       5.029  88.944 113.759  0.00  0.00    -0.047 C 
ATOM      6  C   LIG d   1       4.873  88.444 115.213  0.00  0.00     0.091 C 
ENDROOT
BRANCH   1   7
ATOM      7  O   LIG d   1       3.382  87.159 116.673  0.00  0.00    -0.368 OA
BRANCH   7   8
ATOM      8  C   LIG d   1       3.013  85.778 116.435  0.00  0.00     0.119 C 
BRANCH   8   9
ATOM      9  C   LIG d   1       1.907  85.414 117.444  0.00  0.00     0.028 C 
ATOM     10  C   LIG d   1       0.594  85.006 116.755  0.00  0.00     0.006 C 
ENDBRANCH   8   9
BRANCH   8  11
ATOM     11  C   LIG d   1       4.174  84.829 116.745  0.00  0.00     0.028 C 
ATOM     12  C   LIG d   1       5.125  84.642 115.553  0.00  0.00     0.006 C 
ENDBRANCH   8  11
ENDBRANCH   7   8
ENDBRANCH   1   7
BRANCH   6  13
ATOM     13  N   LIG d   1       5.252  89.477 116.212  0.00  0.00    -0.311 N 
ATOM     14  C   LIG d   1       6.444  89.520 116.806  0.00  0.00     0.210 C 
ATOM     15  C   LIG d   1       6.620  90.656 117.819  0.00  0.00     0.109 C 
ATOM     16  O   LIG d   1       7.382  88.745 116.566  0.00  0.00    -0.276 OA
ATOM     17  H   LIG d   1       4.561  90.164 116.442  0.00  0.00     0.149 HD
ENDBRANCH   6  13
BRANCH   5  18
ATOM     18  N   LIG d   1       6.427  89.252 113.401  0.00  0.00     0.381 N 
ATOM     19  H   LIG d   1       6.448  89.967 112.701  0.00  0.00    -0.090 HD
ATOM     20  H   LIG d   1       6.855  88.426 113.021  0.00  0.00    -0.090 HD
ATOM     21  H   LIG d   1       6.927  89.552 114.208  0.00  0.00    -0.090 HD
ENDBRANCH   5  18
BRANCH   3  22
ATOM     22  C   LIG d   1       2.455  86.921 112.087  0.00  0.00     0.382 C 
ATOM     23  O   LIG d   1       1.206  86.945 112.204  0.00  0.00    -0.241 OA
ATOM     24  O   LIG d   1       2.965  86.440 111.057  0.00  0.00    -0.241 OA
ENDBRANCH   3  22
TORSDOF 7
ENDMDL
MODEL 8
REMARK VINA RESULT:      -4.6     13.779     16.028
REMARK  7 active torsions:
REMARK  status: ('A' for Active; 'I' for Inactive)
REMARK    1  A    between atoms: C_2  and  C_3 
REMARK    2  A    between atoms: C_3  and  O_6 
REMARK    3  A    between atoms: C_3  and  C_4 
REMARK    4  A    between atoms: C_7  and  O_6 
REMARK    5  A    between atoms: C_9  and  C_10 
REMARK    6  A    between atoms: N_15  and  C_14 
REMARK    7  A    between atoms: N_20  and  C_19 
REMARK       I    between atoms: C_22  and  N_20 
ROOT
ATOM      1  C   LIG d   1       2.224  86.394 113.928  0.00  0.00     0.161 C 
ATOM      2  C   LIG d   1       1.252  85.590 114.546  0.00  0.00     0.016 C 
ATOM      3  C   LIG d   1       1.085  85.509 115.947  0.00  0.00     0.038 C 
ATOM      4  C   LIG d   1       1.785  86.348 116.827  0.00  0.00     0.028 C 
ATOM      5  C   LIG d   1       3.131  86.811 116.280  0.00  0.00    -0.047 C 
ATOM      6  C   LIG d   1       2.922  87.400 114.866  0.00  0.00     0.091 C 
ENDROOT
BRANCH   1   7
ATOM      7  O   LIG d   1       1.646  87.079 112.799  0.00  0.00    -0.368 OA
BRANCH   7   8
ATOM      8  C   LIG d   1       1.930  86.513 111.496  0.00  0.00     0.119 C 
BRANCH   8   9
ATOM      9  C   LIG d   1       1.252  85.130 111.435  0.00  0.00     0.028 C 
ATOM     10  C   LIG d   1      -0.246  85.226 111.102  0.00  0.00     0.006 C 
ENDBRANCH   8   9
BRANCH   8  11
ATOM     11  C   LIG d   1       3.427  86.238 111.322  0.00  0.00     0.028 C 
ATOM     12  C   LIG d   1       3.734  84.755 111.060  0.00  0.00     0.006 C 
ENDBRANCH   8  11
ENDBRANCH   7   8
ENDBRANCH   1   7
BRANCH   6  13
ATOM     13  N   LIG d   1       4.202  87.800 114.225  0.00  0.00    -0.311 N 
ATOM     14  C   LIG d   1       4.442  89.030 113.772  0.00  0.00     0.210 C 
ATOM     15  C   LIG d   1       5.818  89.224 113.127  0.00  0.00     0.109 C 
ATOM     16  O   LIG d   1       3.659  89.986 113.873  0.00  0.00    -0.276 OA
ATOM     17  H   LIG d   1       4.905  87.094 114.131  0.00  0.00     0.149 HD
ENDBRANCH   6  13
BRANCH   5  18
ATOM     18  N   LIG d   1       3.689  87.786 117.236  0.00  0.00     0.381 N 
ATOM     19  H   LIG d   1       4.588  87.477 117.549  0.00  0.00    -0.090 HD
ATOM     20  H   LIG d   1       3.081  87.844 118.034  0.00  0.00    -0.090 HD
ATOM     21  H   LIG d   1       3.769  88.680 116.804  0.00  0.00    -0.090 HD
ENDBRANCH   5  18
BRANCH   3  22
ATOM     22  C   LIG d   1       0.238  84.551 116.484  0.00  0.00     0.382 C 
ATOM     23  O   LIG d   1      -0.404  83.785 115.726  0.00  0.00    -0.241 OA
ATOM     24  O   LIG d   1       0.073  84.473 117.717  0.00  0.00    -0.241 OA
ENDBRANCH   3  22
TORSDOF 7
ENDMDL
MODEL 9
REMARK VINA RESULT:      -4.5     13.631     16.061
REMARK  7 active torsions:
REMARK  status: ('A' for Active; 'I' for Inactive)
REMARK    1  A    between atoms: C_2  and  C_3 
REMARK    2  A    between atoms: C_3  and  O_6 
REMARK    3  A    between atoms: C_3  and  C_4 
REMARK    4  A    between atoms: C_7  and  O_6 
REMARK    5  A    between atoms: C_9  and  C_10 
REMARK    6  A    between atoms: N_15  and  C_14 
REMARK    7  A    between atoms: N_20  and  C_19 
REMARK       I    between atoms: C_22  and  N_20 
ROOT
ATOM      1  C   LIG d   1       2.842  85.754 112.833  0.00  0.00     0.161 C 
ATOM      2  C   LIG d   1       3.373  87.025 112.557  0.00  0.00     0.016 C 
ATOM      3  C   LIG d   1       4.243  87.711 113.435  0.00  0.00     0.038 C 
ATOM      4  C   LIG d   1       4.764  87.105 114.587  0.00  0.00     0.028 C 
ATOM      5  C   LIG d   1       3.861  86.018 115.161  0.00  0.00    -0.047 C 
ATOM      6  C   LIG d   1       3.487  85.030 114.033  0.00  0.00     0.091 C 
ENDROOT
BRANCH   1   7
ATOM      7  O   LIG d   1       2.911  84.929 111.653  0.00  0.00    -0.368 OA
BRANCH   7   8
ATOM      8  C   LIG d   1       1.643  84.504 111.097  0.00  0.00     0.119 C 
BRANCH   8   9
ATOM      9  C   LIG d   1       0.527  85.143 111.946  0.00  0.00     0.028 C 
ATOM     10  C   LIG d   1      -0.280  86.191 111.162  0.00  0.00     0.006 C 
ENDBRANCH   8   9
BRANCH   8  11
ATOM     11  C   LIG d   1       1.449  82.992 111.243  0.00  0.00     0.028 C 
ATOM     12  C   LIG d   1       2.777  82.220 111.269  0.00  0.00     0.006 C 
ENDBRANCH   8  11
ENDBRANCH   7   8
ENDBRANCH   1   7
BRANCH   6  13
ATOM     13  N   LIG d   1       2.537  83.982 114.490  0.00  0.00    -0.311 N 
ATOM     14  C   LIG d   1       2.923  82.799 114.965  0.00  0.00     0.210 C 
ATOM     15  C   LIG d   1       1.781  81.857 115.361  0.00  0.00     0.109 C 
ATOM     16  O   LIG d   1       4.103  82.452 115.125  0.00  0.00    -0.276 OA
ATOM     17  H   LIG d   1       1.560  84.192 114.424  0.00  0.00     0.149 HD
ENDBRANCH   6  13
BRANCH   5  18
ATOM     18  N   LIG d   1       4.587  85.377 116.274  0.00  0.00     0.381 N 
ATOM     19  H   LIG d   1       5.094  84.583 115.936  0.00  0.00    -0.090 HD
ATOM     20  H   LIG d   1       3.921  85.059 116.956  0.00  0.00    -0.090 HD
ATOM     21  H   LIG d   1       5.215  86.028 116.691  0.00  0.00    -0.090 HD
ENDBRANCH   5  18
BRANCH   3  22
ATOM     22  C   LIG d   1       4.569  89.035 113.183  0.00  0.00     0.382 C 
ATOM     23  O   LIG d   1       5.748  89.346 112.888  0.00  0.00    -0.241 OA
ATOM     24  O   LIG d   1       3.708  89.929 113.290  0.00  0.00    -0.241 OA
ENDBRANCH   3  22
TORSDOF 7
ENDMDL
