MODEL 1
REMARK VINA RESULT:      -5.5      0.000      0.000
REMARK  7 active torsions:
REMARK  status: ('A' for Active; 'I' for Inactive)
REMARK    1  A    between atoms: C_2  and  C_3 
REMARK    2  A    between atoms: C_3  and  O_6 
REMARK    3  A    between atoms: C_3  and  C_4 
REMARK    4  A    between atoms: C_7  and  O_6 
REMARK    5  A    between atoms: C_9  and  C_10 
REMARK    6  A    between atoms: N_15  and  C_14 
REMARK    7  A    between atoms: N_20  and  C_19 
REMARK       I    between atoms: C_22  and  N_20 
ROOT
ATOM      1  C   LIG d   1     -16.266  65.797 114.017  0.00  0.00     0.161 C 
ATOM      2  C   LIG d   1     -15.915  66.659 112.964  0.00  0.00     0.016 C 
ATOM      3  C   LIG d   1     -15.125  67.818 113.138  0.00  0.00     0.038 C 
ATOM      4  C   LIG d   1     -14.502  68.115 114.359  0.00  0.00     0.028 C 
ATOM      5  C   LIG d   1     -15.239  67.549 115.568  0.00  0.00    -0.047 C 
ATOM      6  C   LIG d   1     -15.504  66.044 115.336  0.00  0.00     0.091 C 
ENDROOT
BRANCH   1   7
ATOM      7  O   LIG d   1     -16.113  64.427 113.598  0.00  0.00    -0.368 OA
BRANCH   7   8
ATOM      8  C   LIG d   1     -17.338  63.697 113.346  0.00  0.00     0.119 C 
BRANCH   8   9
ATOM      9  C   LIG d   1     -18.501  64.532 113.917  0.00  0.00     0.028 C 
ATOM     10  C   LIG d   1     -19.590  64.814 112.869  0.00  0.00     0.006 C 
ENDBRANCH   8   9
BRANCH   8  11
ATOM     11  C   LIG d   1     -17.370  62.376 114.120  0.00  0.00     0.028 C 
ATOM     12  C   LIG d   1     -18.438  61.403 113.596  0.00  0.00     0.006 C 
ENDBRANCH   8  11
ENDBRANCH   7   8
ENDBRANCH   1   7
BRANCH   6  13
ATOM     13  N   LIG d   1     -16.295  65.431 116.434  0.00  0.00    -0.311 N 
ATOM     14  C   LIG d   1     -15.953  64.295 117.039  0.00  0.00     0.210 C 
ATOM     15  C   LIG d   1     -16.919  63.828 118.133  0.00  0.00     0.109 C 
ATOM     16  O   LIG d   1     -14.923  63.648 116.797  0.00  0.00    -0.276 OA
ATOM     17  H   LIG d   1     -17.130  65.908 116.716  0.00  0.00     0.149 HD
ENDBRANCH   6  13
BRANCH   5  18
ATOM     18  N   LIG d   1     -14.411  67.813 116.760  0.00  0.00     0.381 N 
ATOM     19  H   LIG d   1     -14.070  68.754 116.734  0.00  0.00    -0.090 HD
ATOM     20  H   LIG d   1     -13.621  67.192 116.751  0.00  0.00    -0.090 HD
ATOM     21  H   LIG d   1     -14.947  67.669 117.587  0.00  0.00    -0.090 HD
ENDBRANCH   5  18
BRANCH   3  22
ATOM     22  C   LIG d   1     -14.984  68.717 112.091  0.00  0.00     0.382 C 
ATOM     23  O   LIG d   1     -13.888  69.301 111.910  0.00  0.00    -0.241 OA
ATOM     24  O   LIG d   1     -15.951  68.985 111.354  0.00  0.00    -0.241 OA
ENDBRANCH   3  22
TORSDOF 7
ENDMDL
MODEL 2
REMARK VINA RESULT:      -5.4     24.818     27.186
REMARK  7 active torsions:
REMARK  status: ('A' for Active; 'I' for Inactive)
REMARK    1  A    between atoms: C_2  and  C_3 
REMARK    2  A    between atoms: C_3  and  O_6 
REMARK    3  A    between atoms: C_3  and  C_4 
REMARK    4  A    between atoms: C_7  and  O_6 
REMARK    5  A    between atoms: C_9  and  C_10 
REMARK    6  A    between atoms: N_15  and  C_14 
REMARK    7  A    between atoms: N_20  and  C_19 
REMARK       I    between atoms: C_22  and  N_20 
ROOT
ATOM      1  C   LIG d   1       1.795  85.661 114.591  0.00  0.00     0.161 C 
ATOM      2  C   LIG d   1       2.463  86.651 113.851  0.00  0.00     0.016 C 
ATOM      3  C   LIG d   1       3.804  87.030 114.089  0.00  0.00     0.038 C 
ATOM      4  C   LIG d   1       4.621  86.333 114.992  0.00  0.00     0.028 C 
ATOM      5  C   LIG d   1       3.844  85.659 116.118  0.00  0.00    -0.047 C 
ATOM      6  C   LIG d   1       2.705  84.813 115.505  0.00  0.00     0.091 C 
ENDROOT
BRANCH   1   7
ATOM      7  O   LIG d   1       1.045  84.810 113.703  0.00  0.00    -0.368 OA
BRANCH   7   8
ATOM      8  C   LIG d   1       0.728  85.366 112.403  0.00  0.00     0.119 C 
BRANCH   8   9
ATOM      9  C   LIG d   1      -0.806  85.460 112.300  0.00  0.00     0.028 C 
ATOM     10  C   LIG d   1      -1.264  86.625 111.406  0.00  0.00     0.006 C 
ENDBRANCH   8   9
BRANCH   8  11
ATOM     11  C   LIG d   1       1.152  84.421 111.274  0.00  0.00     0.028 C 
ATOM     12  C   LIG d   1       2.674  84.395 111.059  0.00  0.00     0.006 C 
ENDBRANCH   8  11
ENDBRANCH   7   8
ENDBRANCH   1   7
BRANCH   6  13
ATOM     13  N   LIG d   1       1.843  84.187 116.541  0.00  0.00    -0.311 N 
ATOM     14  C   LIG d   1       2.040  82.957 117.012  0.00  0.00     0.210 C 
ATOM     15  C   LIG d   1       1.024  82.497 118.063  0.00  0.00     0.109 C 
ATOM     16  O   LIG d   1       2.978  82.215 116.684  0.00  0.00    -0.276 OA
ATOM     17  H   LIG d   1       1.077  84.731 116.886  0.00  0.00     0.149 HD
ENDBRANCH   6  13
BRANCH   5  18
ATOM     18  N   LIG d   1       4.802  84.858 116.902  0.00  0.00     0.381 N 
ATOM     19  H   LIG d   1       4.944  83.971 116.461  0.00  0.00    -0.090 HD
ATOM     20  H   LIG d   1       4.418  84.696 117.817  0.00  0.00    -0.090 HD
ATOM     21  H   LIG d   1       5.669  85.342 116.979  0.00  0.00    -0.090 HD
ENDBRANCH   5  18
BRANCH   3  22
ATOM     22  C   LIG d   1       4.328  88.142 113.449  0.00  0.00     0.382 C 
ATOM     23  O   LIG d   1       5.488  88.103 112.973  0.00  0.00    -0.241 OA
ATOM     24  O   LIG d   1       3.672  89.199 113.381  0.00  0.00    -0.241 OA
ENDBRANCH   3  22
TORSDOF 7
ENDMDL
MODEL 3
REMARK VINA RESULT:      -5.2     25.043     28.273
REMARK  7 active torsions:
REMARK  status: ('A' for Active; 'I' for Inactive)
REMARK    1  A    between atoms: C_2  and  C_3 
REMARK    2  A    between atoms: C_3  and  O_6 
REMARK    3  A    between atoms: C_3  and  C_4 
REMARK    4  A    between atoms: C_7  and  O_6 
REMARK    5  A    between atoms: C_9  and  C_10 
REMARK    6  A    between atoms: N_15  and  C_14 
REMARK    7  A    between atoms: N_20  and  C_19 
REMARK       I    between atoms: C_22  and  N_20 
ROOT
ATOM      1  C   LIG d   1       3.784  85.644 113.801  0.00  0.00     0.161 C 
ATOM      2  C   LIG d   1       4.134  86.930 114.246  0.00  0.00     0.016 C 
ATOM      3  C   LIG d   1       3.490  88.108 113.801  0.00  0.00     0.038 C 
ATOM      4  C   LIG d   1       2.346  88.068 112.991  0.00  0.00     0.028 C 
ATOM      5  C   LIG d   1       2.267  86.821 112.116  0.00  0.00    -0.047 C 
ATOM      6  C   LIG d   1       2.465  85.571 113.003  0.00  0.00     0.091 C 
ENDROOT
BRANCH   1   7
ATOM      7  O   LIG d   1       3.743  84.735 114.920  0.00  0.00    -0.368 OA
BRANCH   7   8
ATOM      8  C   LIG d   1       3.598  85.341 116.228  0.00  0.00     0.119 C 
BRANCH   8   9
ATOM      9  C   LIG d   1       4.491  84.551 117.205  0.00  0.00     0.028 C 
ATOM     10  C   LIG d   1       5.976  84.931 117.081  0.00  0.00     0.006 C 
ENDBRANCH   8   9
BRANCH   8  11
ATOM     11  C   LIG d   1       2.172  85.179 116.761  0.00  0.00     0.028 C 
ATOM     12  C   LIG d   1       1.531  86.517 117.163  0.00  0.00     0.006 C 
ENDBRANCH   8  11
ENDBRANCH   7   8
ENDBRANCH   1   7
BRANCH   6  13
ATOM     13  N   LIG d   1       2.487  84.313 112.213  0.00  0.00    -0.311 N 
ATOM     14  C   LIG d   1       1.427  83.519 112.070  0.00  0.00     0.210 C 
ATOM     15  C   LIG d   1       1.670  82.260 111.232  0.00  0.00     0.109 C 
ATOM     16  O   LIG d   1       0.300  83.754 112.532  0.00  0.00    -0.276 OA
ATOM     17  H   LIG d   1       3.353  84.062 111.778  0.00  0.00     0.149 HD
ENDBRANCH   6  13
BRANCH   5  18
ATOM     18  N   LIG d   1       0.962  86.841 111.428  0.00  0.00     0.381 N 
ATOM     19  H   LIG d   1       0.258  86.456 112.026  0.00  0.00    -0.090 HD
ATOM     20  H   LIG d   1       1.021  86.271 110.603  0.00  0.00    -0.090 HD
ATOM     21  H   LIG d   1       0.722  87.776 111.179  0.00  0.00    -0.090 HD
ENDBRANCH   5  18
BRANCH   3  22
ATOM     22  C   LIG d   1       4.017  89.346 114.136  0.00  0.00     0.382 C 
ATOM     23  O   LIG d   1       4.036  89.717 115.334  0.00  0.00    -0.241 OA
ATOM     24  O   LIG d   1       4.433  90.116 113.249  0.00  0.00    -0.241 OA
ENDBRANCH   3  22
TORSDOF 7
ENDMDL
MODEL 4
REMARK VINA RESULT:      -5.0     19.917     22.051
REMARK  7 active torsions:
REMARK  status: ('A' for Active; 'I' for Inactive)
REMARK    1  A    between atoms: C_2  and  C_3 
REMARK    2  A    between atoms: C_3  and  O_6 
REMARK    3  A    between atoms: C_3  and  C_4 
REMARK    4  A    between atoms: C_7  and  O_6 
REMARK    5  A    between atoms: C_9  and  C_10 
REMARK    6  A    between atoms: N_15  and  C_14 
REMARK    7  A    between atoms: N_20  and  C_19 
REMARK       I    between atoms: C_22  and  N_20 
ROOT
ATOM      1  C   LIG d   1     -25.715  85.631 114.119  0.00  0.00     0.161 C 
ATOM      2  C   LIG d   1     -24.684  86.581 114.194  0.00  0.00     0.016 C 
ATOM      3  C   LIG d   1     -23.330  86.284 113.912  0.00  0.00     0.038 C 
ATOM      4  C   LIG d   1     -22.937  85.044 113.388  0.00  0.00     0.028 C 
ATOM      5  C   LIG d   1     -23.867  83.900 113.775  0.00  0.00    -0.047 C 
ATOM      6  C   LIG d   1     -25.322  84.301 113.442  0.00  0.00     0.091 C 
ENDROOT
BRANCH   1   7
ATOM      7  O   LIG d   1     -26.864  86.206 113.466  0.00  0.00    -0.368 OA
BRANCH   7   8
ATOM      8  C   LIG d   1     -26.602  86.934 112.240  0.00  0.00     0.119 C 
BRANCH   8   9
ATOM      9  C   LIG d   1     -27.184  88.350 112.410  0.00  0.00     0.028 C 
ATOM     10  C   LIG d   1     -26.704  89.317 111.314  0.00  0.00     0.006 C 
ENDBRANCH   8   9
BRANCH   8  11
ATOM     11  C   LIG d   1     -27.358  86.323 111.057  0.00  0.00     0.028 C 
ATOM     12  C   LIG d   1     -28.652  85.611 111.480  0.00  0.00     0.006 C 
ENDBRANCH   8  11
ENDBRANCH   7   8
ENDBRANCH   1   7
BRANCH   6  13
ATOM     13  N   LIG d   1     -26.306  83.272 113.867  0.00  0.00    -0.311 N 
ATOM     14  C   LIG d   1     -26.667  82.243 113.102  0.00  0.00     0.210 C 
ATOM     15  C   LIG d   1     -27.711  81.309 113.725  0.00  0.00     0.109 C 
ATOM     16  O   LIG d   1     -26.199  81.996 111.981  0.00  0.00    -0.276 OA
ATOM     17  H   LIG d   1     -26.713  83.377 114.776  0.00  0.00     0.149 HD
ENDBRANCH   6  13
BRANCH   5  18
ATOM     18  N   LIG d   1     -23.419  82.696 113.051  0.00  0.00     0.381 N 
ATOM     19  H   LIG d   1     -22.581  82.898 112.543  0.00  0.00    -0.090 HD
ATOM     20  H   LIG d   1     -24.130  82.429 112.392  0.00  0.00    -0.090 HD
ATOM     21  H   LIG d   1     -23.255  81.952 113.693  0.00  0.00    -0.090 HD
ENDBRANCH   5  18
BRANCH   3  22
ATOM     22  C   LIG d   1     -22.348  87.222 114.194  0.00  0.00     0.382 C 
ATOM     23  O   LIG d   1     -22.575  88.139 115.019  0.00  0.00    -0.241 OA
ATOM     24  O   LIG d   1     -21.253  87.187 113.601  0.00  0.00    -0.241 OA
ENDBRANCH   3  22
TORSDOF 7
ENDMDL
MODEL 5
REMARK VINA RESULT:      -5.0     27.037     29.957
REMARK  7 active torsions:
REMARK  status: ('A' for Active; 'I' for Inactive)
REMARK    1  A    between atoms: C_2  and  C_3 
REMARK    2  A    between atoms: C_3  and  O_6 
REMARK    3  A    between atoms: C_3  and  C_4 
REMARK    4  A    between atoms: C_7  and  O_6 
REMARK    5  A    between atoms: C_9  and  C_10 
REMARK    6  A    between atoms: N_15  and  C_14 
REMARK    7  A    between atoms: N_20  and  C_19 
REMARK       I    between atoms: C_22  and  N_20 
ROOT
ATOM      1  C   LIG d   1      10.329  78.863 114.834  0.00  0.00     0.161 C 
ATOM      2  C   LIG d   1       8.967  78.866 115.179  0.00  0.00     0.016 C 
ATOM      3  C   LIG d   1       8.265  77.708 115.586  0.00  0.00     0.038 C 
ATOM      4  C   LIG d   1       8.918  76.489 115.820  0.00  0.00     0.028 C 
ATOM      5  C   LIG d   1      10.192  76.317 115.000  0.00  0.00    -0.047 C 
ATOM      6  C   LIG d   1      11.083  77.565 115.190  0.00  0.00     0.091 C 
ENDROOT
BRANCH   1   7
ATOM      7  O   LIG d   1      10.985  80.003 115.423  0.00  0.00    -0.368 OA
BRANCH   7   8
ATOM      8  C   LIG d   1      11.290  81.098 114.525  0.00  0.00     0.119 C 
BRANCH   8   9
ATOM      9  C   LIG d   1      10.059  82.024 114.489  0.00  0.00     0.028 C 
ATOM     10  C   LIG d   1       9.774  82.674 115.853  0.00  0.00     0.006 C 
ENDBRANCH   8   9
BRANCH   8  11
ATOM     11  C   LIG d   1      11.469  80.605 113.086  0.00  0.00     0.028 C 
ATOM     12  C   LIG d   1      10.823  81.539 112.051  0.00  0.00     0.006 C 
ENDBRANCH   8  11
ENDBRANCH   7   8
ENDBRANCH   1   7
BRANCH   6  13
ATOM     13  N   LIG d   1      12.313  77.516 114.356  0.00  0.00    -0.311 N 
ATOM     14  C   LIG d   1      13.531  77.767 114.832  0.00  0.00     0.210 C 
ATOM     15  C   LIG d   1      14.659  77.681 113.798  0.00  0.00     0.109 C 
ATOM     16  O   LIG d   1      13.790  78.020 116.018  0.00  0.00    -0.276 OA
ATOM     17  H   LIG d   1      12.198  77.287 113.388  0.00  0.00     0.149 HD
ENDBRANCH   6  13
BRANCH   5  18
ATOM     18  N   LIG d   1      10.842  75.069 115.444  0.00  0.00     0.381 N 
ATOM     19  H   LIG d   1      11.151  74.547 114.648  0.00  0.00    -0.090 HD
ATOM     20  H   LIG d   1      10.171  74.513 115.945  0.00  0.00    -0.090 HD
ATOM     21  H   LIG d   1      11.617  75.279 116.034  0.00  0.00    -0.090 HD
ENDBRANCH   5  18
BRANCH   3  22
ATOM     22  C   LIG d   1       6.886  77.754 115.723  0.00  0.00     0.382 C 
ATOM     23  O   LIG d   1       6.196  78.418 114.911  0.00  0.00    -0.241 OA
ATOM     24  O   LIG d   1       6.326  77.176 116.674  0.00  0.00    -0.241 OA
ENDBRANCH   3  22
TORSDOF 7
ENDMDL
MODEL 6
REMARK VINA RESULT:      -4.7     27.560     30.259
REMARK  7 active torsions:
REMARK  status: ('A' for Active; 'I' for Inactive)
REMARK    1  A    between atoms: C_2  and  C_3 
REMARK    2  A    between atoms: C_3  and  O_6 
REMARK    3  A    between atoms: C_3  and  C_4 
REMARK    4  A    between atoms: C_7  and  O_6 
REMARK    5  A    between atoms: C_9  and  C_10 
REMARK    6  A    between atoms: N_15  and  C_14 
REMARK    7  A    between atoms: N_20  and  C_19 
REMARK       I    between atoms: C_22  and  N_20 
ROOT
ATOM      1  C   LIG d   1      10.440  80.052 115.263  0.00  0.00     0.161 C 
ATOM      2  C   LIG d   1      10.263  78.714 114.874  0.00  0.00     0.016 C 
ATOM      3  C   LIG d   1       9.267  77.871 115.418  0.00  0.00     0.038 C 
ATOM      4  C   LIG d   1       8.277  78.356 116.285  0.00  0.00     0.028 C 
ATOM      5  C   LIG d   1       8.722  79.572 117.092  0.00  0.00    -0.047 C 
ATOM      6  C   LIG d   1       9.299  80.631 116.126  0.00  0.00     0.091 C 
ENDROOT
BRANCH   1   7
ATOM      7  O   LIG d   1      10.654  80.875 114.099  0.00  0.00    -0.368 OA
BRANCH   7   8
ATOM      8  C   LIG d   1      11.521  80.322 113.078  0.00  0.00     0.119 C 
BRANCH   8   9
ATOM      9  C   LIG d   1      12.976  80.571 113.521  0.00  0.00     0.028 C 
ATOM     10  C   LIG d   1      13.997  79.891 112.593  0.00  0.00     0.006 C 
ENDBRANCH   8   9
BRANCH   8  11
ATOM     11  C   LIG d   1      11.367  81.070 111.751  0.00  0.00     0.028 C 
ATOM     12  C   LIG d   1      10.337  82.208 111.824  0.00  0.00     0.006 C 
ENDBRANCH   8  11
ENDBRANCH   7   8
ENDBRANCH   1   7
BRANCH   6  13
ATOM     13  N   LIG d   1       9.834  81.819 116.841  0.00  0.00    -0.311 N 
ATOM     14  C   LIG d   1       9.134  82.935 117.035  0.00  0.00     0.210 C 
ATOM     15  C   LIG d   1       9.882  84.046 117.779  0.00  0.00     0.109 C 
ATOM     16  O   LIG d   1       7.954  83.098 116.691  0.00  0.00    -0.276 OA
ATOM     17  H   LIG d   1      10.774  81.761 117.182  0.00  0.00     0.149 HD
ENDBRANCH   6  13
BRANCH   5  18
ATOM     18  N   LIG d   1       7.552  80.056 117.849  0.00  0.00     0.381 N 
ATOM     19  H   LIG d   1       6.716  79.652 117.476  0.00  0.00    -0.090 HD
ATOM     20  H   LIG d   1       7.491  81.054 117.750  0.00  0.00    -0.090 HD
ATOM     21  H   LIG d   1       7.645  79.815 118.811  0.00  0.00    -0.090 HD
ENDBRANCH   5  18
BRANCH   3  22
ATOM     22  C   LIG d   1       9.280  76.515 115.126  0.00  0.00     0.382 C 
ATOM     23  O   LIG d   1      10.237  75.800 115.510  0.00  0.00    -0.241 OA
ATOM     24  O   LIG d   1       8.369  76.007 114.446  0.00  0.00    -0.241 OA
ENDBRANCH   3  22
TORSDOF 7
ENDMDL
MODEL 7
REMARK VINA RESULT:      -4.5     19.727     21.517
REMARK  7 active torsions:
REMARK  status: ('A' for Active; 'I' for Inactive)
REMARK    1  A    between atoms: C_2  and  C_3 
REMARK    2  A    between atoms: C_3  and  O_6 
REMARK    3  A    between atoms: C_3  and  C_4 
REMARK    4  A    between atoms: C_7  and  O_6 
REMARK    5  A    between atoms: C_9  and  C_10 
REMARK    6  A    between atoms: N_15  and  C_14 
REMARK    7  A    between atoms: N_20  and  C_19 
REMARK       I    between atoms: C_22  and  N_20 
ROOT
ATOM      1  C   LIG d   1     -25.167  84.977 115.720  0.00  0.00     0.161 C 
ATOM      2  C   LIG d   1     -24.037  84.986 114.886  0.00  0.00     0.016 C 
ATOM      3  C   LIG d   1     -23.265  86.143 114.634  0.00  0.00     0.038 C 
ATOM      4  C   LIG d   1     -23.483  87.345 115.325  0.00  0.00     0.028 C 
ATOM      5  C   LIG d   1     -24.923  87.520 115.797  0.00  0.00    -0.047 C 
ATOM      6  C   LIG d   1     -25.355  86.252 116.569  0.00  0.00     0.091 C 
ENDROOT
BRANCH   1   7
ATOM      7  O   LIG d   1     -25.140  83.811 116.567  0.00  0.00    -0.368 OA
BRANCH   7   8
ATOM      8  C   LIG d   1     -24.203  82.772 116.191  0.00  0.00     0.119 C 
BRANCH   8   9
ATOM      9  C   LIG d   1     -25.024  81.529 115.795  0.00  0.00     0.028 C 
ATOM     10  C   LIG d   1     -24.232  80.564 114.897  0.00  0.00     0.006 C 
ENDBRANCH   8   9
BRANCH   8  11
ATOM     11  C   LIG d   1     -23.351  82.332 117.385  0.00  0.00     0.028 C 
ATOM     12  C   LIG d   1     -21.951  82.966 117.384  0.00  0.00     0.006 C 
ENDBRANCH   8  11
ENDBRANCH   7   8
ENDBRANCH   1   7
BRANCH   6  13
ATOM     13  N   LIG d   1     -26.778  86.305 116.993  0.00  0.00    -0.311 N 
ATOM     14  C   LIG d   1     -27.171  86.748 118.186  0.00  0.00     0.210 C 
ATOM     15  C   LIG d   1     -28.683  86.698 118.428  0.00  0.00     0.109 C 
ATOM     16  O   LIG d   1     -26.415  87.207 119.055  0.00  0.00    -0.276 OA
ATOM     17  H   LIG d   1     -27.462  85.981 116.338  0.00  0.00     0.149 HD
ENDBRANCH   6  13
BRANCH   5  18
ATOM     18  N   LIG d   1     -24.977  88.744 116.618  0.00  0.00     0.381 N 
ATOM     19  H   LIG d   1     -25.171  88.505 117.570  0.00  0.00    -0.090 HD
ATOM     20  H   LIG d   1     -25.722  89.328 116.281  0.00  0.00    -0.090 HD
ATOM     21  H   LIG d   1     -24.111  89.232 116.560  0.00  0.00    -0.090 HD
ENDBRANCH   5  18
BRANCH   3  22
ATOM     22  C   LIG d   1     -22.286  86.116 113.653  0.00  0.00     0.382 C 
ATOM     23  O   LIG d   1     -21.440  87.040 113.585  0.00  0.00    -0.241 OA
ATOM     24  O   LIG d   1     -22.264  85.202 112.807  0.00  0.00    -0.241 OA
ENDBRANCH   3  22
TORSDOF 7
ENDMDL
MODEL 8
REMARK VINA RESULT:      -4.5      1.999      5.055
REMARK  7 active torsions:
REMARK  status: ('A' for Active; 'I' for Inactive)
REMARK    1  A    between atoms: C_2  and  C_3 
REMARK    2  A    between atoms: C_3  and  O_6 
REMARK    3  A    between atoms: C_3  and  C_4 
REMARK    4  A    between atoms: C_7  and  O_6 
REMARK    5  A    between atoms: C_9  and  C_10 
REMARK    6  A    between atoms: N_15  and  C_14 
REMARK    7  A    between atoms: N_20  and  C_19 
REMARK       I    between atoms: C_22  and  N_20 
ROOT
ATOM      1  C   LIG d   1     -16.214  65.116 114.770  0.00  0.00     0.161 C 
ATOM      2  C   LIG d   1     -16.545  64.011 115.572  0.00  0.00     0.016 C 
ATOM      3  C   LIG d   1     -16.280  63.949 116.959  0.00  0.00     0.038 C 
ATOM      4  C   LIG d   1     -15.798  65.056 117.673  0.00  0.00     0.028 C 
ATOM      5  C   LIG d   1     -14.979  66.017 116.818  0.00  0.00    -0.047 C 
ATOM      6  C   LIG d   1     -15.789  66.377 115.551  0.00  0.00     0.091 C 
ENDROOT
BRANCH   1   7
ATOM      7  O   LIG d   1     -17.307  65.421 113.882  0.00  0.00    -0.368 OA
BRANCH   7   8
ATOM      8  C   LIG d   1     -18.554  64.732 114.147  0.00  0.00     0.119 C 
BRANCH   8   9
ATOM      9  C   LIG d   1     -19.075  64.185 112.804  0.00  0.00     0.028 C 
ATOM     10  C   LIG d   1     -19.250  62.657 112.820  0.00  0.00     0.006 C 
ENDBRANCH   8   9
BRANCH   8  11
ATOM     11  C   LIG d   1     -19.634  65.703 114.635  0.00  0.00     0.028 C 
ATOM     12  C   LIG d   1     -19.847  65.641 116.156  0.00  0.00     0.006 C 
ENDBRANCH   8  11
ENDBRANCH   7   8
ENDBRANCH   1   7
BRANCH   6  13
ATOM     13  N   LIG d   1     -15.026  67.247 114.619  0.00  0.00    -0.311 N 
ATOM     14  C   LIG d   1     -14.987  68.575 114.721  0.00  0.00     0.210 C 
ATOM     15  C   LIG d   1     -14.158  69.282 113.645  0.00  0.00     0.109 C 
ATOM     16  O   LIG d   1     -15.535  69.231 115.619  0.00  0.00    -0.276 OA
ATOM     17  H   LIG d   1     -14.526  66.795 113.878  0.00  0.00     0.149 HD
ENDBRANCH   6  13
BRANCH   5  18
ATOM     18  N   LIG d   1     -14.657  67.191 117.651  0.00  0.00     0.381 N 
ATOM     19  H   LIG d   1     -15.239  67.199 118.464  0.00  0.00    -0.090 HD
ATOM     20  H   LIG d   1     -14.842  68.026 117.122  0.00  0.00    -0.090 HD
ATOM     21  H   LIG d   1     -13.698  67.166 117.920  0.00  0.00    -0.090 HD
ENDBRANCH   5  18
BRANCH   3  22
ATOM     22  C   LIG d   1     -16.460  62.754 117.640  0.00  0.00     0.382 C 
ATOM     23  O   LIG d   1     -17.616  62.298 117.811  0.00  0.00    -0.241 OA
ATOM     24  O   LIG d   1     -15.484  62.150 118.124  0.00  0.00    -0.241 OA
ENDBRANCH   3  22
TORSDOF 7
ENDMDL
MODEL 9
REMARK VINA RESULT:      -4.4     27.429     30.276
REMARK  7 active torsions:
REMARK  status: ('A' for Active; 'I' for Inactive)
REMARK    1  A    between atoms: C_2  and  C_3 
REMARK    2  A    between atoms: C_3  and  O_6 
REMARK    3  A    between atoms: C_3  and  C_4 
REMARK    4  A    between atoms: C_7  and  O_6 
REMARK    5  A    between atoms: C_9  and  C_10 
REMARK    6  A    between atoms: N_15  and  C_14 
REMARK    7  A    between atoms: N_20  and  C_19 
REMARK       I    between atoms: C_22  and  N_20 
ROOT
ATOM      1  C   LIG d   1      10.597  79.225 115.402  0.00  0.00     0.161 C 
ATOM      2  C   LIG d   1      11.915  79.260 114.917  0.00  0.00     0.016 C 
ATOM      3  C   LIG d   1      12.623  78.108 114.506  0.00  0.00     0.038 C 
ATOM      4  C   LIG d   1      12.005  76.852 114.410  0.00  0.00     0.028 C 
ATOM      5  C   LIG d   1      10.829  76.681 115.366  0.00  0.00    -0.047 C 
ATOM      6  C   LIG d   1       9.868  77.880 115.199  0.00  0.00     0.091 C 
ENDROOT
BRANCH   1   7
ATOM      7  O   LIG d   1       9.834  80.301 114.820  0.00  0.00    -0.368 OA
BRANCH   7   8
ATOM      8  C   LIG d   1      10.578  81.494 114.470  0.00  0.00     0.119 C 
BRANCH   8   9
ATOM      9  C   LIG d   1      10.133  82.615 115.429  0.00  0.00     0.028 C 
ATOM     10  C   LIG d   1      10.959  82.640 116.726  0.00  0.00     0.006 C 
ENDBRANCH   8   9
BRANCH   8  11
ATOM     11  C   LIG d   1      10.209  81.989 113.068  0.00  0.00     0.028 C 
ATOM     12  C   LIG d   1      11.050  81.329 111.963  0.00  0.00     0.006 C 
ENDBRANCH   8  11
ENDBRANCH   7   8
ENDBRANCH   1   7
BRANCH   6  13
ATOM     13  N   LIG d   1       8.733  77.834 116.157  0.00  0.00    -0.311 N 
ATOM     14  C   LIG d   1       7.520  77.388 115.836  0.00  0.00     0.210 C 
ATOM     15  C   LIG d   1       6.489  77.446 116.968  0.00  0.00     0.109 C 
ATOM     16  O   LIG d   1       7.209  76.920 114.731  0.00  0.00    -0.276 OA
ATOM     17  H   LIG d   1       8.907  78.166 117.086  0.00  0.00     0.149 HD
ENDBRANCH   6  13
BRANCH   5  18
ATOM     18  N   LIG d   1      10.194  75.384 115.063  0.00  0.00     0.381 N 
ATOM     19  H   LIG d   1      10.848  74.788 114.597  0.00  0.00    -0.090 HD
ATOM     20  H   LIG d   1       9.415  75.540 114.449  0.00  0.00    -0.090 HD
ATOM     21  H   LIG d   1       9.882  74.953 115.905  0.00  0.00    -0.090 HD
ENDBRANCH   5  18
BRANCH   3  22
ATOM     22  C   LIG d   1      13.978  78.198 114.225  0.00  0.00     0.382 C 
ATOM     23  O   LIG d   1      14.691  77.166 114.237  0.00  0.00    -0.241 OA
ATOM     24  O   LIG d   1      14.505  79.305 114.002  0.00  0.00    -0.241 OA
ENDBRANCH   3  22
TORSDOF 7
ENDMDL
