MODEL 1
REMARK VINA RESULT:      -5.7      0.000      0.000
REMARK  7 active torsions:
REMARK  status: ('A' for Active; 'I' for Inactive)
REMARK    1  A    between atoms: C_2  and  C_3 
REMARK    2  A    between atoms: C_3  and  O_6 
REMARK    3  A    between atoms: C_3  and  C_4 
REMARK    4  A    between atoms: C_7  and  O_6 
REMARK    5  A    between atoms: C_9  and  C_10 
REMARK    6  A    between atoms: N_15  and  C_14 
REMARK    7  A    between atoms: N_20  and  C_19 
REMARK       I    between atoms: C_22  and  N_20 
ROOT
ATOM      1  C   LIG d   1      -7.607  75.249 117.446  0.00  0.00     0.161 C 
ATOM      2  C   LIG d   1      -8.831  75.927 117.572  0.00  0.00     0.016 C 
ATOM      3  C   LIG d   1      -8.930  77.319 117.800  0.00  0.00     0.038 C 
ATOM      4  C   LIG d   1      -7.806  78.158 117.766  0.00  0.00     0.028 C 
ATOM      5  C   LIG d   1      -6.510  77.449 118.144  0.00  0.00    -0.047 C 
ATOM      6  C   LIG d   1      -6.374  76.164 117.294  0.00  0.00     0.091 C 
ENDROOT
BRANCH   1   7
ATOM      7  O   LIG d   1      -7.677  74.317 116.349  0.00  0.00    -0.368 OA
BRANCH   7   8
ATOM      8  C   LIG d   1      -7.774  72.917 116.708  0.00  0.00     0.119 C 
BRANCH   8   9
ATOM      9  C   LIG d   1      -6.830  72.132 115.777  0.00  0.00     0.028 C 
ATOM     10  C   LIG d   1      -5.913  73.056 114.958  0.00  0.00     0.006 C 
ENDBRANCH   8   9
BRANCH   8  11
ATOM     11  C   LIG d   1      -9.174  72.365 116.424  0.00  0.00     0.028 C 
ATOM     12  C   LIG d   1      -9.401  70.971 117.031  0.00  0.00     0.006 C 
ENDBRANCH   8  11
ENDBRANCH   7   8
ENDBRANCH   1   7
BRANCH   6  13
ATOM     13  N   LIG d   1      -5.175  75.367 117.661  0.00  0.00    -0.311 N 
ATOM     14  C   LIG d   1      -4.005  75.473 117.033  0.00  0.00     0.210 C 
ATOM     15  C   LIG d   1      -2.904  74.544 117.557  0.00  0.00     0.109 C 
ATOM     16  O   LIG d   1      -3.764  76.270 116.114  0.00  0.00    -0.276 OA
ATOM     17  H   LIG d   1      -5.272  74.717 118.416  0.00  0.00     0.149 HD
ENDBRANCH   6  13
BRANCH   5  18
ATOM     18  N   LIG d   1      -5.403  78.401 117.933  0.00  0.00     0.381 N 
ATOM     19  H   LIG d   1      -5.091  78.353 116.983  0.00  0.00    -0.090 HD
ATOM     20  H   LIG d   1      -4.637  78.146 118.530  0.00  0.00    -0.090 HD
ATOM     21  H   LIG d   1      -5.705  79.327 118.144  0.00  0.00    -0.090 HD
ENDBRANCH   5  18
BRANCH   3  22
ATOM     22  C   LIG d   1     -10.161  77.880 118.105  0.00  0.00     0.382 C 
ATOM     23  O   LIG d   1     -11.122  77.142 118.432  0.00  0.00    -0.241 OA
ATOM     24  O   LIG d   1     -10.335  79.110 118.015  0.00  0.00    -0.241 OA
ENDBRANCH   3  22
TORSDOF 7
ENDMDL
MODEL 2
REMARK VINA RESULT:      -5.3      2.494      5.626
REMARK  7 active torsions:
REMARK  status: ('A' for Active; 'I' for Inactive)
REMARK    1  A    between atoms: C_2  and  C_3 
REMARK    2  A    between atoms: C_3  and  O_6 
REMARK    3  A    between atoms: C_3  and  C_4 
REMARK    4  A    between atoms: C_7  and  O_6 
REMARK    5  A    between atoms: C_9  and  C_10 
REMARK    6  A    between atoms: N_15  and  C_14 
REMARK    7  A    between atoms: N_20  and  C_19 
REMARK       I    between atoms: C_22  and  N_20 
ROOT
ATOM      1  C   LIG d   1      -6.738  74.364 117.769  0.00  0.00     0.161 C 
ATOM      2  C   LIG d   1      -5.792  75.317 117.357  0.00  0.00     0.016 C 
ATOM      3  C   LIG d   1      -5.056  75.213 116.154  0.00  0.00     0.038 C 
ATOM      4  C   LIG d   1      -5.327  74.219 115.203  0.00  0.00     0.028 C 
ATOM      5  C   LIG d   1      -5.919  72.949 115.805  0.00  0.00    -0.047 C 
ATOM      6  C   LIG d   1      -7.127  73.331 116.691  0.00  0.00     0.091 C 
ENDROOT
BRANCH   1   7
ATOM      7  O   LIG d   1      -7.914  75.028 118.273  0.00  0.00    -0.368 OA
BRANCH   7   8
ATOM      8  C   LIG d   1      -8.378  76.169 117.510  0.00  0.00     0.119 C 
BRANCH   8   9
ATOM      9  C   LIG d   1      -8.413  77.380 118.462  0.00  0.00     0.028 C 
ATOM     10  C   LIG d   1      -7.494  78.521 117.995  0.00  0.00     0.006 C 
ENDBRANCH   8   9
BRANCH   8  11
ATOM     11  C   LIG d   1      -9.824  75.977 117.045  0.00  0.00     0.028 C 
ATOM     12  C   LIG d   1     -10.826  76.822 117.849  0.00  0.00     0.006 C 
ENDBRANCH   8  11
ENDBRANCH   7   8
ENDBRANCH   1   7
BRANCH   6  13
ATOM     13  N   LIG d   1      -7.714  72.155 117.386  0.00  0.00    -0.311 N 
ATOM     14  C   LIG d   1      -8.819  71.536 116.974  0.00  0.00     0.210 C 
ATOM     15  C   LIG d   1      -9.264  70.358 117.846  0.00  0.00     0.109 C 
ATOM     16  O   LIG d   1      -9.455  71.831 115.950  0.00  0.00    -0.276 OA
ATOM     17  H   LIG d   1      -7.244  71.830 118.208  0.00  0.00     0.149 HD
ENDBRANCH   6  13
BRANCH   5  18
ATOM     18  N   LIG d   1      -6.280  72.053 114.690  0.00  0.00     0.381 N 
ATOM     19  H   LIG d   1      -5.770  72.312 113.869  0.00  0.00    -0.090 HD
ATOM     20  H   LIG d   1      -7.261  72.153 114.497  0.00  0.00    -0.090 HD
ATOM     21  H   LIG d   1      -6.077  71.108 114.933  0.00  0.00    -0.090 HD
ENDBRANCH   5  18
BRANCH   3  22
ATOM     22  C   LIG d   1      -4.008  76.088 115.912  0.00  0.00     0.382 C 
ATOM     23  O   LIG d   1      -4.242  77.244 115.485  0.00  0.00    -0.241 OA
ATOM     24  O   LIG d   1      -2.829  75.721 116.074  0.00  0.00    -0.241 OA
ENDBRANCH   3  22
TORSDOF 7
ENDMDL
MODEL 3
REMARK VINA RESULT:      -5.2     13.502     15.978
REMARK  7 active torsions:
REMARK  status: ('A' for Active; 'I' for Inactive)
REMARK    1  A    between atoms: C_2  and  C_3 
REMARK    2  A    between atoms: C_3  and  O_6 
REMARK    3  A    between atoms: C_3  and  C_4 
REMARK    4  A    between atoms: C_7  and  O_6 
REMARK    5  A    between atoms: C_9  and  C_10 
REMARK    6  A    between atoms: N_15  and  C_14 
REMARK    7  A    between atoms: N_20  and  C_19 
REMARK       I    between atoms: C_22  and  N_20 
ROOT
ATOM      1  C   LIG d   1       2.439  86.723 114.468  0.00  0.00     0.161 C 
ATOM      2  C   LIG d   1       3.059  87.950 114.176  0.00  0.00     0.016 C 
ATOM      3  C   LIG d   1       4.248  88.388 114.802  0.00  0.00     0.038 C 
ATOM      4  C   LIG d   1       4.986  87.557 115.658  0.00  0.00     0.028 C 
ATOM      5  C   LIG d   1       4.134  86.510 116.368  0.00  0.00    -0.047 C 
ATOM      6  C   LIG d   1       3.288  85.755 115.317  0.00  0.00     0.091 C 
ENDROOT
BRANCH   1   7
ATOM      7  O   LIG d   1       2.022  86.084 113.245  0.00  0.00    -0.368 OA
BRANCH   7   8
ATOM      8  C   LIG d   1       2.425  86.735 112.015  0.00  0.00     0.119 C 
BRANCH   8   9
ATOM      9  C   LIG d   1       1.221  86.699 111.055  0.00  0.00     0.028 C 
ATOM     10  C   LIG d   1      -0.030  86.084 111.706  0.00  0.00     0.006 C 
ENDBRANCH   8   9
BRANCH   8  11
ATOM     11  C   LIG d   1       3.533  85.950 111.306  0.00  0.00     0.028 C 
ATOM     12  C   LIG d   1       3.374  84.429 111.456  0.00  0.00     0.006 C 
ENDBRANCH   8  11
ENDBRANCH   7   8
ENDBRANCH   1   7
BRANCH   6  13
ATOM     13  N   LIG d   1       2.363  84.769 115.935  0.00  0.00    -0.311 N 
ATOM     14  C   LIG d   1       2.701  83.506 116.190  0.00  0.00     0.210 C 
ATOM     15  C   LIG d   1       1.592  82.653 116.812  0.00  0.00     0.109 C 
ATOM     16  O   LIG d   1       3.825  83.021 115.990  0.00  0.00    -0.276 OA
ATOM     17  H   LIG d   1       1.441  85.088 116.159  0.00  0.00     0.149 HD
ENDBRANCH   6  13
BRANCH   5  18
ATOM     18  N   LIG d   1       5.046  85.627 117.118  0.00  0.00     0.381 N 
ATOM     19  H   LIG d   1       5.914  85.540 116.627  0.00  0.00    -0.090 HD
ATOM     20  H   LIG d   1       4.631  84.714 117.188  0.00  0.00    -0.090 HD
ATOM     21  H   LIG d   1       5.207  85.997 118.029  0.00  0.00    -0.090 HD
ENDBRANCH   5  18
BRANCH   3  22
ATOM     22  C   LIG d   1       4.691  89.687 114.604  0.00  0.00     0.382 C 
ATOM     23  O   LIG d   1       5.181  90.335 115.560  0.00  0.00    -0.241 OA
ATOM     24  O   LIG d   1       4.565  90.235 113.492  0.00  0.00    -0.241 OA
ENDBRANCH   3  22
TORSDOF 7
ENDMDL
MODEL 4
REMARK VINA RESULT:      -5.1      2.316      4.361
REMARK  7 active torsions:
REMARK  status: ('A' for Active; 'I' for Inactive)
REMARK    1  A    between atoms: C_2  and  C_3 
REMARK    2  A    between atoms: C_3  and  O_6 
REMARK    3  A    between atoms: C_3  and  C_4 
REMARK    4  A    between atoms: C_7  and  O_6 
REMARK    5  A    between atoms: C_9  and  C_10 
REMARK    6  A    between atoms: N_15  and  C_14 
REMARK    7  A    between atoms: N_20  and  C_19 
REMARK       I    between atoms: C_22  and  N_20 
ROOT
ATOM      1  C   LIG d   1      -5.492  74.713 117.215  0.00  0.00     0.161 C 
ATOM      2  C   LIG d   1      -6.490  73.769 116.920  0.00  0.00     0.016 C 
ATOM      3  C   LIG d   1      -7.870  74.075 116.907  0.00  0.00     0.038 C 
ATOM      4  C   LIG d   1      -8.340  75.390 117.043  0.00  0.00     0.028 C 
ATOM      5  C   LIG d   1      -7.403  76.288 117.843  0.00  0.00    -0.047 C 
ATOM      6  C   LIG d   1      -5.977  76.177 117.256  0.00  0.00     0.091 C 
ENDROOT
BRANCH   1   7
ATOM      7  O   LIG d   1      -4.398  74.573 116.287  0.00  0.00    -0.368 OA
BRANCH   7   8
ATOM      8  C   LIG d   1      -4.349  75.541 115.210  0.00  0.00     0.119 C 
BRANCH   8   9
ATOM      9  C   LIG d   1      -4.927  74.863 113.952  0.00  0.00     0.028 C 
ATOM     10  C   LIG d   1      -5.618  75.864 113.011  0.00  0.00     0.006 C 
ENDBRANCH   8   9
BRANCH   8  11
ATOM     11  C   LIG d   1      -2.905  75.900 114.849  0.00  0.00     0.028 C 
ATOM     12  C   LIG d   1      -1.985  75.977 116.078  0.00  0.00     0.006 C 
ENDBRANCH   8  11
ENDBRANCH   7   8
ENDBRANCH   1   7
BRANCH   6  13
ATOM     13  N   LIG d   1      -4.981  76.959 118.034  0.00  0.00    -0.311 N 
ATOM     14  C   LIG d   1      -4.593  78.189 117.700  0.00  0.00     0.210 C 
ATOM     15  C   LIG d   1      -3.542  78.808 118.626  0.00  0.00     0.109 C 
ATOM     16  O   LIG d   1      -5.043  78.838 116.744  0.00  0.00    -0.276 OA
ATOM     17  H   LIG d   1      -4.588  76.521 118.843  0.00  0.00     0.149 HD
ENDBRANCH   6  13
BRANCH   5  18
ATOM     18  N   LIG d   1      -7.945  77.659 117.789  0.00  0.00     0.381 N 
ATOM     19  H   LIG d   1      -8.200  77.885 116.848  0.00  0.00    -0.090 HD
ATOM     20  H   LIG d   1      -7.233  78.302 118.087  0.00  0.00    -0.090 HD
ATOM     21  H   LIG d   1      -8.741  77.735 118.384  0.00  0.00    -0.090 HD
ENDBRANCH   5  18
BRANCH   3  22
ATOM     22  C   LIG d   1      -8.800  73.052 116.797  0.00  0.00     0.382 C 
ATOM     23  O   LIG d   1      -9.872  73.106 117.447  0.00  0.00    -0.241 OA
ATOM     24  O   LIG d   1      -8.560  72.054 116.092  0.00  0.00    -0.241 OA
ENDBRANCH   3  22
TORSDOF 7
ENDMDL
MODEL 5
REMARK VINA RESULT:      -5.0     12.548     15.150
REMARK  7 active torsions:
REMARK  status: ('A' for Active; 'I' for Inactive)
REMARK    1  A    between atoms: C_2  and  C_3 
REMARK    2  A    between atoms: C_3  and  O_6 
REMARK    3  A    between atoms: C_3  and  C_4 
REMARK    4  A    between atoms: C_7  and  O_6 
REMARK    5  A    between atoms: C_9  and  C_10 
REMARK    6  A    between atoms: N_15  and  C_14 
REMARK    7  A    between atoms: N_20  and  C_19 
REMARK       I    between atoms: C_22  and  N_20 
ROOT
ATOM      1  C   LIG d   1       3.510  85.329 114.141  0.00  0.00     0.161 C 
ATOM      2  C   LIG d   1       4.012  86.630 114.312  0.00  0.00     0.016 C 
ATOM      3  C   LIG d   1       3.635  87.723 113.498  0.00  0.00     0.038 C 
ATOM      4  C   LIG d   1       2.609  87.620 112.547  0.00  0.00     0.028 C 
ATOM      5  C   LIG d   1       2.433  86.208 111.997  0.00  0.00    -0.047 C 
ATOM      6  C   LIG d   1       2.308  85.221 113.181  0.00  0.00     0.091 C 
ENDROOT
BRANCH   1   7
ATOM      7  O   LIG d   1       3.180  84.761 115.424  0.00  0.00    -0.368 OA
BRANCH   7   8
ATOM      8  C   LIG d   1       1.781  84.804 115.799  0.00  0.00     0.119 C 
BRANCH   8   9
ATOM      9  C   LIG d   1       1.607  85.959 116.805  0.00  0.00     0.028 C 
ATOM     10  C   LIG d   1       0.791  87.126 116.224  0.00  0.00     0.006 C 
ENDBRANCH   8   9
BRANCH   8  11
ATOM     11  C   LIG d   1       1.368  83.540 116.558  0.00  0.00     0.028 C 
ATOM     12  C   LIG d   1       0.636  83.847 117.874  0.00  0.00     0.006 C 
ENDBRANCH   8  11
ENDBRANCH   7   8
ENDBRANCH   1   7
BRANCH   6  13
ATOM     13  N   LIG d   1       2.216  83.807 112.732  0.00  0.00    -0.311 N 
ATOM     14  C   LIG d   1       1.061  83.167 112.557  0.00  0.00     0.210 C 
ATOM     15  C   LIG d   1       1.192  81.708 112.110  0.00  0.00     0.109 C 
ATOM     16  O   LIG d   1      -0.060  83.679 112.698  0.00  0.00    -0.276 OA
ATOM     17  H   LIG d   1       3.077  83.325 112.565  0.00  0.00     0.149 HD
ENDBRANCH   6  13
BRANCH   5  18
ATOM     18  N   LIG d   1       1.245  86.215 111.123  0.00  0.00     0.381 N 
ATOM     19  H   LIG d   1       0.987  87.158 110.909  0.00  0.00    -0.090 HD
ATOM     20  H   LIG d   1       0.480  85.782 111.609  0.00  0.00    -0.090 HD
ATOM     21  H   LIG d   1       1.438  85.717 110.282  0.00  0.00    -0.090 HD
ENDBRANCH   5  18
BRANCH   3  22
ATOM     22  C   LIG d   1       4.316  88.926 113.604  0.00  0.00     0.382 C 
ATOM     23  O   LIG d   1       5.321  89.144 112.886  0.00  0.00    -0.241 OA
ATOM     24  O   LIG d   1       3.964  89.779 114.441  0.00  0.00    -0.241 OA
ENDBRANCH   3  22
TORSDOF 7
ENDMDL
MODEL 6
REMARK VINA RESULT:      -4.9      2.332      5.136
REMARK  7 active torsions:
REMARK  status: ('A' for Active; 'I' for Inactive)
REMARK    1  A    between atoms: C_2  and  C_3 
REMARK    2  A    between atoms: C_3  and  O_6 
REMARK    3  A    between atoms: C_3  and  C_4 
REMARK    4  A    between atoms: C_7  and  O_6 
REMARK    5  A    between atoms: C_9  and  C_10 
REMARK    6  A    between atoms: N_15  and  C_14 
REMARK    7  A    between atoms: N_20  and  C_19 
REMARK       I    between atoms: C_22  and  N_20 
ROOT
ATOM      1  C   LIG d   1      -6.596  76.893 117.164  0.00  0.00     0.161 C 
ATOM      2  C   LIG d   1      -7.075  75.608 116.860  0.00  0.00     0.016 C 
ATOM      3  C   LIG d   1      -8.419  75.212 117.055  0.00  0.00     0.038 C 
ATOM      4  C   LIG d   1      -9.414  76.127 117.429  0.00  0.00     0.028 C 
ATOM      5  C   LIG d   1      -8.880  77.309 118.230  0.00  0.00    -0.047 C 
ATOM      6  C   LIG d   1      -7.691  77.937 117.468  0.00  0.00     0.091 C 
ENDROOT
BRANCH   1   7
ATOM      7  O   LIG d   1      -5.740  77.359 116.102  0.00  0.00    -0.368 OA
BRANCH   7   8
ATOM      8  C   LIG d   1      -4.348  76.966 116.186  0.00  0.00     0.119 C 
BRANCH   8   9
ATOM      9  C   LIG d   1      -3.551  78.189 116.681  0.00  0.00     0.028 C 
ATOM     10  C   LIG d   1      -2.840  78.929 115.536  0.00  0.00     0.006 C 
ENDBRANCH   8   9
BRANCH   8  11
ATOM     11  C   LIG d   1      -3.776  76.643 114.803  0.00  0.00     0.028 C 
ATOM     12  C   LIG d   1      -4.592  75.576 114.055  0.00  0.00     0.006 C 
ENDBRANCH   8  11
ENDBRANCH   7   8
ENDBRANCH   1   7
BRANCH   6  13
ATOM     13  N   LIG d   1      -7.056  79.048 118.223  0.00  0.00    -0.311 N 
ATOM     14  C   LIG d   1      -7.442  80.319 118.120  0.00  0.00     0.210 C 
ATOM     15  C   LIG d   1      -6.640  81.309 118.971  0.00  0.00     0.109 C 
ATOM     16  O   LIG d   1      -8.393  80.715 117.430  0.00  0.00    -0.276 OA
ATOM     17  H   LIG d   1      -6.296  78.811 118.830  0.00  0.00     0.149 HD
ENDBRANCH   6  13
BRANCH   5  18
ATOM     18  N   LIG d   1      -9.998  78.251 118.434  0.00  0.00     0.381 N 
ATOM     19  H   LIG d   1      -9.643  79.138 118.730  0.00  0.00    -0.090 HD
ATOM     20  H   LIG d   1     -10.596  77.893 119.158  0.00  0.00    -0.090 HD
ATOM     21  H   LIG d   1     -10.513  78.356 117.588  0.00  0.00    -0.090 HD
ENDBRANCH   5  18
BRANCH   3  22
ATOM     22  C   LIG d   1      -8.769  73.878 116.914  0.00  0.00     0.382 C 
ATOM     23  O   LIG d   1      -9.831  73.451 117.430  0.00  0.00    -0.241 OA
ATOM     24  O   LIG d   1      -8.016  73.087 116.316  0.00  0.00    -0.241 OA
ENDBRANCH   3  22
TORSDOF 7
ENDMDL
MODEL 7
REMARK VINA RESULT:      -4.8      2.574      5.314
REMARK  7 active torsions:
REMARK  status: ('A' for Active; 'I' for Inactive)
REMARK    1  A    between atoms: C_2  and  C_3 
REMARK    2  A    between atoms: C_3  and  O_6 
REMARK    3  A    between atoms: C_3  and  C_4 
REMARK    4  A    between atoms: C_7  and  O_6 
REMARK    5  A    between atoms: C_9  and  C_10 
REMARK    6  A    between atoms: N_15  and  C_14 
REMARK    7  A    between atoms: N_20  and  C_19 
REMARK       I    between atoms: C_22  and  N_20 
ROOT
ATOM      1  C   LIG d   1      -5.235  75.532 115.843  0.00  0.00     0.161 C 
ATOM      2  C   LIG d   1      -5.920  74.357 115.491  0.00  0.00     0.016 C 
ATOM      3  C   LIG d   1      -7.037  73.864 116.204  0.00  0.00     0.038 C 
ATOM      4  C   LIG d   1      -7.641  74.597 117.236  0.00  0.00     0.028 C 
ATOM      5  C   LIG d   1      -6.680  75.541 117.951  0.00  0.00    -0.047 C 
ATOM      6  C   LIG d   1      -5.947  76.404 116.898  0.00  0.00     0.091 C 
ENDROOT
BRANCH   1   7
ATOM      7  O   LIG d   1      -4.953  76.306 114.661  0.00  0.00    -0.368 OA
BRANCH   7   8
ATOM      8  C   LIG d   1      -3.581  76.282 114.196  0.00  0.00     0.119 C 
BRANCH   8   9
ATOM      9  C   LIG d   1      -2.750  75.518 115.245  0.00  0.00     0.028 C 
ATOM     10  C   LIG d   1      -1.275  75.953 115.255  0.00  0.00     0.006 C 
ENDBRANCH   8   9
BRANCH   8  11
ATOM     11  C   LIG d   1      -2.982  77.691 114.152  0.00  0.00     0.028 C 
ATOM     12  C   LIG d   1      -2.809  78.220 112.719  0.00  0.00     0.006 C 
ENDBRANCH   8  11
ENDBRANCH   7   8
ENDBRANCH   1   7
BRANCH   6  13
ATOM     13  N   LIG d   1      -4.927  77.296 117.507  0.00  0.00    -0.311 N 
ATOM     14  C   LIG d   1      -4.982  78.625 117.441  0.00  0.00     0.210 C 
ATOM     15  C   LIG d   1      -3.818  79.355 118.119  0.00  0.00     0.109 C 
ATOM     16  O   LIG d   1      -5.901  79.270 116.914  0.00  0.00    -0.276 OA
ATOM     17  H   LIG d   1      -4.162  76.857 117.982  0.00  0.00     0.149 HD
ENDBRANCH   6  13
BRANCH   5  18
ATOM     18  N   LIG d   1      -7.469  76.341 118.907  0.00  0.00     0.381 N 
ATOM     19  H   LIG d   1      -7.645  77.248 118.525  0.00  0.00    -0.090 HD
ATOM     20  H   LIG d   1      -6.939  76.452 119.753  0.00  0.00    -0.090 HD
ATOM     21  H   LIG d   1      -8.331  75.883 119.104  0.00  0.00    -0.090 HD
ENDBRANCH   5  18
BRANCH   3  22
ATOM     22  C   LIG d   1      -7.536  72.603 115.912  0.00  0.00     0.382 C 
ATOM     23  O   LIG d   1      -6.837  71.786 115.268  0.00  0.00    -0.241 OA
ATOM     24  O   LIG d   1      -8.694  72.290 116.247  0.00  0.00    -0.241 OA
ENDBRANCH   3  22
TORSDOF 7
ENDMDL
MODEL 8
REMARK VINA RESULT:      -4.8      3.888      5.841
REMARK  7 active torsions:
REMARK  status: ('A' for Active; 'I' for Inactive)
REMARK    1  A    between atoms: C_2  and  C_3 
REMARK    2  A    between atoms: C_3  and  O_6 
REMARK    3  A    between atoms: C_3  and  C_4 
REMARK    4  A    between atoms: C_7  and  O_6 
REMARK    5  A    between atoms: C_9  and  C_10 
REMARK    6  A    between atoms: N_15  and  C_14 
REMARK    7  A    between atoms: N_20  and  C_19 
REMARK       I    between atoms: C_22  and  N_20 
ROOT
ATOM      1  C   LIG d   1      -2.993  76.196 116.822  0.00  0.00     0.161 C 
ATOM      2  C   LIG d   1      -3.002  77.395 116.089  0.00  0.00     0.016 C 
ATOM      3  C   LIG d   1      -2.118  77.658 115.017  0.00  0.00     0.038 C 
ATOM      4  C   LIG d   1      -1.259  76.674 114.505  0.00  0.00     0.028 C 
ATOM      5  C   LIG d   1      -0.861  75.622 115.535  0.00  0.00    -0.047 C 
ATOM      6  C   LIG d   1      -2.138  75.068 116.207  0.00  0.00     0.091 C 
ENDROOT
BRANCH   1   7
ATOM      7  O   LIG d   1      -4.344  75.743 117.034  0.00  0.00    -0.368 OA
BRANCH   7   8
ATOM      8  C   LIG d   1      -4.847  74.773 116.082  0.00  0.00     0.119 C 
BRANCH   8   9
ATOM      9  C   LIG d   1      -5.805  75.513 115.129  0.00  0.00     0.028 C 
ATOM     10  C   LIG d   1      -5.277  75.558 113.685  0.00  0.00     0.006 C 
ENDBRANCH   8   9
BRANCH   8  11
ATOM     11  C   LIG d   1      -5.705  73.708 116.773  0.00  0.00     0.028 C 
ATOM     12  C   LIG d   1      -6.238  72.647 115.797  0.00  0.00     0.006 C 
ENDBRANCH   8  11
ENDBRANCH   7   8
ENDBRANCH   1   7
BRANCH   6  13
ATOM     13  N   LIG d   1      -1.834  74.094 117.287  0.00  0.00    -0.311 N 
ATOM     14  C   LIG d   1      -1.030  74.366 118.314  0.00  0.00     0.210 C 
ATOM     15  C   LIG d   1      -0.835  73.214 119.305  0.00  0.00     0.109 C 
ATOM     16  O   LIG d   1      -0.484  75.461 118.514  0.00  0.00    -0.276 OA
ATOM     17  H   LIG d   1      -2.259  73.191 117.220  0.00  0.00     0.149 HD
ENDBRANCH   6  13
BRANCH   5  18
ATOM     18  N   LIG d   1      -0.080  74.586 114.835  0.00  0.00     0.381 N 
ATOM     19  H   LIG d   1       0.056  74.852 113.880  0.00  0.00    -0.090 HD
ATOM     20  H   LIG d   1      -0.595  73.723 114.851  0.00  0.00    -0.090 HD
ATOM     21  H   LIG d   1       0.802  74.463 115.282  0.00  0.00    -0.090 HD
ENDBRANCH   5  18
BRANCH   3  22
ATOM     22  C   LIG d   1      -2.059  78.932 114.472  0.00  0.00     0.382 C 
ATOM     23  O   LIG d   1      -3.100  79.628 114.393  0.00  0.00    -0.241 OA
ATOM     24  O   LIG d   1      -0.988  79.375 114.017  0.00  0.00    -0.241 OA
ENDBRANCH   3  22
TORSDOF 7
ENDMDL
MODEL 9
REMARK VINA RESULT:      -4.7     14.463     16.547
REMARK  7 active torsions:
REMARK  status: ('A' for Active; 'I' for Inactive)
REMARK    1  A    between atoms: C_2  and  C_3 
REMARK    2  A    between atoms: C_3  and  O_6 
REMARK    3  A    between atoms: C_3  and  C_4 
REMARK    4  A    between atoms: C_7  and  O_6 
REMARK    5  A    between atoms: C_9  and  C_10 
REMARK    6  A    between atoms: N_15  and  C_14 
REMARK    7  A    between atoms: N_20  and  C_19 
REMARK       I    between atoms: C_22  and  N_20 
ROOT
ATOM      1  C   LIG d   1      -6.415  91.298 118.400  0.00  0.00     0.161 C 
ATOM      2  C   LIG d   1      -7.360  92.338 118.386  0.00  0.00     0.016 C 
ATOM      3  C   LIG d   1      -7.034  93.689 118.642  0.00  0.00     0.038 C 
ATOM      4  C   LIG d   1      -5.705  94.118 118.782  0.00  0.00     0.028 C 
ATOM      5  C   LIG d   1      -4.771  93.032 119.305  0.00  0.00    -0.047 C 
ATOM      6  C   LIG d   1      -4.944  91.762 118.441  0.00  0.00     0.091 C 
ENDROOT
BRANCH   1   7
ATOM      7  O   LIG d   1      -6.633  90.424 117.275  0.00  0.00    -0.368 OA
BRANCH   7   8
ATOM      8  C   LIG d   1      -6.835  91.072 115.994  0.00  0.00     0.119 C 
BRANCH   8   9
ATOM      9  C   LIG d   1      -7.939  90.294 115.251  0.00  0.00     0.028 C 
ATOM     10  C   LIG d   1      -8.673  89.299 116.166  0.00  0.00     0.006 C 
ENDBRANCH   8   9
BRANCH   8  11
ATOM     11  C   LIG d   1      -5.591  90.955 115.109  0.00  0.00     0.028 C 
ATOM     12  C   LIG d   1      -4.932  89.569 115.186  0.00  0.00     0.006 C 
ENDBRANCH   8  11
ENDBRANCH   7   8
ENDBRANCH   1   7
BRANCH   6  13
ATOM     13  N   LIG d   1      -4.127  90.624 118.936  0.00  0.00    -0.311 N 
ATOM     14  C   LIG d   1      -3.020  90.197 118.329  0.00  0.00     0.210 C 
ATOM     15  C   LIG d   1      -2.340  88.996 118.995  0.00  0.00     0.109 C 
ATOM     16  O   LIG d   1      -2.520  90.719 117.322  0.00  0.00    -0.276 OA
ATOM     17  H   LIG d   1      -4.443  90.162 119.766  0.00  0.00     0.149 HD
ENDBRANCH   6  13
BRANCH   5  18
ATOM     18  N   LIG d   1      -3.398  93.572 119.271  0.00  0.00     0.381 N 
ATOM     19  H   LIG d   1      -3.177  93.877 118.344  0.00  0.00    -0.090 HD
ATOM     20  H   LIG d   1      -2.756  92.842 119.525  0.00  0.00    -0.090 HD
ATOM     21  H   LIG d   1      -3.316  94.334 119.908  0.00  0.00    -0.090 HD
ENDBRANCH   5  18
BRANCH   3  22
ATOM     22  C   LIG d   1      -8.047  94.622 118.801  0.00  0.00     0.382 C 
ATOM     23  O   LIG d   1      -7.769  95.844 118.874  0.00  0.00    -0.241 OA
ATOM     24  O   LIG d   1      -9.232  94.255 118.916  0.00  0.00    -0.241 OA
ENDBRANCH   3  22
TORSDOF 7
ENDMDL
