MODEL 1
REMARK VINA RESULT:      -5.9      0.000      0.000
REMARK  7 active torsions:
REMARK  status: ('A' for Active; 'I' for Inactive)
REMARK    1  A    between atoms: C_2  and  C_3 
REMARK    2  A    between atoms: C_3  and  O_6 
REMARK    3  A    between atoms: C_3  and  C_4 
REMARK    4  A    between atoms: C_7  and  O_6 
REMARK    5  A    between atoms: C_9  and  C_10 
REMARK    6  A    between atoms: N_15  and  C_14 
REMARK    7  A    between atoms: N_20  and  C_19 
REMARK       I    between atoms: C_22  and  N_20 
ROOT
ATOM      1  C   LIG d   1      -6.939  74.452 118.409  0.00  0.00     0.161 C 
ATOM      2  C   LIG d   1      -8.146  75.155 118.554  0.00  0.00     0.016 C 
ATOM      3  C   LIG d   1      -8.442  76.345 117.850  0.00  0.00     0.038 C 
ATOM      4  C   LIG d   1      -7.607  76.834 116.835  0.00  0.00     0.028 C 
ATOM      5  C   LIG d   1      -6.145  76.437 117.010  0.00  0.00    -0.047 C 
ATOM      6  C   LIG d   1      -6.062  74.909 117.224  0.00  0.00     0.091 C 
ENDROOT
BRANCH   1   7
ATOM      7  O   LIG d   1      -7.204  73.038 118.320  0.00  0.00    -0.368 OA
BRANCH   7   8
ATOM      8  C   LIG d   1      -7.739  72.568 117.058  0.00  0.00     0.119 C 
BRANCH   8   9
ATOM      9  C   LIG d   1      -9.187  72.106 117.313  0.00  0.00     0.028 C 
ATOM     10  C   LIG d   1      -9.342  70.579 117.214  0.00  0.00     0.006 C 
ENDBRANCH   8   9
BRANCH   8  11
ATOM     11  C   LIG d   1      -6.997  71.322 116.567  0.00  0.00     0.028 C 
ATOM     12  C   LIG d   1      -6.097  71.605 115.353  0.00  0.00     0.006 C 
ENDBRANCH   8  11
ENDBRANCH   7   8
ENDBRANCH   1   7
BRANCH   6  13
ATOM     13  N   LIG d   1      -4.674  74.448 117.488  0.00  0.00    -0.311 N 
ATOM     14  C   LIG d   1      -3.805  74.150 116.523  0.00  0.00     0.210 C 
ATOM     15  C   LIG d   1      -2.433  73.675 117.013  0.00  0.00     0.109 C 
ATOM     16  O   LIG d   1      -4.029  74.265 115.309  0.00  0.00    -0.276 OA
ATOM     17  H   LIG d   1      -4.398  74.356 118.446  0.00  0.00     0.149 HD
ENDBRANCH   6  13
BRANCH   5  18
ATOM     18  N   LIG d   1      -5.413  76.894 115.813  0.00  0.00     0.381 N 
ATOM     19  H   LIG d   1      -4.684  76.245 115.594  0.00  0.00    -0.090 HD
ATOM     20  H   LIG d   1      -4.993  77.786 116.010  0.00  0.00    -0.090 HD
ATOM     21  H   LIG d   1      -6.038  76.975 115.042  0.00  0.00    -0.090 HD
ENDBRANCH   5  18
BRANCH   3  22
ATOM     22  C   LIG d   1      -9.567  77.082 118.189  0.00  0.00     0.382 C 
ATOM     23  O   LIG d   1     -10.703  76.550 118.143  0.00  0.00    -0.241 OA
ATOM     24  O   LIG d   1      -9.466  78.284 118.498  0.00  0.00    -0.241 OA
ENDBRANCH   3  22
TORSDOF 7
ENDMDL
MODEL 2
REMARK VINA RESULT:      -5.3      9.500     11.701
REMARK  7 active torsions:
REMARK  status: ('A' for Active; 'I' for Inactive)
REMARK    1  A    between atoms: C_2  and  C_3 
REMARK    2  A    between atoms: C_3  and  O_6 
REMARK    3  A    between atoms: C_3  and  C_4 
REMARK    4  A    between atoms: C_7  and  O_6 
REMARK    5  A    between atoms: C_9  and  C_10 
REMARK    6  A    between atoms: N_15  and  C_14 
REMARK    7  A    between atoms: N_20  and  C_19 
REMARK       I    between atoms: C_22  and  N_20 
ROOT
ATOM      1  C   LIG d   1      -0.703  83.281 114.929  0.00  0.00     0.161 C 
ATOM      2  C   LIG d   1       0.003  84.482 115.108  0.00  0.00     0.016 C 
ATOM      3  C   LIG d   1       0.468  85.278 114.036  0.00  0.00     0.038 C 
ATOM      4  C   LIG d   1       0.125  85.002 112.704  0.00  0.00     0.028 C 
ATOM      5  C   LIG d   1      -0.158  83.526 112.445  0.00  0.00    -0.047 C 
ATOM      6  C   LIG d   1      -1.183  83.022 113.486  0.00  0.00     0.091 C 
ENDROOT
BRANCH   1   7
ATOM      7  O   LIG d   1      -1.815  83.227 115.845  0.00  0.00    -0.368 OA
BRANCH   7   8
ATOM      8  C   LIG d   1      -1.722  82.244 116.905  0.00  0.00     0.119 C 
BRANCH   8   9
ATOM      9  C   LIG d   1      -3.054  81.471 116.938  0.00  0.00     0.028 C 
ATOM     10  C   LIG d   1      -2.863  79.962 116.714  0.00  0.00     0.006 C 
ENDBRANCH   8   9
BRANCH   8  11
ATOM     11  C   LIG d   1      -1.606  82.914 118.277  0.00  0.00     0.028 C 
ATOM     12  C   LIG d   1      -0.150  83.070 118.744  0.00  0.00     0.006 C 
ENDBRANCH   8  11
ENDBRANCH   7   8
ENDBRANCH   1   7
BRANCH   6  13
ATOM     13  N   LIG d   1      -1.453  81.566 113.356  0.00  0.00    -0.311 N 
ATOM     14  C   LIG d   1      -2.666  81.061 113.137  0.00  0.00     0.210 C 
ATOM     15  C   LIG d   1      -2.725  79.533 113.056  0.00  0.00     0.109 C 
ATOM     16  O   LIG d   1      -3.692  81.736 112.969  0.00  0.00    -0.276 OA
ATOM     17  H   LIG d   1      -0.671  80.947 113.448  0.00  0.00     0.149 HD
ENDBRANCH   6  13
BRANCH   5  18
ATOM     18  N   LIG d   1      -0.636  83.402 111.055  0.00  0.00     0.381 N 
ATOM     19  H   LIG d   1      -1.516  82.925 111.041  0.00  0.00    -0.090 HD
ATOM     20  H   LIG d   1       0.026  82.857 110.531  0.00  0.00    -0.090 HD
ATOM     21  H   LIG d   1      -0.733  84.305 110.645  0.00  0.00    -0.090 HD
ENDBRANCH   5  18
BRANCH   3  22
ATOM     22  C   LIG d   1       1.320  86.343 114.290  0.00  0.00     0.382 C 
ATOM     23  O   LIG d   1       1.771  86.523 115.446  0.00  0.00    -0.241 OA
ATOM     24  O   LIG d   1       1.608  87.151 113.386  0.00  0.00    -0.241 OA
ENDBRANCH   3  22
TORSDOF 7
ENDMDL
MODEL 3
REMARK VINA RESULT:      -5.2      2.314      5.361
REMARK  7 active torsions:
REMARK  status: ('A' for Active; 'I' for Inactive)
REMARK    1  A    between atoms: C_2  and  C_3 
REMARK    2  A    between atoms: C_3  and  O_6 
REMARK    3  A    between atoms: C_3  and  C_4 
REMARK    4  A    between atoms: C_7  and  O_6 
REMARK    5  A    between atoms: C_9  and  C_10 
REMARK    6  A    between atoms: N_15  and  C_14 
REMARK    7  A    between atoms: N_20  and  C_19 
REMARK       I    between atoms: C_22  and  N_20 
ROOT
ATOM      1  C   LIG d   1      -6.438  73.594 118.043  0.00  0.00     0.161 C 
ATOM      2  C   LIG d   1      -5.407  74.510 117.774  0.00  0.00     0.016 C 
ATOM      3  C   LIG d   1      -4.612  74.465 116.606  0.00  0.00     0.038 C 
ATOM      4  C   LIG d   1      -4.895  73.586 115.549  0.00  0.00     0.028 C 
ATOM      5  C   LIG d   1      -5.606  72.313 115.994  0.00  0.00    -0.047 C 
ATOM      6  C   LIG d   1      -6.834  72.697 116.851  0.00  0.00     0.091 C 
ENDROOT
BRANCH   1   7
ATOM      7  O   LIG d   1      -7.592  74.292 118.549  0.00  0.00    -0.368 OA
BRANCH   7   8
ATOM      8  C   LIG d   1      -8.104  75.364 117.719  0.00  0.00     0.119 C 
BRANCH   8   9
ATOM      9  C   LIG d   1      -8.071  76.656 118.559  0.00  0.00     0.028 C 
ATOM     10  C   LIG d   1      -7.088  77.696 117.998  0.00  0.00     0.006 C 
ENDBRANCH   8   9
BRANCH   8  11
ATOM     11  C   LIG d   1      -9.578  75.144 117.371  0.00  0.00     0.028 C 
ATOM     12  C   LIG d   1     -10.502  76.203 117.992  0.00  0.00     0.006 C 
ENDBRANCH   8  11
ENDBRANCH   7   8
ENDBRANCH   1   7
BRANCH   6  13
ATOM     13  N   LIG d   1      -7.538  71.508 117.397  0.00  0.00    -0.311 N 
ATOM     14  C   LIG d   1      -8.788  71.182 117.070  0.00  0.00     0.210 C 
ATOM     15  C   LIG d   1      -9.331  69.928 117.763  0.00  0.00     0.109 C 
ATOM     16  O   LIG d   1      -9.486  71.793 116.247  0.00  0.00    -0.276 OA
ATOM     17  H   LIG d   1      -7.034  70.938 118.048  0.00  0.00     0.149 HD
ENDBRANCH   6  13
BRANCH   5  18
ATOM     18  N   LIG d   1      -5.962  71.554 114.781  0.00  0.00     0.381 N 
ATOM     19  H   LIG d   1      -6.516  70.759 115.029  0.00  0.00    -0.090 HD
ATOM     20  H   LIG d   1      -5.119  71.227 114.342  0.00  0.00    -0.090 HD
ATOM     21  H   LIG d   1      -6.469  72.137 114.151  0.00  0.00    -0.090 HD
ENDBRANCH   5  18
BRANCH   3  22
ATOM     22  C   LIG d   1      -3.494  75.279 116.504  0.00  0.00     0.382 C 
ATOM     23  O   LIG d   1      -3.370  76.271 117.262  0.00  0.00    -0.241 OA
ATOM     24  O   LIG d   1      -2.630  75.061 115.633  0.00  0.00    -0.241 OA
ENDBRANCH   3  22
TORSDOF 7
ENDMDL
MODEL 4
REMARK VINA RESULT:      -5.2      7.695     10.229
REMARK  7 active torsions:
REMARK  status: ('A' for Active; 'I' for Inactive)
REMARK    1  A    between atoms: C_2  and  C_3 
REMARK    2  A    between atoms: C_3  and  O_6 
REMARK    3  A    between atoms: C_3  and  C_4 
REMARK    4  A    between atoms: C_7  and  O_6 
REMARK    5  A    between atoms: C_9  and  C_10 
REMARK    6  A    between atoms: N_15  and  C_14 
REMARK    7  A    between atoms: N_20  and  C_19 
REMARK       I    between atoms: C_22  and  N_20 
ROOT
ATOM      1  C   LIG d   1      -2.591  81.609 113.237  0.00  0.00     0.161 C 
ATOM      2  C   LIG d   1      -3.129  80.315 113.341  0.00  0.00     0.016 C 
ATOM      3  C   LIG d   1      -2.389  79.141 113.072  0.00  0.00     0.038 C 
ATOM      4  C   LIG d   1      -1.008  79.175 112.825  0.00  0.00     0.028 C 
ATOM      5  C   LIG d   1      -0.534  80.489 112.215  0.00  0.00    -0.047 C 
ATOM      6  C   LIG d   1      -1.057  81.661 113.077  0.00  0.00     0.091 C 
ENDROOT
BRANCH   1   7
ATOM      7  O   LIG d   1      -3.004  82.402 114.367  0.00  0.00    -0.368 OA
BRANCH   7   8
ATOM      8  C   LIG d   1      -2.416  82.048 115.643  0.00  0.00     0.119 C 
BRANCH   8   9
ATOM      9  C   LIG d   1      -3.565  81.913 116.661  0.00  0.00     0.028 C 
ATOM     10  C   LIG d   1      -3.916  80.445 116.958  0.00  0.00     0.006 C 
ENDBRANCH   8   9
BRANCH   8  11
ATOM     11  C   LIG d   1      -1.530  83.176 116.180  0.00  0.00     0.028 C 
ATOM     12  C   LIG d   1      -1.248  83.047 117.685  0.00  0.00     0.006 C 
ENDBRANCH   8  11
ENDBRANCH   7   8
ENDBRANCH   1   7
BRANCH   6  13
ATOM     13  N   LIG d   1      -0.709  82.987 112.504  0.00  0.00    -0.311 N 
ATOM     14  C   LIG d   1       0.352  83.695 112.886  0.00  0.00     0.210 C 
ATOM     15  C   LIG d   1       0.517  85.045 112.181  0.00  0.00     0.109 C 
ATOM     16  O   LIG d   1       1.191  83.319 113.719  0.00  0.00    -0.276 OA
ATOM     17  H   LIG d   1      -1.318  83.353 111.799  0.00  0.00     0.149 HD
ENDBRANCH   6  13
BRANCH   5  18
ATOM     18  N   LIG d   1       0.938  80.440 112.139  0.00  0.00     0.381 N 
ATOM     19  H   LIG d   1       1.252  79.496 112.253  0.00  0.00    -0.090 HD
ATOM     20  H   LIG d   1       1.321  80.991 112.887  0.00  0.00    -0.090 HD
ATOM     21  H   LIG d   1       1.247  80.796 111.262  0.00  0.00    -0.090 HD
ENDBRANCH   5  18
BRANCH   3  22
ATOM     22  C   LIG d   1      -3.040  77.918 113.008  0.00  0.00     0.382 C 
ATOM     23  O   LIG d   1      -2.453  76.876 113.387  0.00  0.00    -0.241 OA
ATOM     24  O   LIG d   1      -4.189  77.838 112.536  0.00  0.00    -0.241 OA
ENDBRANCH   3  22
TORSDOF 7
ENDMDL
MODEL 5
REMARK VINA RESULT:      -5.0     13.665     15.789
REMARK  7 active torsions:
REMARK  status: ('A' for Active; 'I' for Inactive)
REMARK    1  A    between atoms: C_2  and  C_3 
REMARK    2  A    between atoms: C_3  and  O_6 
REMARK    3  A    between atoms: C_3  and  C_4 
REMARK    4  A    between atoms: C_7  and  O_6 
REMARK    5  A    between atoms: C_9  and  C_10 
REMARK    6  A    between atoms: N_15  and  C_14 
REMARK    7  A    between atoms: N_20  and  C_19 
REMARK       I    between atoms: C_22  and  N_20 
ROOT
ATOM      1  C   LIG d   1       2.194  85.941 114.740  0.00  0.00     0.161 C 
ATOM      2  C   LIG d   1       2.418  87.254 114.292  0.00  0.00     0.016 C 
ATOM      3  C   LIG d   1       3.630  87.952 114.503  0.00  0.00     0.038 C 
ATOM      4  C   LIG d   1       4.761  87.326 115.046  0.00  0.00     0.028 C 
ATOM      5  C   LIG d   1       4.424  86.160 115.969  0.00  0.00    -0.047 C 
ATOM      6  C   LIG d   1       3.455  85.203 115.236  0.00  0.00     0.091 C 
ENDROOT
BRANCH   1   7
ATOM      7  O   LIG d   1       1.542  85.177 113.706  0.00  0.00    -0.368 OA
BRANCH   7   8
ATOM      8  C   LIG d   1       2.410  84.421 112.828  0.00  0.00     0.119 C 
BRANCH   8   9
ATOM      9  C   LIG d   1       2.324  85.060 111.428  0.00  0.00     0.028 C 
ATOM     10  C   LIG d   1       3.550  85.930 111.104  0.00  0.00     0.006 C 
ENDBRANCH   8   9
BRANCH   8  11
ATOM     11  C   LIG d   1       1.909  82.985 112.649  0.00  0.00     0.028 C 
ATOM     12  C   LIG d   1       2.940  82.074 111.964  0.00  0.00     0.006 C 
ENDBRANCH   8  11
ENDBRANCH   7   8
ENDBRANCH   1   7
BRANCH   6  13
ATOM     13  N   LIG d   1       3.008  84.079 116.099  0.00  0.00    -0.311 N 
ATOM     14  C   LIG d   1       3.600  82.886 116.114  0.00  0.00     0.210 C 
ATOM     15  C   LIG d   1       2.968  81.862 117.062  0.00  0.00     0.109 C 
ATOM     16  O   LIG d   1       4.609  82.589 115.456  0.00  0.00    -0.276 OA
ATOM     17  H   LIG d   1       2.215  84.243 116.688  0.00  0.00     0.149 HD
ENDBRANCH   6  13
BRANCH   5  18
ATOM     18  N   LIG d   1       5.693  85.514 116.354  0.00  0.00     0.381 N 
ATOM     19  H   LIG d   1       6.162  86.072 117.040  0.00  0.00    -0.090 HD
ATOM     20  H   LIG d   1       6.283  85.449 115.544  0.00  0.00    -0.090 HD
ATOM     21  H   LIG d   1       5.516  84.605 116.720  0.00  0.00    -0.090 HD
ENDBRANCH   5  18
BRANCH   3  22
ATOM     22  C   LIG d   1       3.705  89.304 114.204  0.00  0.00     0.382 C 
ATOM     23  O   LIG d   1       3.899  90.138 115.120  0.00  0.00    -0.241 OA
ATOM     24  O   LIG d   1       3.536  89.703 113.036  0.00  0.00    -0.241 OA
ENDBRANCH   3  22
TORSDOF 7
ENDMDL
MODEL 6
REMARK VINA RESULT:      -4.9      9.823     11.949
REMARK  7 active torsions:
REMARK  status: ('A' for Active; 'I' for Inactive)
REMARK    1  A    between atoms: C_2  and  C_3 
REMARK    2  A    between atoms: C_3  and  O_6 
REMARK    3  A    between atoms: C_3  and  C_4 
REMARK    4  A    between atoms: C_7  and  O_6 
REMARK    5  A    between atoms: C_9  and  C_10 
REMARK    6  A    between atoms: N_15  and  C_14 
REMARK    7  A    between atoms: N_20  and  C_19 
REMARK       I    between atoms: C_22  and  N_20 
ROOT
ATOM      1  C   LIG d   1      -0.272  84.046 114.778  0.00  0.00     0.161 C 
ATOM      2  C   LIG d   1      -1.392  83.201 114.844  0.00  0.00     0.016 C 
ATOM      3  C   LIG d   1      -1.744  82.292 113.819  0.00  0.00     0.038 C 
ATOM      4  C   LIG d   1      -0.907  82.058 112.717  0.00  0.00     0.028 C 
ATOM      5  C   LIG d   1      -0.026  83.251 112.362  0.00  0.00    -0.047 C 
ATOM      6  C   LIG d   1       0.713  83.726 113.634  0.00  0.00     0.091 C 
ENDROOT
BRANCH   1   7
ATOM      7  O   LIG d   1       0.415  84.047 116.045  0.00  0.00    -0.368 OA
BRANCH   7   8
ATOM      8  C   LIG d   1       0.238  82.867 116.867  0.00  0.00     0.119 C 
BRANCH   8   9
ATOM      9  C   LIG d   1      -0.019  83.342 118.310  0.00  0.00     0.028 C 
ATOM     10  C   LIG d   1      -1.349  82.815 118.873  0.00  0.00     0.006 C 
ENDBRANCH   8   9
BRANCH   8  11
ATOM     11  C   LIG d   1       1.524  82.039 116.936  0.00  0.00     0.028 C 
ATOM     12  C   LIG d   1       1.565  80.913 115.890  0.00  0.00     0.006 C 
ENDBRANCH   8  11
ENDBRANCH   7   8
ENDBRANCH   1   7
BRANCH   6  13
ATOM     13  N   LIG d   1       1.533  84.941 113.393  0.00  0.00    -0.311 N 
ATOM     14  C   LIG d   1       2.863  84.955 113.466  0.00  0.00     0.210 C 
ATOM     15  C   LIG d   1       3.511  86.318 113.202  0.00  0.00     0.109 C 
ATOM     16  O   LIG d   1       3.569  83.961 113.694  0.00  0.00    -0.276 OA
ATOM     17  H   LIG d   1       1.043  85.786 113.172  0.00  0.00     0.149 HD
ENDBRANCH   6  13
BRANCH   5  18
ATOM     18  N   LIG d   1       0.890  82.824 111.287  0.00  0.00     0.381 N 
ATOM     19  H   LIG d   1       0.691  81.878 111.029  0.00  0.00    -0.090 HD
ATOM     20  H   LIG d   1       1.834  82.865 111.629  0.00  0.00    -0.090 HD
ATOM     21  H   LIG d   1       0.789  83.420 110.496  0.00  0.00    -0.090 HD
ENDBRANCH   5  18
BRANCH   3  22
ATOM     22  C   LIG d   1      -2.964  81.636 113.871  0.00  0.00     0.382 C 
ATOM     23  O   LIG d   1      -3.230  80.885 114.841  0.00  0.00    -0.241 OA
ATOM     24  O   LIG d   1      -3.783  81.749 112.940  0.00  0.00    -0.241 OA
ENDBRANCH   3  22
TORSDOF 7
ENDMDL
MODEL 7
REMARK VINA RESULT:      -4.9     13.004     15.217
REMARK  7 active torsions:
REMARK  status: ('A' for Active; 'I' for Inactive)
REMARK    1  A    between atoms: C_2  and  C_3 
REMARK    2  A    between atoms: C_3  and  O_6 
REMARK    3  A    between atoms: C_3  and  C_4 
REMARK    4  A    between atoms: C_7  and  O_6 
REMARK    5  A    between atoms: C_9  and  C_10 
REMARK    6  A    between atoms: N_15  and  C_14 
REMARK    7  A    between atoms: N_20  and  C_19 
REMARK       I    between atoms: C_22  and  N_20 
ROOT
ATOM      1  C   LIG d   1       2.424  85.333 113.955  0.00  0.00     0.161 C 
ATOM      2  C   LIG d   1       3.155  86.324 113.278  0.00  0.00     0.016 C 
ATOM      3  C   LIG d   1       3.714  87.453 113.919  0.00  0.00     0.038 C 
ATOM      4  C   LIG d   1       3.709  87.591 115.315  0.00  0.00     0.028 C 
ATOM      5  C   LIG d   1       2.546  86.873 115.990  0.00  0.00    -0.047 C 
ATOM      6  C   LIG d   1       2.503  85.410 115.494  0.00  0.00     0.091 C 
ENDROOT
BRANCH   1   7
ATOM      7  O   LIG d   1       2.829  84.028 113.497  0.00  0.00    -0.368 OA
BRANCH   7   8
ATOM      8  C   LIG d   1       1.915  83.358 112.594  0.00  0.00     0.119 C 
BRANCH   8   9
ATOM      9  C   LIG d   1       1.286  82.180 113.363  0.00  0.00     0.028 C 
ATOM     10  C   LIG d   1       2.342  81.280 114.025  0.00  0.00     0.006 C 
ENDBRANCH   8   9
BRANCH   8  11
ATOM     11  C   LIG d   1       2.661  82.721 111.418  0.00  0.00     0.028 C 
ATOM     12  C   LIG d   1       4.083  83.276 111.243  0.00  0.00     0.006 C 
ENDBRANCH   8  11
ENDBRANCH   7   8
ENDBRANCH   1   7
BRANCH   6  13
ATOM     13  N   LIG d   1       1.343  84.659 116.042  0.00  0.00    -0.311 N 
ATOM     14  C   LIG d   1       1.466  83.597 116.836  0.00  0.00     0.210 C 
ATOM     15  C   LIG d   1       0.144  82.959 117.272  0.00  0.00     0.109 C 
ATOM     16  O   LIG d   1       2.545  83.143 117.247  0.00  0.00    -0.276 OA
ATOM     17  H   LIG d   1       0.430  84.979 115.784  0.00  0.00     0.149 HD
ENDBRANCH   6  13
BRANCH   5  18
ATOM     18  N   LIG d   1       2.740  86.984 117.448  0.00  0.00     0.381 N 
ATOM     19  H   LIG d   1       2.267  87.796 117.793  0.00  0.00    -0.090 HD
ATOM     20  H   LIG d   1       3.721  87.086 117.639  0.00  0.00    -0.090 HD
ATOM     21  H   LIG d   1       2.389  86.169 117.902  0.00  0.00    -0.090 HD
ENDBRANCH   5  18
BRANCH   3  22
ATOM     22  C   LIG d   1       4.253  88.479 113.157  0.00  0.00     0.382 C 
ATOM     23  O   LIG d   1       3.606  89.541 112.989  0.00  0.00    -0.241 OA
ATOM     24  O   LIG d   1       5.358  88.339 112.599  0.00  0.00    -0.241 OA
ENDBRANCH   3  22
TORSDOF 7
ENDMDL
MODEL 8
REMARK VINA RESULT:      -4.7     11.372     13.673
REMARK  7 active torsions:
REMARK  status: ('A' for Active; 'I' for Inactive)
REMARK    1  A    between atoms: C_2  and  C_3 
REMARK    2  A    between atoms: C_3  and  O_6 
REMARK    3  A    between atoms: C_3  and  C_4 
REMARK    4  A    between atoms: C_7  and  O_6 
REMARK    5  A    between atoms: C_9  and  C_10 
REMARK    6  A    between atoms: N_15  and  C_14 
REMARK    7  A    between atoms: N_20  and  C_19 
REMARK       I    between atoms: C_22  and  N_20 
ROOT
ATOM      1  C   LIG d   1       0.019  84.965 113.448  0.00  0.00     0.161 C 
ATOM      2  C   LIG d   1       0.762  85.662 112.480  0.00  0.00     0.016 C 
ATOM      3  C   LIG d   1       2.121  86.013 112.648  0.00  0.00     0.038 C 
ATOM      4  C   LIG d   1       2.877  85.557 113.738  0.00  0.00     0.028 C 
ATOM      5  C   LIG d   1       2.039  85.279 114.981  0.00  0.00    -0.047 C 
ATOM      6  C   LIG d   1       0.856  84.361 114.595  0.00  0.00     0.091 C 
ENDROOT
BRANCH   1   7
ATOM      7  O   LIG d   1      -0.772  83.941 112.812  0.00  0.00    -0.368 OA
BRANCH   7   8
ATOM      8  C   LIG d   1      -0.183  82.618 112.767  0.00  0.00     0.119 C 
BRANCH   8   9
ATOM      9  C   LIG d   1       0.402  82.420 111.355  0.00  0.00     0.028 C 
ATOM     10  C   LIG d   1       1.803  81.786 111.385  0.00  0.00     0.006 C 
ENDBRANCH   8   9
BRANCH   8  11
ATOM     11  C   LIG d   1      -1.249  81.528 112.920  0.00  0.00     0.028 C 
ATOM     12  C   LIG d   1      -2.376  81.929 113.885  0.00  0.00     0.006 C 
ENDBRANCH   8  11
ENDBRANCH   7   8
ENDBRANCH   1   7
BRANCH   6  13
ATOM     13  N   LIG d   1      -0.061  84.108 115.736  0.00  0.00    -0.311 N 
ATOM     14  C   LIG d   1       0.063  83.070 116.561  0.00  0.00     0.210 C 
ATOM     15  C   LIG d   1      -1.001  82.985 117.659  0.00  0.00     0.109 C 
ATOM     16  O   LIG d   1       0.972  82.228 116.506  0.00  0.00    -0.276 OA
ATOM     17  H   LIG d   1      -0.809  84.760 115.873  0.00  0.00     0.149 HD
ENDBRANCH   6  13
BRANCH   5  18
ATOM     18  N   LIG d   1       2.929  84.680 115.994  0.00  0.00     0.381 N 
ATOM     19  H   LIG d   1       3.880  84.746 115.691  0.00  0.00    -0.090 HD
ATOM     20  H   LIG d   1       2.697  83.707 116.095  0.00  0.00    -0.090 HD
ATOM     21  H   LIG d   1       2.817  85.148 116.866  0.00  0.00    -0.090 HD
ENDBRANCH   5  18
BRANCH   3  22
ATOM     22  C   LIG d   1       2.728  86.865 111.737  0.00  0.00     0.382 C 
ATOM     23  O   LIG d   1       3.978  86.877 111.626  0.00  0.00    -0.241 OA
ATOM     24  O   LIG d   1       2.044  87.652 111.055  0.00  0.00    -0.241 OA
ENDBRANCH   3  22
TORSDOF 7
ENDMDL
MODEL 9
REMARK VINA RESULT:      -4.7     11.489     14.692
REMARK  7 active torsions:
REMARK  status: ('A' for Active; 'I' for Inactive)
REMARK    1  A    between atoms: C_2  and  C_3 
REMARK    2  A    between atoms: C_3  and  O_6 
REMARK    3  A    between atoms: C_3  and  C_4 
REMARK    4  A    between atoms: C_7  and  O_6 
REMARK    5  A    between atoms: C_9  and  C_10 
REMARK    6  A    between atoms: N_15  and  C_14 
REMARK    7  A    between atoms: N_20  and  C_19 
REMARK       I    between atoms: C_22  and  N_20 
ROOT
ATOM      1  C   LIG d   1     -16.492  63.903 117.129  0.00  0.00     0.161 C 
ATOM      2  C   LIG d   1     -15.674  64.884 117.716  0.00  0.00     0.016 C 
ATOM      3  C   LIG d   1     -14.982  65.867 116.972  0.00  0.00     0.038 C 
ATOM      4  C   LIG d   1     -15.181  66.030 115.593  0.00  0.00     0.028 C 
ATOM      5  C   LIG d   1     -15.605  64.747 114.886  0.00  0.00    -0.047 C 
ATOM      6  C   LIG d   1     -16.809  64.134 115.636  0.00  0.00     0.091 C 
ENDROOT
BRANCH   1   7
ATOM      7  O   LIG d   1     -17.711  63.766 117.885  0.00  0.00    -0.368 OA
BRANCH   7   8
ATOM      8  C   LIG d   1     -18.786  64.670 117.529  0.00  0.00     0.119 C 
BRANCH   8   9
ATOM      9  C   LIG d   1     -19.075  65.553 118.758  0.00  0.00     0.028 C 
ATOM     10  C   LIG d   1     -18.631  67.011 118.551  0.00  0.00     0.006 C 
ENDBRANCH   8   9
BRANCH   8  11
ATOM     11  C   LIG d   1     -20.088  63.908 117.262  0.00  0.00     0.028 C 
ATOM     12  C   LIG d   1     -19.942  62.391 117.459  0.00  0.00     0.006 C 
ENDBRANCH   8  11
ENDBRANCH   7   8
ENDBRANCH   1   7
BRANCH   6  13
ATOM     13  N   LIG d   1     -17.233  62.832 115.060  0.00  0.00    -0.311 N 
ATOM     14  C   LIG d   1     -18.172  62.717 114.122  0.00  0.00     0.210 C 
ATOM     15  C   LIG d   1     -18.471  61.281 113.680  0.00  0.00     0.109 C 
ATOM     16  O   LIG d   1     -18.761  63.669 113.590  0.00  0.00    -0.276 OA
ATOM     17  H   LIG d   1     -16.784  62.009 115.412  0.00  0.00     0.149 HD
ENDBRANCH   6  13
BRANCH   5  18
ATOM     18  N   LIG d   1     -15.911  65.091 113.484  0.00  0.00     0.381 N 
ATOM     19  H   LIG d   1     -15.414  65.919 113.222  0.00  0.00    -0.090 HD
ATOM     20  H   LIG d   1     -16.895  65.275 113.402  0.00  0.00    -0.090 HD
ATOM     21  H   LIG d   1     -15.655  64.337 112.885  0.00  0.00    -0.090 HD
ENDBRANCH   5  18
BRANCH   3  22
ATOM     22  C   LIG d   1     -14.048  66.674 117.603  0.00  0.00     0.382 C 
ATOM     23  O   LIG d   1     -14.338  67.243 118.682  0.00  0.00    -0.241 OA
ATOM     24  O   LIG d   1     -12.934  66.876 117.083  0.00  0.00    -0.241 OA
ENDBRANCH   3  22
TORSDOF 7
ENDMDL
